MODEL 1
REMARK VINA RESULT:      -8.4      0.000      0.000
REMARK  Name = 
REMARK  4 active torsions:
REMARK  status: ('A' for Active; 'I' for Inactive)
REMARK    1  A    between atoms: C_1  and  C_2
REMARK    2  A    between atoms: N_11  and  C_12
REMARK    3  A    between atoms: C_15  and  C_16
REMARK    4  A    between atoms: C_24  and  C_25
REMARK                            x       y       z     vdW  Elec       q    Type
REMARK                         _______ _______ _______ _____ _____    ______ ____
ROOT
ATOM      1  C   UNL     1      -0.587  12.508  19.721  0.00  0.00    +0.000 A 
ATOM      2  C   UNL     1      -1.837  12.356  19.141  0.00  0.00    +0.000 A 
ATOM      3  C   UNL     1      -2.979  12.424  19.941  0.00  0.00    +0.000 A 
ATOM      4  C   UNL     1      -2.903  12.717  21.319  0.00  0.00    +0.000 A 
ATOM      5  C   UNL     1      -1.633  12.952  21.887  0.00  0.00    +0.000 A 
ATOM      6  C   UNL     1      -1.391  13.357  23.319  0.00  0.00    +0.000 C 
ATOM      7  C   UNL     1      -0.486  12.835  21.075  0.00  0.00    +0.000 A 
ENDROOT
BRANCH   1  18
ATOM      8  C   UNL     1       4.238   3.389  18.682  0.00  0.00    +0.000 C 
ATOM      9  C   UNL     1       3.432   4.568  19.146  0.00  0.00    +0.000 A 
ATOM     10  C   UNL     1       2.653   4.497  20.306  0.00  0.00    +0.000 A 
ATOM     11  C   UNL     1       1.887   5.593  20.723  0.00  0.00    +0.000 A 
ATOM     12  C   UNL     1       1.909   6.788  19.978  0.00  0.00    +0.000 A 
ATOM     13  N   UNL     1       1.203   7.944  20.261  0.00  0.00    +0.000 NA
ATOM     14  C   UNL     1       1.525   8.878  19.398  0.00  0.00    +0.000 A 
ATOM     15  N   UNL     1       0.970  10.125  19.473  0.00  0.00    +0.000 N 
ATOM     16  C   UNL     1       1.351  11.241  18.783  0.00  0.00    +0.000 C 
ATOM     17  O   UNL     1       2.293  11.332  18.000  0.00  0.00    +0.000 OA
ATOM     18  N   UNL     1       0.541  12.344  18.910  0.00  0.00    +0.000 N 
ATOM     19  S   UNL     1       2.590   8.421  18.156  0.00  0.00    +0.000 S 
ATOM     20  C   UNL     1       2.711   6.849  18.836  0.00  0.00    +0.000 A 
ATOM     21  C   UNL     1       3.464   5.752  18.395  0.00  0.00    +0.000 A 
ATOM     22  H   UNL     1       0.231  10.182  20.151  0.00  0.00    +0.000 HD
ATOM     23  H   UNL     1       0.652  12.962  18.116  0.00  0.00    +0.000 HD
ENDBRANCH   1  18
BRANCH   4  24
ATOM     24  C   UNL     1      -4.152  12.769  22.098  0.00  0.00    +0.000 A 
ATOM     25  N   UNL     1      -4.291  13.192  23.357  0.00  0.00    +0.000 NA
ATOM     26  C   UNL     1      -5.610  13.078  23.562  0.00  0.00    +0.000 A 
ATOM     27  N   UNL     1      -6.494  13.350  24.556  0.00  0.00    +0.000 N 
ATOM     28  N   UNL     1      -7.802  13.050  24.265  0.00  0.00    +0.000 NA
ATOM     29  C   UNL     1      -7.654  12.577  23.003  0.00  0.00    +0.000 A 
ATOM     30  C   UNL     1      -6.313  12.589  22.533  0.00  0.00    +0.000 A 
ATOM     31  N   UNL     1      -5.385  12.364  21.566  0.00  0.00    +0.000 N 
ATOM     32  H   UNL     1      -6.254  13.760  25.451  0.00  0.00    +0.000 HD
ATOM     33  H   UNL     1      -5.572  12.008  20.641  0.00  0.00    +0.000 HD
ENDBRANCH   4  24
TORSDOF 2
ENDMDL
MODEL 2
REMARK VINA RESULT:      -8.4      4.267     11.156
REMARK  Name = 
REMARK  4 active torsions:
REMARK  status: ('A' for Active; 'I' for Inactive)
REMARK    1  A    between atoms: C_1  and  C_2
REMARK    2  A    between atoms: N_11  and  C_12
REMARK    3  A    between atoms: C_15  and  C_16
REMARK    4  A    between atoms: C_24  and  C_25
REMARK                            x       y       z     vdW  Elec       q    Type
REMARK                         _______ _______ _______ _____ _____    ______ ____
ROOT
ATOM      1  C   UNL     1       2.281   6.858  19.969  0.00  0.00    +0.000 A 
ATOM      2  C   UNL     1       2.328   7.595  18.796  0.00  0.00    +0.000 A 
ATOM      3  C   UNL     1       3.177   7.191  17.763  0.00  0.00    +0.000 A 
ATOM      4  C   UNL     1       3.940   6.007  17.850  0.00  0.00    +0.000 A 
ATOM      5  C   UNL     1       3.826   5.218  19.015  0.00  0.00    +0.000 A 
ATOM      6  C   UNL     1       4.506   3.890  19.225  0.00  0.00    +0.000 C 
ATOM      7  C   UNL     1       2.998   5.663  20.067  0.00  0.00    +0.000 A 
ENDROOT
BRANCH   1  18
ATOM      8  C   UNL     1      -1.618  16.466  20.053  0.00  0.00    +0.000 C 
ATOM      9  C   UNL     1      -0.808  15.222  19.822  0.00  0.00    +0.000 A 
ATOM     10  C   UNL     1       0.240  15.207  18.897  0.00  0.00    +0.000 A 
ATOM     11  C   UNL     1       0.980  14.039  18.671  0.00  0.00    +0.000 A 
ATOM     12  C   UNL     1       0.677  12.868  19.392  0.00  0.00    +0.000 A 
ATOM     13  N   UNL     1       1.313  11.643  19.271  0.00  0.00    +0.000 NA
ATOM     14  C   UNL     1       0.819  10.804  20.150  0.00  0.00    +0.000 A 
ATOM     15  N   UNL     1       1.292   9.525  20.242  0.00  0.00    +0.000 N 
ATOM     16  C   UNL     1       1.024   8.614  21.225  0.00  0.00    +0.000 C 
ATOM     17  O   UNL     1       0.341   8.800  22.229  0.00  0.00    +0.000 OA
ATOM     18  N   UNL     1       1.491   7.338  21.019  0.00  0.00    +0.000 N 
ATOM     19  S   UNL     1      -0.476  11.373  21.090  0.00  0.00    +0.000 S 
ATOM     20  C   UNL     1      -0.358  12.907  20.328  0.00  0.00    +0.000 A 
ATOM     21  C   UNL     1      -1.121  14.063  20.547  0.00  0.00    +0.000 A 
ATOM     22  H   UNL     1       1.931   9.292  19.502  0.00  0.00    +0.000 HD
ATOM     23  H   UNL     1       0.952   6.670  21.555  0.00  0.00    +0.000 HD
ENDBRANCH   1  18
BRANCH   4  24
ATOM     24  C   UNL     1       4.815   5.649  16.722  0.00  0.00    +0.000 A 
ATOM     25  N   UNL     1       5.937   6.271  16.351  0.00  0.00    +0.000 NA
ATOM     26  C   UNL     1       6.359   5.529  15.320  0.00  0.00    +0.000 A 
ATOM     27  N   UNL     1       7.423   5.502  14.476  0.00  0.00    +0.000 N 
ATOM     28  N   UNL     1       7.402   4.489  13.550  0.00  0.00    +0.000 NA
ATOM     29  C   UNL     1       6.239   3.884  13.897  0.00  0.00    +0.000 A 
ATOM     30  C   UNL     1       5.573   4.495  14.994  0.00  0.00    +0.000 A 
ATOM     31  N   UNL     1       4.548   4.556  15.884  0.00  0.00    +0.000 N 
ATOM     32  H   UNL     1       8.202   6.149  14.504  0.00  0.00    +0.000 HD
ATOM     33  H   UNL     1       3.774   3.911  15.937  0.00  0.00    +0.000 HD
ENDBRANCH   4  24
TORSDOF 2
ENDMDL
MODEL 3
REMARK VINA RESULT:      -8.4      4.687     10.911
REMARK  Name = 
REMARK  4 active torsions:
REMARK  status: ('A' for Active; 'I' for Inactive)
REMARK    1  A    between atoms: C_1  and  C_2
REMARK    2  A    between atoms: N_11  and  C_12
REMARK    3  A    between atoms: C_15  and  C_16
REMARK    4  A    between atoms: C_24  and  C_25
REMARK                            x       y       z     vdW  Elec       q    Type
REMARK                         _______ _______ _______ _____ _____    ______ ____
ROOT
ATOM      1  C   UNL     1       1.435   8.373  19.746  0.00  0.00    +0.000 A 
ATOM      2  C   UNL     1       1.828   8.889  18.520  0.00  0.00    +0.000 A 
ATOM      3  C   UNL     1       2.816   8.235  17.783  0.00  0.00    +0.000 A 
ATOM      4  C   UNL     1       3.380   7.016  18.216  0.00  0.00    +0.000 A 
ATOM      5  C   UNL     1       2.917   6.453  19.425  0.00  0.00    +0.000 A 
ATOM      6  C   UNL     1       3.355   5.121  19.979  0.00  0.00    +0.000 C 
ATOM      7  C   UNL     1       1.950   7.150  20.180  0.00  0.00    +0.000 A 
ENDROOT
BRANCH   1  18
ATOM      8  C   UNL     1       0.280  18.631  18.762  0.00  0.00    +0.000 C 
ATOM      9  C   UNL     1       0.777  17.214  18.776  0.00  0.00    +0.000 A 
ATOM     10  C   UNL     1       2.020  16.881  18.227  0.00  0.00    +0.000 A 
ATOM     11  C   UNL     1       2.470  15.554  18.225  0.00  0.00    +0.000 A 
ATOM     12  C   UNL     1       1.672  14.542  18.795  0.00  0.00    +0.000 A 
ATOM     13  N   UNL     1       1.980  13.194  18.859  0.00  0.00    +0.000 NA
ATOM     14  C   UNL     1       1.044  12.561  19.524  0.00  0.00    +0.000 A 
ATOM     15  N   UNL     1       1.123  11.213  19.739  0.00  0.00    +0.000 N 
ATOM     16  C   UNL     1       0.343  10.462  20.572  0.00  0.00    +0.000 C 
ATOM     17  O   UNL     1      -0.545  10.875  21.314  0.00  0.00    +0.000 OA
ATOM     18  N   UNL     1       0.510   9.100  20.502  0.00  0.00    +0.000 N 
ATOM     19  S   UNL     1      -0.288  13.492  20.020  0.00  0.00    +0.000 S 
ATOM     20  C   UNL     1       0.445  14.897  19.359  0.00  0.00    +0.000 A 
ATOM     21  C   UNL     1      -0.027  16.217  19.347  0.00  0.00    +0.000 A 
ATOM     22  H   UNL     1       1.878  10.783  19.233  0.00  0.00    +0.000 HD
ATOM     23  H   UNL     1      -0.319   8.621  20.830  0.00  0.00    +0.000 HD
ENDBRANCH   1  18
BRANCH   4  24
ATOM     24  C   UNL     1       4.420   6.386  17.386  0.00  0.00    +0.000 A 
ATOM     25  N   UNL     1       5.648   6.856  17.151  0.00  0.00    +0.000 NA
ATOM     26  C   UNL     1       6.191   5.896  16.391  0.00  0.00    +0.000 A 
ATOM     27  N   UNL     1       7.392   5.638  15.811  0.00  0.00    +0.000 N 
ATOM     28  N   UNL     1       7.454   4.461  15.108  0.00  0.00    +0.000 NA
ATOM     29  C   UNL     1       6.192   4.006  15.308  0.00  0.00    +0.000 A 
ATOM     30  C   UNL     1       5.387   4.864  16.105  0.00  0.00    +0.000 A 
ATOM     31  N   UNL     1       4.218   5.163  16.730  0.00  0.00    +0.000 N 
ATOM     32  H   UNL     1       8.210   6.232  15.882  0.00  0.00    +0.000 HD
ATOM     33  H   UNL     1       3.390   4.587  16.738  0.00  0.00    +0.000 HD
ENDBRANCH   4  24
TORSDOF 2
ENDMDL
MODEL 4
REMARK VINA RESULT:      -8.2      2.907      9.848
REMARK  Name = 
REMARK  4 active torsions:
REMARK  status: ('A' for Active; 'I' for Inactive)
REMARK    1  A    between atoms: C_1  and  C_2
REMARK    2  A    between atoms: N_11  and  C_12
REMARK    3  A    between atoms: C_15  and  C_16
REMARK    4  A    between atoms: C_24  and  C_25
REMARK                            x       y       z     vdW  Elec       q    Type
REMARK                         _______ _______ _______ _____ _____    ______ ____
ROOT
ATOM      1  C   UNL     1       1.517   9.972  18.379  0.00  0.00    +0.000 A 
ATOM      2  C   UNL     1       2.191   9.239  17.415  0.00  0.00    +0.000 A 
ATOM      3  C   UNL     1       2.681   7.971  17.731  0.00  0.00    +0.000 A 
ATOM      4  C   UNL     1       2.446   7.378  18.989  0.00  0.00    +0.000 A 
ATOM      5  C   UNL     1       1.688   8.096  19.940  0.00  0.00    +0.000 A 
ATOM      6  C   UNL     1       1.281   7.569  21.292  0.00  0.00    +0.000 C 
ATOM      7  C   UNL     1       1.239   9.394  19.620  0.00  0.00    +0.000 A 
ENDROOT
BRANCH   1  18
ATOM      8  C   UNL     1      -4.383  15.691  24.705  0.00  0.00    +0.000 C 
ATOM      9  C   UNL     1      -3.682  14.588  23.964  0.00  0.00    +0.000 A 
ATOM     10  C   UNL     1      -3.825  13.254  24.356  0.00  0.00    +0.000 A 
ATOM     11  C   UNL     1      -3.154  12.230  23.674  0.00  0.00    +0.000 A 
ATOM     12  C   UNL     1      -2.336  12.543  22.571  0.00  0.00    +0.000 A 
ATOM     13  N   UNL     1      -1.609  11.645  21.808  0.00  0.00    +0.000 NA
ATOM     14  C   UNL     1      -1.026  12.279  20.820  0.00  0.00    +0.000 A 
ATOM     15  N   UNL     1      -0.256  11.608  19.911  0.00  0.00    +0.000 N 
ATOM     16  C   UNL     1       0.240  12.090  18.733  0.00  0.00    +0.000 C 
ATOM     17  O   UNL     1       0.045  13.206  18.258  0.00  0.00    +0.000 OA
ATOM     18  N   UNL     1       1.119  11.275  18.061  0.00  0.00    +0.000 N 
ATOM     19  S   UNL     1      -1.216  13.967  20.791  0.00  0.00    +0.000 S 
ATOM     20  C   UNL     1      -2.224  13.879  22.179  0.00  0.00    +0.000 A 
ATOM     21  C   UNL     1      -2.871  14.914  22.867  0.00  0.00    +0.000 A 
ATOM     22  H   UNL     1      -0.099  10.649  20.167  0.00  0.00    +0.000 HD
ATOM     23  H   UNL     1       1.712  11.818  17.447  0.00  0.00    +0.000 HD
ENDBRANCH   1  18
BRANCH   4  24
ATOM     24  C   UNL     1       2.997   6.038  19.251  0.00  0.00    +0.000 A 
ATOM     25  N   UNL     1       4.236   5.617  18.982  0.00  0.00    +0.000 NA
ATOM     26  C   UNL     1       4.230   4.363  19.452  0.00  0.00    +0.000 A 
ATOM     27  N   UNL     1       5.113   3.339  19.580  0.00  0.00    +0.000 N 
ATOM     28  N   UNL     1       4.603   2.206  20.164  0.00  0.00    +0.000 NA
ATOM     29  C   UNL     1       3.332   2.618  20.395  0.00  0.00    +0.000 A 
ATOM     30  C   UNL     1       3.070   3.950  19.976  0.00  0.00    +0.000 A 
ATOM     31  N   UNL     1       2.240   5.019  19.845  0.00  0.00    +0.000 N 
ATOM     32  H   UNL     1       6.085   3.372  19.297  0.00  0.00    +0.000 HD
ATOM     33  H   UNL     1       1.281   5.061  20.155  0.00  0.00    +0.000 HD
ENDBRANCH   4  24
TORSDOF 2
ENDMDL
MODEL 5
REMARK VINA RESULT:      -8.2      1.121      1.200
REMARK  Name = 
REMARK  4 active torsions:
REMARK  status: ('A' for Active; 'I' for Inactive)
REMARK    1  A    between atoms: C_1  and  C_2
REMARK    2  A    between atoms: N_11  and  C_12
REMARK    3  A    between atoms: C_15  and  C_16
REMARK    4  A    between atoms: C_24  and  C_25
REMARK                            x       y       z     vdW  Elec       q    Type
REMARK                         _______ _______ _______ _____ _____    ______ ____
ROOT
ATOM      1  C   UNL     1       0.055  11.830  19.075  0.00  0.00    +0.000 A 
ATOM      2  C   UNL     1      -1.239  11.556  18.659  0.00  0.00    +0.000 A 
ATOM      3  C   UNL     1      -2.312  11.860  19.499  0.00  0.00    +0.000 A 
ATOM      4  C   UNL     1      -2.122  12.509  20.737  0.00  0.00    +0.000 A 
ATOM      5  C   UNL     1      -0.809  12.859  21.119  0.00  0.00    +0.000 A 
ATOM      6  C   UNL     1      -0.451  13.627  22.365  0.00  0.00    +0.000 C 
ATOM      7  C   UNL     1       0.267  12.505  20.279  0.00  0.00    +0.000 A 
ENDROOT
BRANCH   1  18
ATOM      8  C   UNL     1       4.016   2.251  19.357  0.00  0.00    +0.000 C 
ATOM      9  C   UNL     1       3.343   3.561  19.653  0.00  0.00    +0.000 A 
ATOM     10  C   UNL     1       2.635   3.753  20.844  0.00  0.00    +0.000 A 
ATOM     11  C   UNL     1       1.991   4.970  21.107  0.00  0.00    +0.000 A 
ATOM     12  C   UNL     1       2.068   6.019  20.171  0.00  0.00    +0.000 A 
ATOM     13  N   UNL     1       1.482   7.268  20.289  0.00  0.00    +0.000 NA
ATOM     14  C   UNL     1       1.827   8.013  19.267  0.00  0.00    +0.000 A 
ATOM     15  N   UNL     1       1.386   9.303  19.157  0.00  0.00    +0.000 N 
ATOM     16  C   UNL     1       1.816  10.251  18.272  0.00  0.00    +0.000 C 
ATOM     17  O   UNL     1       2.712  10.124  17.442  0.00  0.00    +0.000 OA
ATOM     18  N   UNL     1       1.112  11.430  18.251  0.00  0.00    +0.000 N 
ATOM     19  S   UNL     1       2.770   7.262  18.071  0.00  0.00    +0.000 S 
ATOM     20  C   UNL     1       2.800   5.818  18.998  0.00  0.00    +0.000 A 
ATOM     21  C   UNL     1       3.428   4.598  18.713  0.00  0.00    +0.000 A 
ATOM     22  H   UNL     1       0.697   9.539  19.851  0.00  0.00    +0.000 HD
ATOM     23  H   UNL     1       1.225  11.897  17.360  0.00  0.00    +0.000 HD
ENDBRANCH   1  18
BRANCH   4  24
ATOM     24  C   UNL     1      -3.302  12.794  21.571  0.00  0.00    +0.000 A 
ATOM     25  N   UNL     1      -3.548  12.322  22.796  0.00  0.00    +0.000 NA
ATOM     26  C   UNL     1      -4.706  12.915  23.114  0.00  0.00    +0.000 A 
ATOM     27  N   UNL     1      -5.542  12.968  24.183  0.00  0.00    +0.000 N 
ATOM     28  N   UNL     1      -6.648  13.764  24.013  0.00  0.00    +0.000 NA
ATOM     29  C   UNL     1      -6.421  14.207  22.751  0.00  0.00    +0.000 A 
ATOM     30  C   UNL     1      -5.224  13.710  22.169  0.00  0.00    +0.000 A 
ATOM     31  N   UNL     1      -4.336  13.639  21.143  0.00  0.00    +0.000 N 
ATOM     32  H   UNL     1      -5.391  12.488  25.062  0.00  0.00    +0.000 HD
ATOM     33  H   UNL     1      -4.407  14.134  20.267  0.00  0.00    +0.000 HD
ENDBRANCH   4  24
TORSDOF 2
ENDMDL
MODEL 6
REMARK VINA RESULT:      -8.2      1.324      1.948
REMARK  Name = 
REMARK  4 active torsions:
REMARK  status: ('A' for Active; 'I' for Inactive)
REMARK    1  A    between atoms: C_1  and  C_2
REMARK    2  A    between atoms: N_11  and  C_12
REMARK    3  A    between atoms: C_15  and  C_16
REMARK    4  A    between atoms: C_24  and  C_25
REMARK                            x       y       z     vdW  Elec       q    Type
REMARK                         _______ _______ _______ _____ _____    ______ ____
ROOT
ATOM      1  C   UNL     1      -0.103  11.644  18.983  0.00  0.00    +0.000 A 
ATOM      2  C   UNL     1       0.122  12.093  20.275  0.00  0.00    +0.000 A 
ATOM      3  C   UNL     1      -0.951  12.546  21.044  0.00  0.00    +0.000 A 
ATOM      4  C   UNL     1      -2.278  12.493  20.568  0.00  0.00    +0.000 A 
ATOM      5  C   UNL     1      -2.511  11.960  19.282  0.00  0.00    +0.000 A 
ATOM      6  C   UNL     1      -3.872  11.758  18.667  0.00  0.00    +0.000 C 
ATOM      7  C   UNL     1      -1.411  11.547  18.502  0.00  0.00    +0.000 A 
ENDROOT
BRANCH   1  18
ATOM      8  C   UNL     1       4.213   2.230  19.486  0.00  0.00    +0.000 C 
ATOM      9  C   UNL     1       3.477   3.513  19.747  0.00  0.00    +0.000 A 
ATOM     10  C   UNL     1       2.712   3.682  20.905  0.00  0.00    +0.000 A 
ATOM     11  C   UNL     1       2.011   4.874  21.134  0.00  0.00    +0.000 A 
ATOM     12  C   UNL     1       2.087   5.922  20.196  0.00  0.00    +0.000 A 
ATOM     13  N   UNL     1       1.448   7.146  20.282  0.00  0.00    +0.000 NA
ATOM     14  C   UNL     1       1.807   7.901  19.272  0.00  0.00    +0.000 A 
ATOM     15  N   UNL     1       1.321   9.172  19.136  0.00  0.00    +0.000 N 
ATOM     16  C   UNL     1       1.751  10.132  18.265  0.00  0.00    +0.000 C 
ATOM     17  O   UNL     1       2.686  10.037  17.474  0.00  0.00    +0.000 OA
ATOM     18  N   UNL     1       1.003  11.283  18.207  0.00  0.00    +0.000 N 
ATOM     19  S   UNL     1       2.829   7.183  18.121  0.00  0.00    +0.000 S 
ATOM     20  C   UNL     1       2.875   5.744  19.057  0.00  0.00    +0.000 A 
ATOM     21  C   UNL     1       3.562   4.549  18.805  0.00  0.00    +0.000 A 
ATOM     22  H   UNL     1       0.595   9.383  19.798  0.00  0.00    +0.000 HD
ATOM     23  H   UNL     1       1.135  11.751  17.319  0.00  0.00    +0.000 HD
ENDBRANCH   1  18
BRANCH   4  24
ATOM     24  C   UNL     1      -3.358  12.993  21.436  0.00  0.00    +0.000 A 
ATOM     25  N   UNL     1      -3.877  12.377  22.501  0.00  0.00    +0.000 NA
ATOM     26  C   UNL     1      -4.775  13.265  22.947  0.00  0.00    +0.000 A 
ATOM     27  N   UNL     1      -5.641  13.375  23.988  0.00  0.00    +0.000 N 
ATOM     28  N   UNL     1      -6.370  14.538  24.013  0.00  0.00    +0.000 NA
ATOM     29  C   UNL     1      -5.876  15.143  22.904  0.00  0.00    +0.000 A 
ATOM     30  C   UNL     1      -4.880  14.388  22.227  0.00  0.00    +0.000 A 
ATOM     31  N   UNL     1      -3.977  14.233  21.224  0.00  0.00    +0.000 N 
ATOM     32  H   UNL     1      -5.759  12.685  24.720  0.00  0.00    +0.000 HD
ATOM     33  H   UNL     1      -3.780  14.907  20.499  0.00  0.00    +0.000 HD
ENDBRANCH   4  24
TORSDOF 2
ENDMDL
MODEL 7
REMARK VINA RESULT:      -8.1      0.833      1.578
REMARK  Name = 
REMARK  4 active torsions:
REMARK  status: ('A' for Active; 'I' for Inactive)
REMARK    1  A    between atoms: C_1  and  C_2
REMARK    2  A    between atoms: N_11  and  C_12
REMARK    3  A    between atoms: C_15  and  C_16
REMARK    4  A    between atoms: C_24  and  C_25
REMARK                            x       y       z     vdW  Elec       q    Type
REMARK                         _______ _______ _______ _____ _____    ______ ____
ROOT
ATOM      1  C   UNL     1      -0.540  12.346  19.312  0.00  0.00    +0.000 A 
ATOM      2  C   UNL     1      -0.391  12.814  20.609  0.00  0.00    +0.000 A 
ATOM      3  C   UNL     1      -1.524  13.114  21.367  0.00  0.00    +0.000 A 
ATOM      4  C   UNL     1      -2.827  12.885  20.875  0.00  0.00    +0.000 A 
ATOM      5  C   UNL     1      -2.971  12.332  19.585  0.00  0.00    +0.000 A 
ATOM      6  C   UNL     1      -4.286  11.951  18.953  0.00  0.00    +0.000 C 
ATOM      7  C   UNL     1      -1.817  12.076  18.816  0.00  0.00    +0.000 A 
ENDROOT
BRANCH   1  18
ATOM      8  C   UNL     1       4.346   3.207  18.948  0.00  0.00    +0.000 C 
ATOM      9  C   UNL     1       3.522   4.407  19.318  0.00  0.00    +0.000 A 
ATOM     10  C   UNL     1       2.707   4.398  20.455  0.00  0.00    +0.000 A 
ATOM     11  C   UNL     1       1.924   5.512  20.785  0.00  0.00    +0.000 A 
ATOM     12  C   UNL     1       1.966   6.662  19.974  0.00  0.00    +0.000 A 
ATOM     13  N   UNL     1       1.247   7.829  20.169  0.00  0.00    +0.000 NA
ATOM     14  C   UNL     1       1.593   8.714  19.264  0.00  0.00    +0.000 A 
ATOM     15  N   UNL     1       1.032   9.961  19.250  0.00  0.00    +0.000 N 
ATOM     16  C   UNL     1       1.431  11.037  18.509  0.00  0.00    +0.000 C 
ATOM     17  O   UNL     1       2.396  11.088  17.752  0.00  0.00    +0.000 OA
ATOM     18  N   UNL     1       0.613  12.141  18.548  0.00  0.00    +0.000 N 
ATOM     19  S   UNL     1       2.698   8.193  18.084  0.00  0.00    +0.000 S 
ATOM     20  C   UNL     1       2.803   6.662  18.856  0.00  0.00    +0.000 A 
ATOM     21  C   UNL     1       3.573   5.546  18.501  0.00  0.00    +0.000 A 
ATOM     22  H   UNL     1       0.271  10.052  19.900  0.00  0.00    +0.000 HD
ATOM     23  H   UNL     1       0.747  12.714  17.724  0.00  0.00    +0.000 HD
ENDBRANCH   1  18
BRANCH   4  24
ATOM     24  C   UNL     1      -3.974  13.230  21.732  0.00  0.00    +0.000 A 
ATOM     25  N   UNL     1      -4.626  14.395  21.764  0.00  0.00    +0.000 NA
ATOM     26  C   UNL     1      -5.593  14.167  22.662  0.00  0.00    +0.000 A 
ATOM     27  N   UNL     1      -6.652  14.839  23.183  0.00  0.00    +0.000 N 
ATOM     28  N   UNL     1      -7.384  14.137  24.109  0.00  0.00    +0.000 NA
ATOM     29  C   UNL     1      -6.693  12.970  24.111  0.00  0.00    +0.000 A 
ATOM     30  C   UNL     1      -5.586  12.951  23.220  0.00  0.00    +0.000 A 
ATOM     31  N   UNL     1      -4.529  12.320  22.643  0.00  0.00    +0.000 N 
ATOM     32  H   UNL     1      -6.928  15.779  22.924  0.00  0.00    +0.000 HD
ATOM     33  H   UNL     1      -4.240  11.370  22.823  0.00  0.00    +0.000 HD
ENDBRANCH   4  24
TORSDOF 2
ENDMDL
MODEL 8
REMARK VINA RESULT:      -8.1      3.535      9.987
REMARK  Name = 
REMARK  4 active torsions:
REMARK  status: ('A' for Active; 'I' for Inactive)
REMARK    1  A    between atoms: C_1  and  C_2
REMARK    2  A    between atoms: N_11  and  C_12
REMARK    3  A    between atoms: C_15  and  C_16
REMARK    4  A    between atoms: C_24  and  C_25
REMARK                            x       y       z     vdW  Elec       q    Type
REMARK                         _______ _______ _______ _____ _____    ______ ____
ROOT
ATOM      1  C   UNL     1       1.264   9.572  20.717  0.00  0.00    +0.000 A 
ATOM      2  C   UNL     1       1.302   8.457  21.540  0.00  0.00    +0.000 A 
ATOM      3  C   UNL     1       1.677   7.222  21.009  0.00  0.00    +0.000 A 
ATOM      4  C   UNL     1       2.092   7.087  19.667  0.00  0.00    +0.000 A 
ATOM      5  C   UNL     1       2.129   8.241  18.855  0.00  0.00    +0.000 A 
ATOM      6  C   UNL     1       2.627   8.278  17.433  0.00  0.00    +0.000 C 
ATOM      7  C   UNL     1       1.705   9.473  19.395  0.00  0.00    +0.000 A 
ENDROOT
BRANCH   1  18
ATOM      8  C   UNL     1      -7.807  13.759  17.940  0.00  0.00    +0.000 C 
ATOM      9  C   UNL     1      -6.515  12.997  18.018  0.00  0.00    +0.000 A 
ATOM     10  C   UNL     1      -6.161  12.078  17.026  0.00  0.00    +0.000 A 
ATOM     11  C   UNL     1      -4.964  11.354  17.113  0.00  0.00    +0.000 A 
ATOM     12  C   UNL     1      -4.098  11.562  18.205  0.00  0.00    +0.000 A 
ATOM     13  N   UNL     1      -2.893  10.919  18.429  0.00  0.00    +0.000 NA
ATOM     14  C   UNL     1      -2.323  11.416  19.500  0.00  0.00    +0.000 A 
ATOM     15  N   UNL     1      -1.108  10.956  19.927  0.00  0.00    +0.000 N 
ATOM     16  C   UNL     1      -0.309  11.506  20.890  0.00  0.00    +0.000 C 
ATOM     17  O   UNL     1      -0.521  12.541  21.514  0.00  0.00    +0.000 OA
ATOM     18  N   UNL     1       0.796  10.775  21.256  0.00  0.00    +0.000 N 
ATOM     19  S   UNL     1      -3.210  12.588  20.351  0.00  0.00    +0.000 S 
ATOM     20  C   UNL     1      -4.458  12.500  19.174  0.00  0.00    +0.000 A 
ATOM     21  C   UNL     1      -5.663  13.214  19.110  0.00  0.00    +0.000 A 
ATOM     22  H   UNL     1      -0.799  10.145  19.420  0.00  0.00    +0.000 HD
ATOM     23  H   UNL     1       1.101  11.031  22.186  0.00  0.00    +0.000 HD
ENDBRANCH   1  18
BRANCH   4  24
ATOM     24  C   UNL     1       2.470   5.751  19.177  0.00  0.00    +0.000 A 
ATOM     25  N   UNL     1       3.676   5.182  19.256  0.00  0.00    +0.000 NA
ATOM     26  C   UNL     1       3.468   3.974  18.717  0.00  0.00    +0.000 A 
ATOM     27  N   UNL     1       4.185   2.842  18.494  0.00  0.00    +0.000 N 
ATOM     28  N   UNL     1       3.486   1.824  17.893  0.00  0.00    +0.000 NA
ATOM     29  C   UNL     1       2.274   2.419  17.770  0.00  0.00    +0.000 A 
ATOM     30  C   UNL     1       2.224   3.744  18.279  0.00  0.00    +0.000 A 
ATOM     31  N   UNL     1       1.552   4.893  18.553  0.00  0.00    +0.000 N 
ATOM     32  H   UNL     1       5.156   2.709  18.751  0.00  0.00    +0.000 HD
ATOM     33  H   UNL     1       0.575   5.063  18.368  0.00  0.00    +0.000 HD
ENDBRANCH   4  24
TORSDOF 2
ENDMDL
MODEL 9
REMARK VINA RESULT:      -8.0      1.639      2.298
REMARK  Name = 
REMARK  4 active torsions:
REMARK  status: ('A' for Active; 'I' for Inactive)
REMARK    1  A    between atoms: C_1  and  C_2
REMARK    2  A    between atoms: N_11  and  C_12
REMARK    3  A    between atoms: C_15  and  C_16
REMARK    4  A    between atoms: C_24  and  C_25
REMARK                            x       y       z     vdW  Elec       q    Type
REMARK                         _______ _______ _______ _____ _____    ______ ____
ROOT
ATOM      1  C   UNL     1       0.654  10.939  18.803  0.00  0.00    +0.000 A 
ATOM      2  C   UNL     1      -0.644  10.459  18.717  0.00  0.00    +0.000 A 
ATOM      3  C   UNL     1      -1.600  10.888  19.639  0.00  0.00    +0.000 A 
ATOM      4  C   UNL     1      -1.301  11.859  20.618  0.00  0.00    +0.000 A 
ATOM      5  C   UNL     1       0.001  12.405  20.649  0.00  0.00    +0.000 A 
ATOM      6  C   UNL     1       0.451  13.506  21.575  0.00  0.00    +0.000 C 
ATOM      7  C   UNL     1       0.966  11.927  19.739  0.00  0.00    +0.000 A 
ENDROOT
BRANCH   1  18
ATOM      8  C   UNL     1       4.054   1.162  19.412  0.00  0.00    +0.000 C 
ATOM      9  C   UNL     1       3.488   2.528  19.673  0.00  0.00    +0.000 A 
ATOM     10  C   UNL     1       2.900   2.841  20.902  0.00  0.00    +0.000 A 
ATOM     11  C   UNL     1       2.354   4.111  21.134  0.00  0.00    +0.000 A 
ATOM     12  C   UNL     1       2.411   5.092  20.125  0.00  0.00    +0.000 A 
ATOM     13  N   UNL     1       1.911   6.381  20.205  0.00  0.00    +0.000 NA
ATOM     14  C   UNL     1       2.209   7.036  19.109  0.00  0.00    +0.000 A 
ATOM     15  N   UNL     1       1.836   8.342  18.948  0.00  0.00    +0.000 N 
ATOM     16  C   UNL     1       2.242   9.201  17.966  0.00  0.00    +0.000 C 
ATOM     17  O   UNL     1       3.053   8.964  17.075  0.00  0.00    +0.000 OA
ATOM     18  N   UNL     1       1.610  10.420  17.923  0.00  0.00    +0.000 N 
ATOM     19  S   UNL     1       2.998   6.151  17.892  0.00  0.00    +0.000 S 
ATOM     20  C   UNL     1       3.023   4.769  18.912  0.00  0.00    +0.000 A 
ATOM     21  C   UNL     1       3.551   3.496  18.659  0.00  0.00    +0.000 A 
ATOM     22  H   UNL     1       1.226   8.665  19.678  0.00  0.00    +0.000 HD
ATOM     23  H   UNL     1       1.671  10.822  16.996  0.00  0.00    +0.000 HD
ENDBRANCH   1  18
BRANCH   4  24
ATOM     24  C   UNL     1      -2.360  12.260  21.559  0.00  0.00    +0.000 A 
ATOM     25  N   UNL     1      -3.461  12.960  21.272  0.00  0.00    +0.000 NA
ATOM     26  C   UNL     1      -4.097  13.006  22.450  0.00  0.00    +0.000 A 
ATOM     27  N   UNL     1      -5.270  13.489  22.935  0.00  0.00    +0.000 N 
ATOM     28  N   UNL     1      -5.478  13.265  24.273  0.00  0.00    +0.000 NA
ATOM     29  C   UNL     1      -4.338  12.595  24.575  0.00  0.00    +0.000 A 
ATOM     30  C   UNL     1      -3.466  12.409  23.468  0.00  0.00    +0.000 A 
ATOM     31  N   UNL     1      -2.321  11.924  22.920  0.00  0.00    +0.000 N 
ATOM     32  H   UNL     1      -5.973  13.967  22.384  0.00  0.00    +0.000 HD
ATOM     33  H   UNL     1      -1.612  11.397  23.407  0.00  0.00    +0.000 HD
ENDBRANCH   4  24
TORSDOF 2
ENDMDL
