MODEL 1
REMARK VINA RESULT:      -8.9      0.000      0.000
REMARK  Name = 
REMARK  6 active torsions:
REMARK  status: ('A' for Active; 'I' for Inactive)
REMARK    1  A    between atoms: C_1  and  O_2
REMARK    2  A    between atoms: O_2  and  C_3
REMARK    3  A    between atoms: C_8  and  C_9
REMARK    4  A    between atoms: C_11  and  C_12
REMARK    5  A    between atoms: C_16  and  N_17
REMARK    6  A    between atoms: C_23  and  C_24
REMARK                            x       y       z     vdW  Elec       q    Type
REMARK                         _______ _______ _______ _____ _____    ______ ____
ROOT
ATOM      1  C   UNL     1       5.815   4.179  17.771  0.00  0.00    +0.000 C 
ATOM      2  O   UNL     1       5.689   3.875  16.378  0.00  0.00    +0.000 OA
ATOM      3  C   UNL     1       6.578   4.710  15.785  0.00  0.00    +0.000 C 
ATOM      4  N   UNL     1       7.223   5.550  16.534  0.00  0.00    +0.000 NA
ATOM      5  N   UNL     1       6.750   5.288  17.789  0.00  0.00    +0.000 N 
ATOM      6  C   UNL     1       7.273   5.831  18.942  0.00  0.00    +0.000 C 
ATOM      7  C   UNL     1       8.319   6.905  18.784  0.00  0.00    +0.000 C 
ATOM      8  O   UNL     1       6.918   5.477  20.065  0.00  0.00    +0.000 OA
ENDROOT
BRANCH   1  14
ATOM      9  C   UNL     1       3.736   3.607  19.196  0.00  0.00    +0.000 A 
ATOM     10  C   UNL     1       2.471   3.991  19.673  0.00  0.00    +0.000 A 
ATOM     11  C   UNL     1       1.908   5.223  19.339  0.00  0.00    +0.000 A 
ATOM     12  C   UNL     1       2.601   6.087  18.507  0.00  0.00    +0.000 A 
ATOM     13  C   UNL     1       3.861   5.723  18.032  0.00  0.00    +0.000 A 
ATOM     14  C   UNL     1       4.460   4.483  18.367  0.00  0.00    +0.000 A 
BRANCH   9  16
ATOM     15  C   UNL     1       3.607   1.277  18.626  0.00  0.00    +0.000 C 
ATOM     16  O   UNL     1       4.039   2.308  19.502  0.00  0.00    +0.000 OA
ENDBRANCH   9  16
ENDBRANCH   1  14
BRANCH   3  17
ATOM     17  C   UNL     1       6.724   4.539  14.330  0.00  0.00    +0.000 A 
ATOM     18  C   UNL     1       7.655   5.330  13.643  0.00  0.00    +0.000 A 
ATOM     19  C   UNL     1       7.819   5.191  12.263  0.00  0.00    +0.000 A 
ATOM     20  C   UNL     1       7.051   4.262  11.559  0.00  0.00    +0.000 A 
ATOM     21  C   UNL     1       6.121   3.471  12.247  0.00  0.00    +0.000 A 
ATOM     22  C   UNL     1       5.953   3.601  13.633  0.00  0.00    +0.000 A 
BRANCH  21  23
ATOM     23  N   UNL     1       5.310   2.494  11.506  0.00  0.00    +0.000 N 
ATOM     24  O   UNL     1       5.832   1.405  11.229  0.00  0.00    +0.000 OA
ATOM     25  O   UNL     1       4.154   2.817  11.206  0.00  0.00    +0.000 OA
ENDBRANCH  21  23
ENDBRANCH   3  17
TORSDOF 4
ENDMDL
MODEL 2
REMARK VINA RESULT:      -8.8      3.711      7.939
REMARK  Name = 
REMARK  6 active torsions:
REMARK  status: ('A' for Active; 'I' for Inactive)
REMARK    1  A    between atoms: C_1  and  O_2
REMARK    2  A    between atoms: O_2  and  C_3
REMARK    3  A    between atoms: C_8  and  C_9
REMARK    4  A    between atoms: C_11  and  C_12
REMARK    5  A    between atoms: C_16  and  N_17
REMARK    6  A    between atoms: C_23  and  C_24
REMARK                            x       y       z     vdW  Elec       q    Type
REMARK                         _______ _______ _______ _____ _____    ______ ____
ROOT
ATOM      1  C   UNL     1       4.467   4.777  18.842  0.00  0.00    +0.000 C 
ATOM      2  O   UNL     1       4.094   6.147  19.017  0.00  0.00    +0.000 OA
ATOM      3  C   UNL     1       2.748   6.097  19.175  0.00  0.00    +0.000 C 
ATOM      4  N   UNL     1       2.162   4.944  19.075  0.00  0.00    +0.000 NA
ATOM      5  N   UNL     1       3.194   4.083  18.824  0.00  0.00    +0.000 N 
ATOM      6  C   UNL     1       3.068   2.711  18.805  0.00  0.00    +0.000 C 
ATOM      7  C   UNL     1       1.674   2.145  18.903  0.00  0.00    +0.000 C 
ATOM      8  O   UNL     1       4.034   1.955  18.710  0.00  0.00    +0.000 OA
ENDROOT
BRANCH   1  14
ATOM      9  C   UNL     1       6.700   4.540  17.562  0.00  0.00    +0.000 A 
ATOM     10  C   UNL     1       7.364   4.412  16.330  0.00  0.00    +0.000 A 
ATOM     11  C   UNL     1       6.663   4.362  15.125  0.00  0.00    +0.000 A 
ATOM     12  C   UNL     1       5.280   4.453  15.134  0.00  0.00    +0.000 A 
ATOM     13  C   UNL     1       4.608   4.574  16.350  0.00  0.00    +0.000 A 
ATOM     14  C   UNL     1       5.295   4.613  17.589  0.00  0.00    +0.000 A 
BRANCH   9  16
ATOM     15  C   UNL     1       7.858   6.058  19.020  0.00  0.00    +0.000 C 
ATOM     16  O   UNL     1       7.564   4.731  18.605  0.00  0.00    +0.000 OA
ENDBRANCH   9  16
ENDBRANCH   1  14
BRANCH   3  17
ATOM     17  C   UNL     1       2.103   7.387  19.471  0.00  0.00    +0.000 A 
ATOM     18  C   UNL     1       1.977   8.335  18.447  0.00  0.00    +0.000 A 
ATOM     19  C   UNL     1       1.368   9.567  18.695  0.00  0.00    +0.000 A 
ATOM     20  C   UNL     1       0.882   9.862  19.970  0.00  0.00    +0.000 A 
ATOM     21  C   UNL     1       1.007   8.912  20.993  0.00  0.00    +0.000 A 
ATOM     22  C   UNL     1       1.613   7.671  20.751  0.00  0.00    +0.000 A 
BRANCH  21  23
ATOM     23  N   UNL     1       0.498   9.222  22.337  0.00  0.00    +0.000 N 
ATOM     24  O   UNL     1       1.299   9.680  23.164  0.00  0.00    +0.000 OA
ATOM     25  O   UNL     1      -0.699   9.008  22.561  0.00  0.00    +0.000 OA
ENDBRANCH  21  23
ENDBRANCH   3  17
TORSDOF 4
ENDMDL
MODEL 3
REMARK VINA RESULT:      -8.8      0.948      1.886
REMARK  Name = 
REMARK  6 active torsions:
REMARK  status: ('A' for Active; 'I' for Inactive)
REMARK    1  A    between atoms: C_1  and  O_2
REMARK    2  A    between atoms: O_2  and  C_3
REMARK    3  A    between atoms: C_8  and  C_9
REMARK    4  A    between atoms: C_11  and  C_12
REMARK    5  A    between atoms: C_16  and  N_17
REMARK    6  A    between atoms: C_23  and  C_24
REMARK                            x       y       z     vdW  Elec       q    Type
REMARK                         _______ _______ _______ _____ _____    ______ ____
ROOT
ATOM      1  C   UNL     1       5.965   4.115  17.839  0.00  0.00    +0.000 C 
ATOM      2  O   UNL     1       5.821   3.800  16.450  0.00  0.00    +0.000 OA
ATOM      3  C   UNL     1       6.622   4.702  15.830  0.00  0.00    +0.000 C 
ATOM      4  N   UNL     1       7.221   5.592  16.559  0.00  0.00    +0.000 NA
ATOM      5  N   UNL     1       6.808   5.295  17.828  0.00  0.00    +0.000 N 
ATOM      6  C   UNL     1       7.322   5.880  18.965  0.00  0.00    +0.000 C 
ATOM      7  C   UNL     1       8.274   7.034  18.776  0.00  0.00    +0.000 C 
ATOM      8  O   UNL     1       7.032   5.500  20.099  0.00  0.00    +0.000 OA
ENDROOT
BRANCH   1  14
ATOM      9  C   UNL     1       3.741   5.382  18.199  0.00  0.00    +0.000 A 
ATOM     10  C   UNL     1       2.513   5.472  18.875  0.00  0.00    +0.000 A 
ATOM     11  C   UNL     1       2.132   4.525  19.825  0.00  0.00    +0.000 A 
ATOM     12  C   UNL     1       2.985   3.475  20.124  0.00  0.00    +0.000 A 
ATOM     13  C   UNL     1       4.205   3.370  19.456  0.00  0.00    +0.000 A 
ATOM     14  C   UNL     1       4.609   4.311  18.477  0.00  0.00    +0.000 A 
BRANCH   9  16
ATOM     15  C   UNL     1       3.244   7.668  17.652  0.00  0.00    +0.000 C 
ATOM     16  O   UNL     1       3.998   6.485  17.431  0.00  0.00    +0.000 OA
ENDBRANCH   9  16
ENDBRANCH   1  14
BRANCH   3  17
ATOM     17  C   UNL     1       6.735   4.542  14.371  0.00  0.00    +0.000 A 
ATOM     18  C   UNL     1       7.672   5.316  13.673  0.00  0.00    +0.000 A 
ATOM     19  C   UNL     1       7.806   5.185  12.289  0.00  0.00    +0.000 A 
ATOM     20  C   UNL     1       7.003   4.282  11.592  0.00  0.00    +0.000 A 
ATOM     21  C   UNL     1       6.068   3.507  12.291  0.00  0.00    +0.000 A 
ATOM     22  C   UNL     1       5.929   3.628  13.681  0.00  0.00    +0.000 A 
BRANCH  21  23
ATOM     23  N   UNL     1       5.219   2.556  11.558  0.00  0.00    +0.000 N 
ATOM     24  O   UNL     1       5.684   1.431  11.325  0.00  0.00    +0.000 OA
ATOM     25  O   UNL     1       4.092   2.936  11.218  0.00  0.00    +0.000 OA
ENDBRANCH  21  23
ENDBRANCH   3  17
TORSDOF 4
ENDMDL
MODEL 4
REMARK VINA RESULT:      -8.3      1.243      1.554
REMARK  Name = 
REMARK  6 active torsions:
REMARK  status: ('A' for Active; 'I' for Inactive)
REMARK    1  A    between atoms: C_1  and  O_2
REMARK    2  A    between atoms: O_2  and  C_3
REMARK    3  A    between atoms: C_8  and  C_9
REMARK    4  A    between atoms: C_11  and  C_12
REMARK    5  A    between atoms: C_16  and  N_17
REMARK    6  A    between atoms: C_23  and  C_24
REMARK                            x       y       z     vdW  Elec       q    Type
REMARK                         _______ _______ _______ _____ _____    ______ ____
ROOT
ATOM      1  C   UNL     1       5.039   4.846  17.659  0.00  0.00    +0.000 C 
ATOM      2  O   UNL     1       4.981   4.665  16.240  0.00  0.00    +0.000 OA
ATOM      3  C   UNL     1       6.268   4.825  15.843  0.00  0.00    +0.000 C 
ATOM      4  N   UNL     1       7.152   5.135  16.740  0.00  0.00    +0.000 NA
ATOM      5  N   UNL     1       6.424   5.203  17.896  0.00  0.00    +0.000 N 
ATOM      6  C   UNL     1       6.976   5.345  19.150  0.00  0.00    +0.000 C 
ATOM      7  C   UNL     1       8.459   5.609  19.225  0.00  0.00    +0.000 C 
ATOM      8  O   UNL     1       6.312   5.268  20.182  0.00  0.00    +0.000 OA
ENDROOT
BRANCH   1  14
ATOM      9  C   UNL     1       3.168   5.744  19.200  0.00  0.00    +0.000 A 
ATOM     10  C   UNL     1       2.255   6.770  19.498  0.00  0.00    +0.000 A 
ATOM     11  C   UNL     1       2.179   7.927  18.723  0.00  0.00    +0.000 A 
ATOM     12  C   UNL     1       3.010   8.069  17.624  0.00  0.00    +0.000 A 
ATOM     13  C   UNL     1       3.926   7.062  17.319  0.00  0.00    +0.000 A 
ATOM     14  C   UNL     1       4.033   5.884  18.099  0.00  0.00    +0.000 A 
BRANCH   9  16
ATOM     15  C   UNL     1       1.769   4.503  20.708  0.00  0.00    +0.000 C 
ATOM     16  O   UNL     1       2.979   4.632  19.975  0.00  0.00    +0.000 OA
ENDBRANCH   9  16
ENDBRANCH   1  14
BRANCH   3  17
ATOM     17  C   UNL     1       6.515   4.595  14.410  0.00  0.00    +0.000 A 
ATOM     18  C   UNL     1       7.552   5.296  13.778  0.00  0.00    +0.000 A 
ATOM     19  C   UNL     1       7.812   5.099  12.421  0.00  0.00    +0.000 A 
ATOM     20  C   UNL     1       7.039   4.202  11.683  0.00  0.00    +0.000 A 
ATOM     21  C   UNL     1       6.004   3.501  12.317  0.00  0.00    +0.000 A 
ATOM     22  C   UNL     1       5.737   3.689  13.680  0.00  0.00    +0.000 A 
BRANCH  21  23
ATOM     23  N   UNL     1       5.186   2.557  11.541  0.00  0.00    +0.000 N 
ATOM     24  O   UNL     1       5.672   1.444  11.292  0.00  0.00    +0.000 OA
ATOM     25  O   UNL     1       4.061   2.930  11.184  0.00  0.00    +0.000 OA
ENDBRANCH  21  23
ENDBRANCH   3  17
TORSDOF 4
ENDMDL
MODEL 5
REMARK VINA RESULT:      -8.3      3.628      7.584
REMARK  Name = 
REMARK  6 active torsions:
REMARK  status: ('A' for Active; 'I' for Inactive)
REMARK    1  A    between atoms: C_1  and  O_2
REMARK    2  A    between atoms: O_2  and  C_3
REMARK    3  A    between atoms: C_8  and  C_9
REMARK    4  A    between atoms: C_11  and  C_12
REMARK    5  A    between atoms: C_16  and  N_17
REMARK    6  A    between atoms: C_23  and  C_24
REMARK                            x       y       z     vdW  Elec       q    Type
REMARK                         _______ _______ _______ _____ _____    ______ ____
ROOT
ATOM      1  C   UNL     1       4.364   4.617  19.063  0.00  0.00    +0.000 C 
ATOM      2  O   UNL     1       3.996   5.975  19.322  0.00  0.00    +0.000 OA
ATOM      3  C   UNL     1       2.647   5.923  19.457  0.00  0.00    +0.000 C 
ATOM      4  N   UNL     1       2.057   4.782  19.275  0.00  0.00    +0.000 NA
ATOM      5  N   UNL     1       3.088   3.933  18.982  0.00  0.00    +0.000 N 
ATOM      6  C   UNL     1       2.955   2.566  18.873  0.00  0.00    +0.000 C 
ATOM      7  C   UNL     1       1.557   2.003  18.914  0.00  0.00    +0.000 C 
ATOM      8  O   UNL     1       3.919   1.812  18.743  0.00  0.00    +0.000 OA
ENDROOT
BRANCH   1  14
ATOM      9  C   UNL     1       6.615   4.504  17.799  0.00  0.00    +0.000 A 
ATOM     10  C   UNL     1       7.295   4.446  16.569  0.00  0.00    +0.000 A 
ATOM     11  C   UNL     1       6.607   4.420  15.356  0.00  0.00    +0.000 A 
ATOM     12  C   UNL     1       5.223   4.466  15.354  0.00  0.00    +0.000 A 
ATOM     13  C   UNL     1       4.535   4.517  16.566  0.00  0.00    +0.000 A 
ATOM     14  C   UNL     1       5.209   4.530  17.813  0.00  0.00    +0.000 A 
BRANCH   9  16
ATOM     15  C   UNL     1       7.891   5.998  19.181  0.00  0.00    +0.000 C 
ATOM     16  O   UNL     1       7.463   4.682  18.858  0.00  0.00    +0.000 OA
ENDBRANCH   9  16
ENDBRANCH   1  14
BRANCH   3  17
ATOM     17  C   UNL     1       2.004   7.194  19.827  0.00  0.00    +0.000 A 
ATOM     18  C   UNL     1       1.383   7.302  21.079  0.00  0.00    +0.000 A 
ATOM     19  C   UNL     1       0.766   8.496  21.461  0.00  0.00    +0.000 A 
ATOM     20  C   UNL     1       0.764   9.590  20.595  0.00  0.00    +0.000 A 
ATOM     21  C   UNL     1       1.388   9.481  19.344  0.00  0.00    +0.000 A 
ATOM     22  C   UNL     1       2.013   8.289  18.954  0.00  0.00    +0.000 A 
BRANCH  21  23
ATOM     23  N   UNL     1       1.385  10.632  18.429  0.00  0.00    +0.000 N 
ATOM     24  O   UNL     1       0.500  11.486  18.582  0.00  0.00    +0.000 OA
ATOM     25  O   UNL     1       2.266  10.679  17.562  0.00  0.00    +0.000 OA
ENDBRANCH  21  23
ENDBRANCH   3  17
TORSDOF 4
ENDMDL
MODEL 6
REMARK VINA RESULT:      -7.7      1.768      2.290
REMARK  Name = 
REMARK  6 active torsions:
REMARK  status: ('A' for Active; 'I' for Inactive)
REMARK    1  A    between atoms: C_1  and  O_2
REMARK    2  A    between atoms: O_2  and  C_3
REMARK    3  A    between atoms: C_8  and  C_9
REMARK    4  A    between atoms: C_11  and  C_12
REMARK    5  A    between atoms: C_16  and  N_17
REMARK    6  A    between atoms: C_23  and  C_24
REMARK                            x       y       z     vdW  Elec       q    Type
REMARK                         _______ _______ _______ _____ _____    ______ ____
ROOT
ATOM      1  C   UNL     1       4.676   4.586  17.929  0.00  0.00    +0.000 C 
ATOM      2  O   UNL     1       5.296   3.988  16.786  0.00  0.00    +0.000 OA
ATOM      3  C   UNL     1       5.218   4.953  15.836  0.00  0.00    +0.000 C 
ATOM      4  N   UNL     1       4.605   6.057  16.133  0.00  0.00    +0.000 NA
ATOM      5  N   UNL     1       4.207   5.863  17.426  0.00  0.00    +0.000 N 
ATOM      6  C   UNL     1       3.655   6.844  18.221  0.00  0.00    +0.000 C 
ATOM      7  C   UNL     1       3.321   8.158  17.561  0.00  0.00    +0.000 C 
ATOM      8  O   UNL     1       3.430   6.682  19.419  0.00  0.00    +0.000 OA
ENDROOT
BRANCH   1  14
ATOM      9  C   UNL     1       3.781   2.737  19.497  0.00  0.00    +0.000 A 
ATOM     10  C   UNL     1       2.702   1.934  19.905  0.00  0.00    +0.000 A 
ATOM     11  C   UNL     1       1.445   2.046  19.313  0.00  0.00    +0.000 A 
ATOM     12  C   UNL     1       1.251   2.960  18.289  0.00  0.00    +0.000 A 
ATOM     13  C   UNL     1       2.310   3.768  17.879  0.00  0.00    +0.000 A 
ATOM     14  C   UNL     1       3.594   3.683  18.473  0.00  0.00    +0.000 A 
BRANCH   9  16
ATOM     15  C   UNL     1       4.948   1.338  21.064  0.00  0.00    +0.000 C 
ATOM     16  O   UNL     1       4.961   2.366  20.084  0.00  0.00    +0.000 OA
ENDBRANCH   9  16
ENDBRANCH   1  14
BRANCH   3  17
ATOM     17  C   UNL     1       5.877   4.631  14.560  0.00  0.00    +0.000 A 
ATOM     18  C   UNL     1       7.093   5.254  14.246  0.00  0.00    +0.000 A 
ATOM     19  C   UNL     1       7.744   4.967  13.044  0.00  0.00    +0.000 A 
ATOM     20  C   UNL     1       7.184   4.058  12.146  0.00  0.00    +0.000 A 
ATOM     21  C   UNL     1       5.969   3.435  12.461  0.00  0.00    +0.000 A 
ATOM     22  C   UNL     1       5.311   3.713  13.667  0.00  0.00    +0.000 A 
BRANCH  21  23
ATOM     23  N   UNL     1       5.377   2.479  11.515  0.00  0.00    +0.000 N 
ATOM     24  O   UNL     1       4.243   2.727  11.080  0.00  0.00    +0.000 OA
ATOM     25  O   UNL     1       6.046   1.484  11.208  0.00  0.00    +0.000 OA
ENDBRANCH  21  23
ENDBRANCH   3  17
TORSDOF 4
ENDMDL
MODEL 7
REMARK VINA RESULT:      -7.7      4.152      8.102
REMARK  Name = 
REMARK  6 active torsions:
REMARK  status: ('A' for Active; 'I' for Inactive)
REMARK    1  A    between atoms: C_1  and  O_2
REMARK    2  A    between atoms: O_2  and  C_3
REMARK    3  A    between atoms: C_8  and  C_9
REMARK    4  A    between atoms: C_11  and  C_12
REMARK    5  A    between atoms: C_16  and  N_17
REMARK    6  A    between atoms: C_23  and  C_24
REMARK                            x       y       z     vdW  Elec       q    Type
REMARK                         _______ _______ _______ _____ _____    ______ ____
ROOT
ATOM      1  C   UNL     1       4.378   5.337  19.567  0.00  0.00    +0.000 C 
ATOM      2  O   UNL     1       3.873   6.671  19.452  0.00  0.00    +0.000 OA
ATOM      3  C   UNL     1       2.586   6.565  19.867  0.00  0.00    +0.000 C 
ATOM      4  N   UNL     1       2.138   5.388  20.178  0.00  0.00    +0.000 NA
ATOM      5  N   UNL     1       3.213   4.571  19.966  0.00  0.00    +0.000 N 
ATOM      6  C   UNL     1       3.255   3.241  20.324  0.00  0.00    +0.000 C 
ATOM      7  C   UNL     1       1.975   2.620  20.823  0.00  0.00    +0.000 C 
ATOM      8  O   UNL     1       4.280   2.563  20.246  0.00  0.00    +0.000 OA
ENDROOT
BRANCH   1  14
ATOM      9  C   UNL     1       4.292   4.462  17.137  0.00  0.00    +0.000 A 
ATOM     10  C   UNL     1       4.990   4.055  15.987  0.00  0.00    +0.000 A 
ATOM     11  C   UNL     1       6.384   4.068  15.937  0.00  0.00    +0.000 A 
ATOM     12  C   UNL     1       7.104   4.478  17.048  0.00  0.00    +0.000 A 
ATOM     13  C   UNL     1       6.424   4.890  18.194  0.00  0.00    +0.000 A 
ATOM     14  C   UNL     1       5.008   4.899  18.265  0.00  0.00    +0.000 A 
BRANCH   9  16
ATOM     15  C   UNL     1       2.485   2.882  17.037  0.00  0.00    +0.000 C 
ATOM     16  O   UNL     1       2.947   4.225  17.044  0.00  0.00    +0.000 OA
ENDBRANCH   9  16
ENDBRANCH   1  14
BRANCH   3  17
ATOM     17  C   UNL     1       1.844   7.834  19.938  0.00  0.00    +0.000 A 
ATOM     18  C   UNL     1       1.678   8.591  18.770  0.00  0.00    +0.000 A 
ATOM     19  C   UNL     1       0.977   9.799  18.805  0.00  0.00    +0.000 A 
ATOM     20  C   UNL     1       0.437  10.259  20.006  0.00  0.00    +0.000 A 
ATOM     21  C   UNL     1       0.602   9.501  21.173  0.00  0.00    +0.000 A 
ATOM     22  C   UNL     1       1.301   8.285  21.147  0.00  0.00    +0.000 A 
BRANCH  21  23
ATOM     23  N   UNL     1       0.037   9.985  22.440  0.00  0.00    +0.000 N 
ATOM     24  O   UNL     1       0.603   9.647  23.490  0.00  0.00    +0.000 OA
ATOM     25  O   UNL     1      -0.969  10.703  22.384  0.00  0.00    +0.000 OA
ENDBRANCH  21  23
ENDBRANCH   3  17
TORSDOF 4
ENDMDL
MODEL 8
REMARK VINA RESULT:      -7.4      2.585      6.845
REMARK  Name = 
REMARK  6 active torsions:
REMARK  status: ('A' for Active; 'I' for Inactive)
REMARK    1  A    between atoms: C_1  and  O_2
REMARK    2  A    between atoms: O_2  and  C_3
REMARK    3  A    between atoms: C_8  and  C_9
REMARK    4  A    between atoms: C_11  and  C_12
REMARK    5  A    between atoms: C_16  and  N_17
REMARK    6  A    between atoms: C_23  and  C_24
REMARK                            x       y       z     vdW  Elec       q    Type
REMARK                         _______ _______ _______ _____ _____    ______ ____
ROOT
ATOM      1  C   UNL     1       6.445   4.799  17.723  0.00  0.00    +0.000 C 
ATOM      2  O   UNL     1       5.342   4.567  18.605  0.00  0.00    +0.000 OA
ATOM      3  C   UNL     1       4.400   4.013  17.803  0.00  0.00    +0.000 C 
ATOM      4  N   UNL     1       4.665   3.892  16.539  0.00  0.00    +0.000 NA
ATOM      5  N   UNL     1       5.925   4.411  16.427  0.00  0.00    +0.000 N 
ATOM      6  C   UNL     1       6.688   4.343  15.282  0.00  0.00    +0.000 C 
ATOM      7  C   UNL     1       6.022   3.813  14.038  0.00  0.00    +0.000 C 
ATOM      8  O   UNL     1       7.867   4.696  15.246  0.00  0.00    +0.000 OA
ENDROOT
BRANCH   1  14
ATOM      9  C   UNL     1       6.253   7.324  17.208  0.00  0.00    +0.000 A 
ATOM     10  C   UNL     1       6.787   8.617  17.347  0.00  0.00    +0.000 A 
ATOM     11  C   UNL     1       7.954   8.849  18.073  0.00  0.00    +0.000 A 
ATOM     12  C   UNL     1       8.616   7.784  18.663  0.00  0.00    +0.000 A 
ATOM     13  C   UNL     1       8.095   6.497  18.538  0.00  0.00    +0.000 A 
ATOM     14  C   UNL     1       6.902   6.236  17.818  0.00  0.00    +0.000 A 
BRANCH   9  16
ATOM     15  C   UNL     1       3.879   7.389  16.840  0.00  0.00    +0.000 C 
ATOM     16  O   UNL     1       5.202   7.283  16.332  0.00  0.00    +0.000 OA
ENDBRANCH   9  16
ENDBRANCH   1  14
BRANCH   3  17
ATOM     17  C   UNL     1       3.169   3.582  18.487  0.00  0.00    +0.000 A 
ATOM     18  C   UNL     1       1.963   3.572  17.774  0.00  0.00    +0.000 A 
ATOM     19  C   UNL     1       0.779   3.166  18.393  0.00  0.00    +0.000 A 
ATOM     20  C   UNL     1       0.791   2.770  19.731  0.00  0.00    +0.000 A 
ATOM     21  C   UNL     1       1.998   2.778  20.443  0.00  0.00    +0.000 A 
ATOM     22  C   UNL     1       3.192   3.180  19.828  0.00  0.00    +0.000 A 
BRANCH  21  23
ATOM     23  N   UNL     1       2.012   2.363  21.853  0.00  0.00    +0.000 N 
ATOM     24  O   UNL     1       3.074   1.918  22.311  0.00  0.00    +0.000 OA
ATOM     25  O   UNL     1       0.963   2.483  22.498  0.00  0.00    +0.000 OA
ENDBRANCH  21  23
ENDBRANCH   3  17
TORSDOF 4
ENDMDL
MODEL 9
REMARK VINA RESULT:      -7.3      2.176      3.151
REMARK  Name = 
REMARK  6 active torsions:
REMARK  status: ('A' for Active; 'I' for Inactive)
REMARK    1  A    between atoms: C_1  and  O_2
REMARK    2  A    between atoms: O_2  and  C_3
REMARK    3  A    between atoms: C_8  and  C_9
REMARK    4  A    between atoms: C_11  and  C_12
REMARK    5  A    between atoms: C_16  and  N_17
REMARK    6  A    between atoms: C_23  and  C_24
REMARK                            x       y       z     vdW  Elec       q    Type
REMARK                         _______ _______ _______ _____ _____    ______ ____
ROOT
ATOM      1  C   UNL     1       3.874   5.485  19.103  0.00  0.00    +0.000 C 
ATOM      2  O   UNL     1       4.784   4.860  18.191  0.00  0.00    +0.000 OA
ATOM      3  C   UNL     1       4.683   5.614  17.068  0.00  0.00    +0.000 C 
ATOM      4  N   UNL     1       3.827   6.588  17.059  0.00  0.00    +0.000 NA
ATOM      5  N   UNL     1       3.259   6.525  18.301  0.00  0.00    +0.000 N 
ATOM      6  C   UNL     1       2.400   7.476  18.807  0.00  0.00    +0.000 C 
ATOM      7  C   UNL     1       1.935   8.557  17.864  0.00  0.00    +0.000 C 
ATOM      8  O   UNL     1       2.010   7.467  19.974  0.00  0.00    +0.000 OA
ENDROOT
BRANCH   1  14
ATOM      9  C   UNL     1       2.098   3.620  18.892  0.00  0.00    +0.000 A 
ATOM     10  C   UNL     1       1.220   2.727  19.531  0.00  0.00    +0.000 A 
ATOM     11  C   UNL     1       1.131   2.661  20.921  0.00  0.00    +0.000 A 
ATOM     12  C   UNL     1       1.912   3.503  21.696  0.00  0.00    +0.000 A 
ATOM     13  C   UNL     1       2.791   4.390  21.077  0.00  0.00    +0.000 A 
ATOM     14  C   UNL     1       2.912   4.466  19.666  0.00  0.00    +0.000 A 
BRANCH   9  16
ATOM     15  C   UNL     1       2.599   2.685  16.736  0.00  0.00    +0.000 C 
ATOM     16  O   UNL     1       1.922   3.646  17.535  0.00  0.00    +0.000 OA
ENDBRANCH   9  16
ENDBRANCH   1  14
BRANCH   3  17
ATOM     17  C   UNL     1       5.600   5.240  15.978  0.00  0.00    +0.000 A 
ATOM     18  C   UNL     1       6.954   5.586  16.081  0.00  0.00    +0.000 A 
ATOM     19  C   UNL     1       7.849   5.244  15.065  0.00  0.00    +0.000 A 
ATOM     20  C   UNL     1       7.398   4.556  13.938  0.00  0.00    +0.000 A 
ATOM     21  C   UNL     1       6.044   4.209  13.837  0.00  0.00    +0.000 A 
ATOM     22  C   UNL     1       5.138   4.545  14.854  0.00  0.00    +0.000 A 
BRANCH  21  23
ATOM     23  N   UNL     1       5.565   3.487  12.650  0.00  0.00    +0.000 N 
ATOM     24  O   UNL     1       6.395   2.835  12.000  0.00  0.00    +0.000 OA
ATOM     25  O   UNL     1       4.363   3.571  12.372  0.00  0.00    +0.000 OA
ENDBRANCH  21  23
ENDBRANCH   3  17
TORSDOF 4
ENDMDL
