MODEL 1
REMARK VINA RESULT:      -8.2      0.000      0.000
REMARK  Name = 
REMARK  13 active torsions:
REMARK  status: ('A' for Active; 'I' for Inactive)
REMARK    1  A    between atoms: C_1  and  C_2
REMARK    2  A    between atoms: C_5  and  C_6
REMARK    3  A    between atoms: C_6  and  C_7
REMARK    4  A    between atoms: C_6  and  N_11
REMARK    5  A    between atoms: C_7  and  C_8
REMARK    6  A    between atoms: C_8  and  O_10
REMARK    7  A    between atoms: C_12  and  C_14
REMARK    8  A    between atoms: C_14  and  N_15
REMARK    9  A    between atoms: N_15  and  C_16
REMARK   10  A    between atoms: C_17  and  C_19
REMARK   11  A    between atoms: C_22  and  N_23
REMARK   12  A    between atoms: N_26  and  C_27
REMARK   13  A    between atoms: C_27  and  C_28
REMARK                            x       y       z     vdW  Elec       q    Type
REMARK                         _______ _______ _______ _____ _____    ______ ____
ROOT
ATOM      1  N   UNL     1       2.750   2.895  19.228  0.00  0.00    +0.000 N 
ATOM      2  C   UNL     1       2.463   1.478  19.130  0.00  0.00    +0.000 C 
ATOM      3  C   UNL     1       1.652   3.773  19.247  0.00  0.00    +0.000 C 
ATOM      4  O   UNL     1       0.503   3.328  19.303  0.00  0.00    +0.000 OA
ENDROOT
BRANCH   3   5
ATOM      5  C   UNL     1       1.878   5.209  19.206  0.00  0.00    +0.000 A 
ATOM      6  C   UNL     1       2.374   6.016  18.196  0.00  0.00    +0.000 A 
ATOM      7  C   UNL     1       2.435   7.336  18.716  0.00  0.00    +0.000 A 
ATOM      8  C   UNL     1       1.980   7.262  20.014  0.00  0.00    +0.000 A 
ATOM      9  O   UNL     1       1.650   5.981  20.308  0.00  0.00    +0.000 OA
BRANCH   8  10
ATOM     10  N   UNL     1       1.856   8.226  20.986  0.00  0.00    +0.000 N 
ATOM     11  C   UNL     1       0.650   8.526  21.574  0.00  0.00    +0.000 C 
ATOM     12  O   UNL     1      -0.452   8.099  21.243  0.00  0.00    +0.000 OA
ATOM     13  N   UNL     1       0.790   9.388  22.645  0.00  0.00    +0.000 N 
ATOM     14  H   UNL     1       2.692   8.692  21.298  0.00  0.00    +0.000 HD
ATOM     15  H   UNL     1       1.545  10.054  22.613  0.00  0.00    +0.000 HD
BRANCH  13  16
ATOM     16  C   UNL     1      -0.404   9.800  23.355  0.00  0.00    +0.000 C 
BRANCH  16  17
ATOM     17  C   UNL     1      -0.955  11.111  22.864  0.00  0.00    +0.000 A 
ATOM     18  C   UNL     1      -2.162  11.609  23.372  0.00  0.00    +0.000 A 
ATOM     19  C   UNL     1      -2.634  12.864  22.980  0.00  0.00    +0.000 A 
ATOM     20  C   UNL     1      -1.903  13.634  22.077  0.00  0.00    +0.000 A 
ATOM     21  C   UNL     1      -0.699  13.152  21.567  0.00  0.00    +0.000 A 
ATOM     22  C   UNL     1      -0.227  11.898  21.959  0.00  0.00    +0.000 A 
ENDBRANCH  16  17
ENDBRANCH  13  16
ENDBRANCH   8  10
ENDBRANCH   3   5
BRANCH   1  23
ATOM     23  C   UNL     1       4.156   3.315  19.314  0.00  0.00    +0.000 C 
BRANCH  23  25
ATOM     24  N   UNL     1       5.624   4.986  18.262  0.00  0.00    +0.000 N 
ATOM     25  C   UNL     1       4.730   3.953  18.029  0.00  0.00    +0.000 C 
ATOM     26  O   UNL     1       4.442   3.595  16.888  0.00  0.00    +0.000 OA
ATOM     27  H   UNL     1       5.959   5.106  19.209  0.00  0.00    +0.000 HD
BRANCH  24  28
ATOM     28  C   UNL     1       6.379   5.591  17.163  0.00  0.00    +0.000 C 
BRANCH  28  33
ATOM     29  C   UNL     1       9.287  10.306  19.063  0.00  0.00    +0.000 C 
ATOM     30  C   UNL     1       8.547   9.104  18.558  0.00  0.00    +0.000 A 
ATOM     31  C   UNL     1       8.768   7.844  19.116  0.00  0.00    +0.000 A 
ATOM     32  C   UNL     1       8.073   6.728  18.641  0.00  0.00    +0.000 A 
ATOM     33  C   UNL     1       7.133   6.840  17.601  0.00  0.00    +0.000 A 
ATOM     34  C   UNL     1       6.908   8.112  17.053  0.00  0.00    +0.000 A 
ATOM     35  C   UNL     1       7.618   9.227  17.518  0.00  0.00    +0.000 A 
ENDBRANCH  28  33
BRANCH  28  36
ATOM     36  C   UNL     1       7.285   4.551  16.492  0.00  0.00    +0.000 C 
BRANCH  36  37
ATOM     37  C   UNL     1       7.141   4.548  14.992  0.00  0.00    +0.000 C 
ATOM     38  O   UNL     1       7.665   5.365  14.255  0.00  0.00    +0.000 OA
BRANCH  37  39
ATOM     39  O   UNL     1       6.390   3.528  14.517  0.00  0.00    +0.000 OA
ATOM     40  H   UNL     1       6.362   2.738  15.093  0.00  0.00    +0.000 HD
ENDBRANCH  37  39
ENDBRANCH  36  37
ENDBRANCH  28  36
ENDBRANCH  24  28
ENDBRANCH  23  25
ENDBRANCH   1  23
TORSDOF 11
ENDMDL
MODEL 2
REMARK VINA RESULT:      -8.2      4.208     10.313
REMARK  Name = 
REMARK  13 active torsions:
REMARK  status: ('A' for Active; 'I' for Inactive)
REMARK    1  A    between atoms: C_1  and  C_2
REMARK    2  A    between atoms: C_5  and  C_6
REMARK    3  A    between atoms: C_6  and  C_7
REMARK    4  A    between atoms: C_6  and  N_11
REMARK    5  A    between atoms: C_7  and  C_8
REMARK    6  A    between atoms: C_8  and  O_10
REMARK    7  A    between atoms: C_12  and  C_14
REMARK    8  A    between atoms: C_14  and  N_15
REMARK    9  A    between atoms: N_15  and  C_16
REMARK   10  A    between atoms: C_17  and  C_19
REMARK   11  A    between atoms: C_22  and  N_23
REMARK   12  A    between atoms: N_26  and  C_27
REMARK   13  A    between atoms: C_27  and  C_28
REMARK                            x       y       z     vdW  Elec       q    Type
REMARK                         _______ _______ _______ _____ _____    ______ ____
ROOT
ATOM      1  N   UNL     1       0.522  11.927  19.129  0.00  0.00    +0.000 N 
ATOM      2  C   UNL     1       0.765  13.288  18.693  0.00  0.00    +0.000 C 
ATOM      3  C   UNL     1       0.610  11.669  20.508  0.00  0.00    +0.000 C 
ATOM      4  O   UNL     1       0.765  12.598  21.304  0.00  0.00    +0.000 OA
ENDROOT
BRANCH   3   5
ATOM      5  C   UNL     1       0.512  10.301  20.991  0.00  0.00    +0.000 A 
ATOM      6  C   UNL     1      -0.358   9.725  21.902  0.00  0.00    +0.000 A 
ATOM      7  C   UNL     1       0.031   8.366  22.041  0.00  0.00    +0.000 A 
ATOM      8  C   UNL     1       1.117   8.188  21.213  0.00  0.00    +0.000 A 
ATOM      9  O   UNL     1       1.408   9.354  20.586  0.00  0.00    +0.000 OA
BRANCH   8  10
ATOM     10  N   UNL     1       1.906   7.088  20.980  0.00  0.00    +0.000 N 
ATOM     11  C   UNL     1       2.411   6.795  19.734  0.00  0.00    +0.000 C 
ATOM     12  O   UNL     1       2.136   7.364  18.681  0.00  0.00    +0.000 OA
ATOM     13  N   UNL     1       3.319   5.755  19.768  0.00  0.00    +0.000 N 
ATOM     14  H   UNL     1       2.150   6.506  21.765  0.00  0.00    +0.000 HD
ATOM     15  H   UNL     1       3.188   5.043  20.468  0.00  0.00    +0.000 HD
BRANCH  13  16
ATOM     16  C   UNL     1       3.924   5.331  18.522  0.00  0.00    +0.000 C 
BRANCH  16  17
ATOM     17  C   UNL     1       5.343   5.808  18.368  0.00  0.00    +0.000 A 
ATOM     18  C   UNL     1       5.684   6.707  17.348  0.00  0.00    +0.000 A 
ATOM     19  C   UNL     1       6.981   7.215  17.253  0.00  0.00    +0.000 A 
ATOM     20  C   UNL     1       7.951   6.832  18.179  0.00  0.00    +0.000 A 
ATOM     21  C   UNL     1       7.624   5.942  19.200  0.00  0.00    +0.000 A 
ATOM     22  C   UNL     1       6.327   5.434  19.295  0.00  0.00    +0.000 A 
ENDBRANCH  16  17
ENDBRANCH  13  16
ENDBRANCH   8  10
ENDBRANCH   3   5
BRANCH   1  23
ATOM     23  C   UNL     1       0.190  10.921  18.110  0.00  0.00    +0.000 C 
BRANCH  23  25
ATOM     24  N   UNL     1      -2.079  11.166  17.192  0.00  0.00    +0.000 N 
ATOM     25  C   UNL     1      -1.288  10.470  18.091  0.00  0.00    +0.000 C 
ATOM     26  O   UNL     1      -1.749   9.572  18.795  0.00  0.00    +0.000 OA
ATOM     27  H   UNL     1      -1.608  11.755  16.516  0.00  0.00    +0.000 HD
BRANCH  24  28
ATOM     28  C   UNL     1      -3.462  10.760  16.933  0.00  0.00    +0.000 C 
BRANCH  28  33
ATOM     29  C   UNL     1      -7.260  12.267  21.130  0.00  0.00    +0.000 C 
ATOM     30  C   UNL     1      -6.273  11.881  20.068  0.00  0.00    +0.000 A 
ATOM     31  C   UNL     1      -6.560  10.854  19.167  0.00  0.00    +0.000 A 
ATOM     32  C   UNL     1      -5.636  10.500  18.181  0.00  0.00    +0.000 A 
ATOM     33  C   UNL     1      -4.403  11.166  18.060  0.00  0.00    +0.000 A 
ATOM     34  C   UNL     1      -4.127  12.205  18.962  0.00  0.00    +0.000 A 
ATOM     35  C   UNL     1      -5.047  12.547  19.963  0.00  0.00    +0.000 A 
ENDBRANCH  28  33
BRANCH  28  36
ATOM     36  C   UNL     1      -3.925  11.263  15.559  0.00  0.00    +0.000 C 
BRANCH  36  37
ATOM     37  C   UNL     1      -3.570  10.306  14.451  0.00  0.00    +0.000 C 
ATOM     38  O   UNL     1      -2.429  10.017  14.138  0.00  0.00    +0.000 OA
BRANCH  37  39
ATOM     39  O   UNL     1      -4.645   9.759  13.837  0.00  0.00    +0.000 OA
ATOM     40  H   UNL     1      -5.423  10.348  13.771  0.00  0.00    +0.000 HD
ENDBRANCH  37  39
ENDBRANCH  36  37
ENDBRANCH  28  36
ENDBRANCH  24  28
ENDBRANCH  23  25
ENDBRANCH   1  23
TORSDOF 11
ENDMDL
MODEL 3
REMARK VINA RESULT:      -8.1      4.496     10.290
REMARK  Name = 
REMARK  13 active torsions:
REMARK  status: ('A' for Active; 'I' for Inactive)
REMARK    1  A    between atoms: C_1  and  C_2
REMARK    2  A    between atoms: C_5  and  C_6
REMARK    3  A    between atoms: C_6  and  C_7
REMARK    4  A    between atoms: C_6  and  N_11
REMARK    5  A    between atoms: C_7  and  C_8
REMARK    6  A    between atoms: C_8  and  O_10
REMARK    7  A    between atoms: C_12  and  C_14
REMARK    8  A    between atoms: C_14  and  N_15
REMARK    9  A    between atoms: N_15  and  C_16
REMARK   10  A    between atoms: C_17  and  C_19
REMARK   11  A    between atoms: C_22  and  N_23
REMARK   12  A    between atoms: N_26  and  C_27
REMARK   13  A    between atoms: C_27  and  C_28
REMARK                            x       y       z     vdW  Elec       q    Type
REMARK                         _______ _______ _______ _____ _____    ______ ____
ROOT
ATOM      1  N   UNL     1       0.521  15.923  20.945  0.00  0.00    +0.000 N 
ATOM      2  C   UNL     1      -0.463  16.860  21.452  0.00  0.00    +0.000 C 
ATOM      3  C   UNL     1       1.233  16.300  19.793  0.00  0.00    +0.000 C 
ATOM      4  O   UNL     1       1.100  17.434  19.325  0.00  0.00    +0.000 OA
ENDROOT
BRANCH   3   5
ATOM      5  C   UNL     1       2.133  15.348  19.161  0.00  0.00    +0.000 A 
ATOM      6  C   UNL     1       3.478  15.448  18.850  0.00  0.00    +0.000 A 
ATOM      7  C   UNL     1       3.839  14.242  18.191  0.00  0.00    +0.000 A 
ATOM      8  C   UNL     1       2.695  13.478  18.130  0.00  0.00    +0.000 A 
ATOM      9  O   UNL     1       1.669  14.146  18.710  0.00  0.00    +0.000 OA
BRANCH   8  10
ATOM     10  N   UNL     1       2.461  12.242  17.576  0.00  0.00    +0.000 N 
ATOM     11  C   UNL     1       2.079  11.157  18.332  0.00  0.00    +0.000 C 
ATOM     12  O   UNL     1       2.026  11.102  19.557  0.00  0.00    +0.000 OA
ATOM     13  N   UNL     1       1.723  10.075  17.551  0.00  0.00    +0.000 N 
ATOM     14  H   UNL     1       2.534  12.151  16.576  0.00  0.00    +0.000 HD
ATOM     15  H   UNL     1       2.187   9.967  16.663  0.00  0.00    +0.000 HD
BRANCH  13  16
ATOM     16  C   UNL     1       1.309   8.857  18.215  0.00  0.00    +0.000 C 
BRANCH  16  17
ATOM     17  C   UNL     1       2.414   7.840  18.318  0.00  0.00    +0.000 A 
ATOM     18  C   UNL     1       2.423   6.904  19.362  0.00  0.00    +0.000 A 
ATOM     19  C   UNL     1       3.401   5.908  19.413  0.00  0.00    +0.000 A 
ATOM     20  C   UNL     1       4.377   5.836  18.421  0.00  0.00    +0.000 A 
ATOM     21  C   UNL     1       4.376   6.758  17.376  0.00  0.00    +0.000 A 
ATOM     22  C   UNL     1       3.400   7.754  17.324  0.00  0.00    +0.000 A 
ENDBRANCH  16  17
ENDBRANCH  13  16
ENDBRANCH   8  10
ENDBRANCH   3   5
BRANCH   1  23
ATOM     23  C   UNL     1       0.715  14.660  21.671  0.00  0.00    +0.000 C 
BRANCH  23  25
ATOM     24  N   UNL     1      -0.146  12.527  20.799  0.00  0.00    +0.000 N 
ATOM     25  C   UNL     1      -0.448  13.649  21.552  0.00  0.00    +0.000 C 
ATOM     26  O   UNL     1      -1.552  13.798  22.074  0.00  0.00    +0.000 OA
ATOM     27  H   UNL     1       0.825  12.376  20.558  0.00  0.00    +0.000 HD
BRANCH  24  28
ATOM     28  C   UNL     1      -1.078  11.400  20.719  0.00  0.00    +0.000 C 
BRANCH  28  33
ATOM     29  C   UNL     1      -2.867  10.567  15.204  0.00  0.00    +0.000 C 
ATOM     30  C   UNL     1      -2.400  10.764  16.616  0.00  0.00    +0.000 A 
ATOM     31  C   UNL     1      -1.821  11.969  17.014  0.00  0.00    +0.000 A 
ATOM     32  C   UNL     1      -1.389  12.145  18.331  0.00  0.00    +0.000 A 
ATOM     33  C   UNL     1      -1.529  11.125  19.290  0.00  0.00    +0.000 A 
ATOM     34  C   UNL     1      -2.123   9.920  18.885  0.00  0.00    +0.000 A 
ATOM     35  C   UNL     1      -2.539   9.738  17.559  0.00  0.00    +0.000 A 
ENDBRANCH  28  33
BRANCH  28  36
ATOM     36  C   UNL     1      -0.490  10.162  21.408  0.00  0.00    +0.000 C 
BRANCH  36  37
ATOM     37  C   UNL     1      -0.400  10.327  22.903  0.00  0.00    +0.000 C 
ATOM     38  O   UNL     1       0.466   9.822  23.595  0.00  0.00    +0.000 OA
BRANCH  37  39
ATOM     39  O   UNL     1      -1.363  11.123  23.422  0.00  0.00    +0.000 OA
ATOM     40  H   UNL     1      -2.196  11.148  22.909  0.00  0.00    +0.000 HD
ENDBRANCH  37  39
ENDBRANCH  36  37
ENDBRANCH  28  36
ENDBRANCH  24  28
ENDBRANCH  23  25
ENDBRANCH   1  23
TORSDOF 11
ENDMDL
MODEL 4
REMARK VINA RESULT:      -8.1      3.353      8.424
REMARK  Name = 
REMARK  13 active torsions:
REMARK  status: ('A' for Active; 'I' for Inactive)
REMARK    1  A    between atoms: C_1  and  C_2
REMARK    2  A    between atoms: C_5  and  C_6
REMARK    3  A    between atoms: C_6  and  C_7
REMARK    4  A    between atoms: C_6  and  N_11
REMARK    5  A    between atoms: C_7  and  C_8
REMARK    6  A    between atoms: C_8  and  O_10
REMARK    7  A    between atoms: C_12  and  C_14
REMARK    8  A    between atoms: C_14  and  N_15
REMARK    9  A    between atoms: N_15  and  C_16
REMARK   10  A    between atoms: C_17  and  C_19
REMARK   11  A    between atoms: C_22  and  N_23
REMARK   12  A    between atoms: N_26  and  C_27
REMARK   13  A    between atoms: C_27  and  C_28
REMARK                            x       y       z     vdW  Elec       q    Type
REMARK                         _______ _______ _______ _____ _____    ______ ____
ROOT
ATOM      1  N   UNL     1       5.674   5.245  15.967  0.00  0.00    +0.000 N 
ATOM      2  C   UNL     1       5.231   4.144  15.135  0.00  0.00    +0.000 C 
ATOM      3  C   UNL     1       7.055   5.354  16.208  0.00  0.00    +0.000 C 
ATOM      4  O   UNL     1       7.846   4.608  15.626  0.00  0.00    +0.000 OA
ENDROOT
BRANCH   3   5
ATOM      5  C   UNL     1       7.544   6.354  17.143  0.00  0.00    +0.000 A 
ATOM      6  C   UNL     1       7.919   6.242  18.471  0.00  0.00    +0.000 A 
ATOM      7  C   UNL     1       8.265   7.547  18.913  0.00  0.00    +0.000 A 
ATOM      8  C   UNL     1       8.077   8.382  17.835  0.00  0.00    +0.000 A 
ATOM      9  O   UNL     1       7.640   7.665  16.773  0.00  0.00    +0.000 OA
BRANCH   8  10
ATOM     10  N   UNL     1       8.228   9.743  17.708  0.00  0.00    +0.000 N 
ATOM     11  C   UNL     1       9.045  10.474  18.539  0.00  0.00    +0.000 C 
ATOM     12  O   UNL     1       9.620  10.065  19.543  0.00  0.00    +0.000 OA
ATOM     13  N   UNL     1       9.187  11.781  18.116  0.00  0.00    +0.000 N 
ATOM     14  H   UNL     1       7.751  10.202  16.949  0.00  0.00    +0.000 HD
ATOM     15  H   UNL     1       8.411  12.202  17.630  0.00  0.00    +0.000 HD
BRANCH  13  16
ATOM     16  C   UNL     1      10.013  12.671  18.905  0.00  0.00    +0.000 C 
BRANCH  16  17
ATOM     17  C   UNL     1       9.960  14.097  18.427  0.00  0.00    +0.000 A 
ATOM     18  C   UNL     1      11.125  14.747  17.996  0.00  0.00    +0.000 A 
ATOM     19  C   UNL     1      11.065  16.041  17.475  0.00  0.00    +0.000 A 
ATOM     20  C   UNL     1       9.841  16.699  17.377  0.00  0.00    +0.000 A 
ATOM     21  C   UNL     1       8.675  16.063  17.799  0.00  0.00    +0.000 A 
ATOM     22  C   UNL     1       8.733  14.769  18.320  0.00  0.00    +0.000 A 
ENDBRANCH  16  17
ENDBRANCH  13  16
ENDBRANCH   8  10
ENDBRANCH   3   5
BRANCH   1  23
ATOM     23  C   UNL     1       4.659   6.174  16.486  0.00  0.00    +0.000 C 
BRANCH  23  25
ATOM     24  N   UNL     1       3.095   6.635  18.327  0.00  0.00    +0.000 N 
ATOM     25  C   UNL     1       4.210   5.909  17.940  0.00  0.00    +0.000 C 
ATOM     26  O   UNL     1       4.768   5.126  18.707  0.00  0.00    +0.000 OA
ATOM     27  H   UNL     1       2.575   7.112  17.601  0.00  0.00    +0.000 HD
BRANCH  24  28
ATOM     28  C   UNL     1       2.444   6.385  19.615  0.00  0.00    +0.000 C 
BRANCH  28  33
ATOM     29  C   UNL     1      -0.319  11.213  21.448  0.00  0.00    +0.000 C 
ATOM     30  C   UNL     1       0.374   9.966  20.985  0.00  0.00    +0.000 A 
ATOM     31  C   UNL     1       0.914   9.886  19.701  0.00  0.00    +0.000 A 
ATOM     32  C   UNL     1       1.559   8.720  19.277  0.00  0.00    +0.000 A 
ATOM     33  C   UNL     1       1.689   7.606  20.125  0.00  0.00    +0.000 A 
ATOM     34  C   UNL     1       1.154   7.699  21.419  0.00  0.00    +0.000 A 
ATOM     35  C   UNL     1       0.491   8.862  21.837  0.00  0.00    +0.000 A 
ENDBRANCH  28  33
BRANCH  28  36
ATOM     36  C   UNL     1       1.567   5.128  19.543  0.00  0.00    +0.000 C 
BRANCH  36  37
ATOM     37  C   UNL     1       1.979   4.085  20.549  0.00  0.00    +0.000 C 
ATOM     38  O   UNL     1       1.253   3.664  21.432  0.00  0.00    +0.000 OA
BRANCH  37  39
ATOM     39  O   UNL     1       3.237   3.622  20.370  0.00  0.00    +0.000 OA
ATOM     40  H   UNL     1       3.727   4.039  19.633  0.00  0.00    +0.000 HD
ENDBRANCH  37  39
ENDBRANCH  36  37
ENDBRANCH  28  36
ENDBRANCH  24  28
ENDBRANCH  23  25
ENDBRANCH   1  23
TORSDOF 11
ENDMDL
MODEL 5
REMARK VINA RESULT:      -8.0      2.973      4.660
REMARK  Name = 
REMARK  13 active torsions:
REMARK  status: ('A' for Active; 'I' for Inactive)
REMARK    1  A    between atoms: C_1  and  C_2
REMARK    2  A    between atoms: C_5  and  C_6
REMARK    3  A    between atoms: C_6  and  C_7
REMARK    4  A    between atoms: C_6  and  N_11
REMARK    5  A    between atoms: C_7  and  C_8
REMARK    6  A    between atoms: C_8  and  O_10
REMARK    7  A    between atoms: C_12  and  C_14
REMARK    8  A    between atoms: C_14  and  N_15
REMARK    9  A    between atoms: N_15  and  C_16
REMARK   10  A    between atoms: C_17  and  C_19
REMARK   11  A    between atoms: C_22  and  N_23
REMARK   12  A    between atoms: N_26  and  C_27
REMARK   13  A    between atoms: C_27  and  C_28
REMARK                            x       y       z     vdW  Elec       q    Type
REMARK                         _______ _______ _______ _____ _____    ______ ____
ROOT
ATOM      1  N   UNL     1       3.222   3.460  18.670  0.00  0.00    +0.000 N 
ATOM      2  C   UNL     1       3.243   2.155  18.040  0.00  0.00    +0.000 C 
ATOM      3  C   UNL     1       2.128   4.295  18.381  0.00  0.00    +0.000 C 
ATOM      4  O   UNL     1       1.179   3.867  17.718  0.00  0.00    +0.000 OA
ENDROOT
BRANCH   3   5
ATOM      5  C   UNL     1       2.119   5.663  18.874  0.00  0.00    +0.000 A 
ATOM      6  C   UNL     1       1.891   6.163  20.145  0.00  0.00    +0.000 A 
ATOM      7  C   UNL     1       1.949   7.579  20.046  0.00  0.00    +0.000 A 
ATOM      8  C   UNL     1       2.203   7.865  18.724  0.00  0.00    +0.000 A 
ATOM      9  O   UNL     1       2.300   6.712  18.019  0.00  0.00    +0.000 OA
BRANCH   8  10
ATOM     10  N   UNL     1       2.327   9.064  18.065  0.00  0.00    +0.000 N 
ATOM     11  C   UNL     1       1.764  10.227  18.539  0.00  0.00    +0.000 C 
ATOM     12  O   UNL     1       0.999  10.332  19.492  0.00  0.00    +0.000 OA
ATOM     13  N   UNL     1       2.169  11.335  17.820  0.00  0.00    +0.000 N 
ATOM     14  H   UNL     1       2.888   9.088  17.228  0.00  0.00    +0.000 HD
ATOM     15  H   UNL     1       2.379  11.207  16.843  0.00  0.00    +0.000 HD
BRANCH  13  16
ATOM     16  C   UNL     1       1.644  12.630  18.203  0.00  0.00    +0.000 C 
BRANCH  16  17
ATOM     17  C   UNL     1       2.624  13.445  19.003  0.00  0.00    +0.000 A 
ATOM     18  C   UNL     1       3.588  14.232  18.357  0.00  0.00    +0.000 A 
ATOM     19  C   UNL     1       4.443  15.053  19.093  0.00  0.00    +0.000 A 
ATOM     20  C   UNL     1       4.343  15.099  20.483  0.00  0.00    +0.000 A 
ATOM     21  C   UNL     1       3.387  14.326  21.137  0.00  0.00    +0.000 A 
ATOM     22  C   UNL     1       2.531  13.504  20.401  0.00  0.00    +0.000 A 
ENDBRANCH  16  17
ENDBRANCH  13  16
ENDBRANCH   8  10
ENDBRANCH   3   5
BRANCH   1  23
ATOM     23  C   UNL     1       4.328   3.814  19.571  0.00  0.00    +0.000 C 
BRANCH  23  25
ATOM     24  N   UNL     1       5.395   4.750  17.562  0.00  0.00    +0.000 N 
ATOM     25  C   UNL     1       5.598   4.348  18.872  0.00  0.00    +0.000 C 
ATOM     26  O   UNL     1       6.703   4.427  19.407  0.00  0.00    +0.000 OA
ATOM     27  H   UNL     1       4.438   4.836  17.245  0.00  0.00    +0.000 HD
BRANCH  24  28
ATOM     28  C   UNL     1       6.453   5.427  16.809  0.00  0.00    +0.000 C 
BRANCH  28  33
ATOM     29  C   UNL     1       6.970   3.655  11.251  0.00  0.00    +0.000 C 
ATOM     30  C   UNL     1       6.835   4.090  12.680  0.00  0.00    +0.000 A 
ATOM     31  C   UNL     1       7.766   4.958  13.252  0.00  0.00    +0.000 A 
ATOM     32  C   UNL     1       7.633   5.360  14.583  0.00  0.00    +0.000 A 
ATOM     33  C   UNL     1       6.562   4.913  15.379  0.00  0.00    +0.000 A 
ATOM     34  C   UNL     1       5.624   4.051  14.793  0.00  0.00    +0.000 A 
ATOM     35  C   UNL     1       5.768   3.634  13.463  0.00  0.00    +0.000 A 
ENDBRANCH  28  33
BRANCH  28  36
ATOM     36  C   UNL     1       6.280   6.950  16.884  0.00  0.00    +0.000 C 
BRANCH  36  37
ATOM     37  C   UNL     1       7.407   7.618  17.628  0.00  0.00    +0.000 C 
ATOM     38  O   UNL     1       8.136   7.046  18.419  0.00  0.00    +0.000 OA
BRANCH  37  39
ATOM     39  O   UNL     1       7.567   8.925  17.318  0.00  0.00    +0.000 OA
ATOM     40  H   UNL     1       7.591   9.119  16.359  0.00  0.00    +0.000 HD
ENDBRANCH  37  39
ENDBRANCH  36  37
ENDBRANCH  28  36
ENDBRANCH  24  28
ENDBRANCH  23  25
ENDBRANCH   1  23
TORSDOF 11
ENDMDL
MODEL 6
REMARK VINA RESULT:      -8.0      2.686      4.170
REMARK  Name = 
REMARK  13 active torsions:
REMARK  status: ('A' for Active; 'I' for Inactive)
REMARK    1  A    between atoms: C_1  and  C_2
REMARK    2  A    between atoms: C_5  and  C_6
REMARK    3  A    between atoms: C_6  and  C_7
REMARK    4  A    between atoms: C_6  and  N_11
REMARK    5  A    between atoms: C_7  and  C_8
REMARK    6  A    between atoms: C_8  and  O_10
REMARK    7  A    between atoms: C_12  and  C_14
REMARK    8  A    between atoms: C_14  and  N_15
REMARK    9  A    between atoms: N_15  and  C_16
REMARK   10  A    between atoms: C_17  and  C_19
REMARK   11  A    between atoms: C_22  and  N_23
REMARK   12  A    between atoms: N_26  and  C_27
REMARK   13  A    between atoms: C_27  and  C_28
REMARK                            x       y       z     vdW  Elec       q    Type
REMARK                         _______ _______ _______ _____ _____    ______ ____
ROOT
ATOM      1  N   UNL     1       3.357   3.303  18.752  0.00  0.00    +0.000 N 
ATOM      2  C   UNL     1       3.459   2.036  18.054  0.00  0.00    +0.000 C 
ATOM      3  C   UNL     1       2.229   4.097  18.479  0.00  0.00    +0.000 C 
ATOM      4  O   UNL     1       1.320   3.660  17.769  0.00  0.00    +0.000 OA
ENDROOT
BRANCH   3   5
ATOM      5  C   UNL     1       2.139   5.434  19.043  0.00  0.00    +0.000 A 
ATOM      6  C   UNL     1       2.127   5.858  20.361  0.00  0.00    +0.000 A 
ATOM      7  C   UNL     1       1.966   7.270  20.338  0.00  0.00    +0.000 A 
ATOM      8  C   UNL     1       1.883   7.627  19.011  0.00  0.00    +0.000 A 
ATOM      9  O   UNL     1       1.983   6.522  18.234  0.00  0.00    +0.000 OA
BRANCH   8  10
ATOM     10  N   UNL     1       1.694   8.851  18.414  0.00  0.00    +0.000 N 
ATOM     11  C   UNL     1       0.884   9.819  18.960  0.00  0.00    +0.000 C 
ATOM     12  O   UNL     1       0.147   9.692  19.933  0.00  0.00    +0.000 OA
ATOM     13  N   UNL     1       0.987  11.024  18.292  0.00  0.00    +0.000 N 
ATOM     14  H   UNL     1       2.206   9.048  17.568  0.00  0.00    +0.000 HD
ATOM     15  H   UNL     1       1.190  10.997  17.306  0.00  0.00    +0.000 HD
BRANCH  13  16
ATOM     16  C   UNL     1       0.179  12.135  18.753  0.00  0.00    +0.000 C 
BRANCH  16  17
ATOM     17  C   UNL     1      -1.295  11.917  18.537  0.00  0.00    +0.000 A 
ATOM     18  C   UNL     1      -2.220  12.290  19.522  0.00  0.00    +0.000 A 
ATOM     19  C   UNL     1      -3.591  12.166  19.291  0.00  0.00    +0.000 A 
ATOM     20  C   UNL     1      -4.053  11.670  18.073  0.00  0.00    +0.000 A 
ATOM     21  C   UNL     1      -3.143  11.300  17.084  0.00  0.00    +0.000 A 
ATOM     22  C   UNL     1      -1.772  11.423  17.314  0.00  0.00    +0.000 A 
ENDBRANCH  16  17
ENDBRANCH  13  16
ENDBRANCH   8  10
ENDBRANCH   3   5
BRANCH   1  23
ATOM     23  C   UNL     1       4.422   3.661  19.700  0.00  0.00    +0.000 C 
BRANCH  23  25
ATOM     24  N   UNL     1       5.540   4.579  17.711  0.00  0.00    +0.000 N 
ATOM     25  C   UNL     1       5.640   4.378  19.078  0.00  0.00    +0.000 C 
ATOM     26  O   UNL     1       6.623   4.755  19.714  0.00  0.00    +0.000 OA
ATOM     27  H   UNL     1       4.636   4.419  17.282  0.00  0.00    +0.000 HD
BRANCH  24  28
ATOM     28  C   UNL     1       6.530   5.383  16.992  0.00  0.00    +0.000 C 
BRANCH  28  33
ATOM     29  C   UNL     1       6.844   3.670  11.400  0.00  0.00    +0.000 C 
ATOM     30  C   UNL     1       6.766   4.127  12.826  0.00  0.00    +0.000 A 
ATOM     31  C   UNL     1       5.746   3.676  13.665  0.00  0.00    +0.000 A 
ATOM     32  C   UNL     1       5.680   4.106  14.993  0.00  0.00    +0.000 A 
ATOM     33  C   UNL     1       6.635   4.992  15.524  0.00  0.00    +0.000 A 
ATOM     34  C   UNL     1       7.665   5.431  14.678  0.00  0.00    +0.000 A 
ATOM     35  C   UNL     1       7.719   5.014  13.341  0.00  0.00    +0.000 A 
ENDBRANCH  28  33
BRANCH  28  36
ATOM     36  C   UNL     1       6.261   6.880  17.193  0.00  0.00    +0.000 C 
BRANCH  36  37
ATOM     37  C   UNL     1       7.466   7.612  17.724  0.00  0.00    +0.000 C 
ATOM     38  O   UNL     1       8.219   7.164  18.570  0.00  0.00    +0.000 OA
BRANCH  37  39
ATOM     39  O   UNL     1       7.665   8.822  17.152  0.00  0.00    +0.000 OA
ATOM     40  H   UNL     1       8.259   8.815  16.375  0.00  0.00    +0.000 HD
ENDBRANCH  37  39
ENDBRANCH  36  37
ENDBRANCH  28  36
ENDBRANCH  24  28
ENDBRANCH  23  25
ENDBRANCH   1  23
TORSDOF 11
ENDMDL
MODEL 7
REMARK VINA RESULT:      -8.0      5.757     10.609
REMARK  Name = 
REMARK  13 active torsions:
REMARK  status: ('A' for Active; 'I' for Inactive)
REMARK    1  A    between atoms: C_1  and  C_2
REMARK    2  A    between atoms: C_5  and  C_6
REMARK    3  A    between atoms: C_6  and  C_7
REMARK    4  A    between atoms: C_6  and  N_11
REMARK    5  A    between atoms: C_7  and  C_8
REMARK    6  A    between atoms: C_8  and  O_10
REMARK    7  A    between atoms: C_12  and  C_14
REMARK    8  A    between atoms: C_14  and  N_15
REMARK    9  A    between atoms: N_15  and  C_16
REMARK   10  A    between atoms: C_17  and  C_19
REMARK   11  A    between atoms: C_22  and  N_23
REMARK   12  A    between atoms: N_26  and  C_27
REMARK   13  A    between atoms: C_27  and  C_28
REMARK                            x       y       z     vdW  Elec       q    Type
REMARK                         _______ _______ _______ _____ _____    ______ ____
ROOT
ATOM      1  N   UNL     1      10.536  13.851  18.639  0.00  0.00    +0.000 N 
ATOM      2  C   UNL     1      11.345  14.954  18.161  0.00  0.00    +0.000 C 
ATOM      3  C   UNL     1      10.926  12.555  18.257  0.00  0.00    +0.000 C 
ATOM      4  O   UNL     1      11.983  12.381  17.646  0.00  0.00    +0.000 OA
ENDROOT
BRANCH   3   5
ATOM      5  C   UNL     1      10.078  11.422  18.592  0.00  0.00    +0.000 A 
ATOM      6  C   UNL     1       9.953  10.706  19.770  0.00  0.00    +0.000 A 
ATOM      7  C   UNL     1       9.017   9.666  19.522  0.00  0.00    +0.000 A 
ATOM      8  C   UNL     1       8.629   9.800  18.208  0.00  0.00    +0.000 A 
ATOM      9  O   UNL     1       9.271  10.854  17.649  0.00  0.00    +0.000 OA
BRANCH   8  10
ATOM     10  N   UNL     1       7.772   9.052  17.437  0.00  0.00    +0.000 N 
ATOM     11  C   UNL     1       7.582   7.705  17.643  0.00  0.00    +0.000 C 
ATOM     12  O   UNL     1       8.213   6.987  18.413  0.00  0.00    +0.000 OA
ATOM     13  N   UNL     1       6.549   7.200  16.878  0.00  0.00    +0.000 N 
ATOM     14  H   UNL     1       7.240   9.527  16.725  0.00  0.00    +0.000 HD
ATOM     15  H   UNL     1       6.376   7.629  15.983  0.00  0.00    +0.000 HD
BRANCH  13  16
ATOM     16  C   UNL     1       6.243   5.788  16.986  0.00  0.00    +0.000 C 
BRANCH  16  17
ATOM     17  C   UNL     1       4.815   5.527  17.382  0.00  0.00    +0.000 A 
ATOM     18  C   UNL     1       4.005   6.571  17.850  0.00  0.00    +0.000 A 
ATOM     19  C   UNL     1       2.657   6.349  18.139  0.00  0.00    +0.000 A 
ATOM     20  C   UNL     1       2.104   5.082  17.963  0.00  0.00    +0.000 A 
ATOM     21  C   UNL     1       2.897   4.037  17.495  0.00  0.00    +0.000 A 
ATOM     22  C   UNL     1       4.245   4.258  17.205  0.00  0.00    +0.000 A 
ENDBRANCH  16  17
ENDBRANCH  13  16
ENDBRANCH   8  10
ENDBRANCH   3   5
BRANCH   1  23
ATOM     23  C   UNL     1       9.381  14.158  19.496  0.00  0.00    +0.000 C 
BRANCH  23  25
ATOM     24  N   UNL     1       7.153  15.199  19.531  0.00  0.00    +0.000 N 
ATOM     25  C   UNL     1       8.092  14.555  18.742  0.00  0.00    +0.000 C 
ATOM     26  O   UNL     1       7.892  14.337  17.548  0.00  0.00    +0.000 OA
ATOM     27  H   UNL     1       7.451  15.513  20.446  0.00  0.00    +0.000 HD
BRANCH  24  28
ATOM     28  C   UNL     1       5.947  15.783  18.940  0.00  0.00    +0.000 C 
BRANCH  28  33
ATOM     29  C   UNL     1       1.246  12.597  20.371  0.00  0.00    +0.000 C 
ATOM     30  C   UNL     1       2.439  13.423  19.992  0.00  0.00    +0.000 A 
ATOM     31  C   UNL     1       3.238  14.013  20.972  0.00  0.00    +0.000 A 
ATOM     32  C   UNL     1       4.348  14.781  20.611  0.00  0.00    +0.000 A 
ATOM     33  C   UNL     1       4.697  14.974  19.262  0.00  0.00    +0.000 A 
ATOM     34  C   UNL     1       3.897  14.366  18.283  0.00  0.00    +0.000 A 
ATOM     35  C   UNL     1       2.772  13.612  18.646  0.00  0.00    +0.000 A 
ENDBRANCH  28  33
BRANCH  28  36
ATOM     36  C   UNL     1       5.817  17.262  19.329  0.00  0.00    +0.000 C 
BRANCH  36  37
ATOM     37  C   UNL     1       7.151  17.894  19.632  0.00  0.00    +0.000 C 
ATOM     38  O   UNL     1       7.972  18.195  18.784  0.00  0.00    +0.000 OA
BRANCH  37  39
ATOM     39  O   UNL     1       7.356  18.131  20.948  0.00  0.00    +0.000 OA
ATOM     40  H   UNL     1       7.781  18.989  21.149  0.00  0.00    +0.000 HD
ENDBRANCH  37  39
ENDBRANCH  36  37
ENDBRANCH  28  36
ENDBRANCH  24  28
ENDBRANCH  23  25
ENDBRANCH   1  23
TORSDOF 11
ENDMDL
MODEL 8
REMARK VINA RESULT:      -8.0      3.600      5.354
REMARK  Name = 
REMARK  13 active torsions:
REMARK  status: ('A' for Active; 'I' for Inactive)
REMARK    1  A    between atoms: C_1  and  C_2
REMARK    2  A    between atoms: C_5  and  C_6
REMARK    3  A    between atoms: C_6  and  C_7
REMARK    4  A    between atoms: C_6  and  N_11
REMARK    5  A    between atoms: C_7  and  C_8
REMARK    6  A    between atoms: C_8  and  O_10
REMARK    7  A    between atoms: C_12  and  C_14
REMARK    8  A    between atoms: C_14  and  N_15
REMARK    9  A    between atoms: N_15  and  C_16
REMARK   10  A    between atoms: C_17  and  C_19
REMARK   11  A    between atoms: C_22  and  N_23
REMARK   12  A    between atoms: N_26  and  C_27
REMARK   13  A    between atoms: C_27  and  C_28
REMARK                            x       y       z     vdW  Elec       q    Type
REMARK                         _______ _______ _______ _____ _____    ______ ____
ROOT
ATOM      1  N   UNL     1       2.069   6.227  19.696  0.00  0.00    +0.000 N 
ATOM      2  C   UNL     1       2.069   5.104  20.612  0.00  0.00    +0.000 C 
ATOM      3  C   UNL     1       1.801   7.497  20.238  0.00  0.00    +0.000 C 
ATOM      4  O   UNL     1       1.698   7.641  21.459  0.00  0.00    +0.000 OA
ENDROOT
BRANCH   3   5
ATOM      5  C   UNL     1       1.653   8.640  19.351  0.00  0.00    +0.000 A 
ATOM      6  C   UNL     1       2.206   8.894  18.107  0.00  0.00    +0.000 A 
ATOM      7  C   UNL     1       1.765  10.188  17.718  0.00  0.00    +0.000 A 
ATOM      8  C   UNL     1       0.976  10.653  18.746  0.00  0.00    +0.000 A 
ATOM      9  O   UNL     1       0.913   9.723  19.729  0.00  0.00    +0.000 OA
BRANCH   8  10
ATOM     10  N   UNL     1       0.322  11.850  18.914  0.00  0.00    +0.000 N 
ATOM     11  C   UNL     1       0.969  12.991  19.329  0.00  0.00    +0.000 C 
ATOM     12  O   UNL     1       2.131  13.072  19.718  0.00  0.00    +0.000 OA
ATOM     13  N   UNL     1       0.161  14.108  19.252  0.00  0.00    +0.000 N 
ATOM     14  H   UNL     1      -0.658  11.890  18.682  0.00  0.00    +0.000 HD
ATOM     15  H   UNL     1      -0.829  13.980  19.390  0.00  0.00    +0.000 HD
BRANCH  13  16
ATOM     16  C   UNL     1       0.710  15.382  19.668  0.00  0.00    +0.000 C 
BRANCH  16  17
ATOM     17  C   UNL     1       0.697  16.413  18.572  0.00  0.00    +0.000 A 
ATOM     18  C   UNL     1      -0.502  17.028  18.189  0.00  0.00    +0.000 A 
ATOM     19  C   UNL     1      -0.505  18.043  17.230  0.00  0.00    +0.000 A 
ATOM     20  C   UNL     1       0.691  18.455  16.645  0.00  0.00    +0.000 A 
ATOM     21  C   UNL     1       1.891  17.854  17.020  0.00  0.00    +0.000 A 
ATOM     22  C   UNL     1       1.895  16.839  17.978  0.00  0.00    +0.000 A 
ENDBRANCH  16  17
ENDBRANCH  13  16
ENDBRANCH   8  10
ENDBRANCH   3   5
BRANCH   1  23
ATOM     23  C   UNL     1       2.360   5.968  18.279  0.00  0.00    +0.000 C 
BRANCH  23  25
ATOM     24  N   UNL     1       4.595   5.799  17.268  0.00  0.00    +0.000 N 
ATOM     25  C   UNL     1       3.634   5.136  18.013  0.00  0.00    +0.000 C 
ATOM     26  O   UNL     1       3.810   3.988  18.418  0.00  0.00    +0.000 OA
ATOM     27  H   UNL     1       4.472   6.794  17.129  0.00  0.00    +0.000 HD
BRANCH  24  28
ATOM     28  C   UNL     1       5.923   5.216  17.062  0.00  0.00    +0.000 C 
BRANCH  28  33
ATOM     29  C   UNL     1       6.861   3.676  11.489  0.00  0.00    +0.000 C 
ATOM     30  C   UNL     1       6.616   4.052  12.921  0.00  0.00    +0.000 A 
ATOM     31  C   UNL     1       7.545   4.820  13.625  0.00  0.00    +0.000 A 
ATOM     32  C   UNL     1       7.310   5.166  14.958  0.00  0.00    +0.000 A 
ATOM     33  C   UNL     1       6.137   4.764  15.623  0.00  0.00    +0.000 A 
ATOM     34  C   UNL     1       5.202   4.004  14.904  0.00  0.00    +0.000 A 
ATOM     35  C   UNL     1       5.448   3.640  13.573  0.00  0.00    +0.000 A 
ENDBRANCH  28  33
BRANCH  28  36
ATOM     36  C   UNL     1       7.016   6.173  17.556  0.00  0.00    +0.000 C 
BRANCH  36  37
ATOM     37  C   UNL     1       7.372   5.938  19.001  0.00  0.00    +0.000 C 
ATOM     38  O   UNL     1       6.758   5.191  19.742  0.00  0.00    +0.000 OA
BRANCH  37  39
ATOM     39  O   UNL     1       8.470   6.615  19.410  0.00  0.00    +0.000 OA
ATOM     40  H   UNL     1       8.612   6.619  20.378  0.00  0.00    +0.000 HD
ENDBRANCH  37  39
ENDBRANCH  36  37
ENDBRANCH  28  36
ENDBRANCH  24  28
ENDBRANCH  23  25
ENDBRANCH   1  23
TORSDOF 11
ENDMDL
MODEL 9
REMARK VINA RESULT:      -8.0      3.306     10.967
REMARK  Name = 
REMARK  13 active torsions:
REMARK  status: ('A' for Active; 'I' for Inactive)
REMARK    1  A    between atoms: C_1  and  C_2
REMARK    2  A    between atoms: C_5  and  C_6
REMARK    3  A    between atoms: C_6  and  C_7
REMARK    4  A    between atoms: C_6  and  N_11
REMARK    5  A    between atoms: C_7  and  C_8
REMARK    6  A    between atoms: C_8  and  O_10
REMARK    7  A    between atoms: C_12  and  C_14
REMARK    8  A    between atoms: C_14  and  N_15
REMARK    9  A    between atoms: N_15  and  C_16
REMARK   10  A    between atoms: C_17  and  C_19
REMARK   11  A    between atoms: C_22  and  N_23
REMARK   12  A    between atoms: N_26  and  C_27
REMARK   13  A    between atoms: C_27  and  C_28
REMARK                            x       y       z     vdW  Elec       q    Type
REMARK                         _______ _______ _______ _____ _____    ______ ____
ROOT
ATOM      1  N   UNL     1      -0.071  11.373  18.553  0.00  0.00    +0.000 N 
ATOM      2  C   UNL     1      -1.227  12.214  18.314  0.00  0.00    +0.000 C 
ATOM      3  C   UNL     1      -0.099  10.075  18.015  0.00  0.00    +0.000 C 
ATOM      4  O   UNL     1      -1.022   9.731  17.271  0.00  0.00    +0.000 OA
ENDROOT
BRANCH   3   5
ATOM      5  C   UNL     1       0.969   9.141  18.335  0.00  0.00    +0.000 A 
ATOM      6  C   UNL     1       1.264   8.477  19.514  0.00  0.00    +0.000 A 
ATOM      7  C   UNL     1       2.450   7.732  19.281  0.00  0.00    +0.000 A 
ATOM      8  C   UNL     1       2.817   7.986  17.979  0.00  0.00    +0.000 A 
ATOM      9  O   UNL     1       1.928   8.837  17.413  0.00  0.00    +0.000 OA
BRANCH   8  10
ATOM     10  N   UNL     1       3.895   7.557  17.242  0.00  0.00    +0.000 N 
ATOM     11  C   UNL     1       4.215   6.225  17.113  0.00  0.00    +0.000 C 
ATOM     12  O   UNL     1       3.697   5.288  17.713  0.00  0.00    +0.000 OA
ATOM     13  N   UNL     1       5.217   6.015  16.186  0.00  0.00    +0.000 N 
ATOM     14  H   UNL     1       4.437   8.249  16.750  0.00  0.00    +0.000 HD
ATOM     15  H   UNL     1       5.907   6.740  16.071  0.00  0.00    +0.000 HD
BRANCH  13  16
ATOM     16  C   UNL     1       5.664   4.656  15.955  0.00  0.00    +0.000 C 
BRANCH  16  17
ATOM     17  C   UNL     1       6.204   4.445  14.566  0.00  0.00    +0.000 A 
ATOM     18  C   UNL     1       5.534   3.609  13.663  0.00  0.00    +0.000 A 
ATOM     19  C   UNL     1       5.986   3.477  12.348  0.00  0.00    +0.000 A 
ATOM     20  C   UNL     1       7.112   4.180  11.923  0.00  0.00    +0.000 A 
ATOM     21  C   UNL     1       7.785   5.017  12.810  0.00  0.00    +0.000 A 
ATOM     22  C   UNL     1       7.333   5.151  14.124  0.00  0.00    +0.000 A 
ENDBRANCH  16  17
ENDBRANCH  13  16
ENDBRANCH   8  10
ENDBRANCH   3   5
BRANCH   1  23
ATOM     23  C   UNL     1       1.049  11.935  19.322  0.00  0.00    +0.000 C 
BRANCH  23  25
ATOM     24  N   UNL     1      -0.382  11.660  21.303  0.00  0.00    +0.000 N 
ATOM     25  C   UNL     1       0.714  12.325  20.779  0.00  0.00    +0.000 C 
ATOM     26  O   UNL     1       1.349  13.145  21.441  0.00  0.00    +0.000 OA
ATOM     27  H   UNL     1      -0.741  10.871  20.781  0.00  0.00    +0.000 HD
BRANCH  24  28
ATOM     28  C   UNL     1      -0.739  11.793  22.718  0.00  0.00    +0.000 C 
BRANCH  28  33
ATOM     29  C   UNL     1      -5.075  15.590  23.758  0.00  0.00    +0.000 C 
ATOM     30  C   UNL     1      -3.969  14.618  23.473  0.00  0.00    +0.000 A 
ATOM     31  C   UNL     1      -2.688  14.824  23.987  0.00  0.00    +0.000 A 
ATOM     32  C   UNL     1      -1.663  13.914  23.717  0.00  0.00    +0.000 A 
ATOM     33  C   UNL     1      -1.889  12.768  22.934  0.00  0.00    +0.000 A 
ATOM     34  C   UNL     1      -3.183  12.561  22.431  0.00  0.00    +0.000 A 
ATOM     35  C   UNL     1      -4.206  13.484  22.686  0.00  0.00    +0.000 A 
ENDBRANCH  28  33
BRANCH  28  36
ATOM     36  C   UNL     1      -0.998  10.416  23.341  0.00  0.00    +0.000 C 
BRANCH  36  37
ATOM     37  C   UNL     1      -0.078   9.356  22.793  0.00  0.00    +0.000 C 
ATOM     38  O   UNL     1       1.136   9.392  22.886  0.00  0.00    +0.000 OA
BRANCH  37  39
ATOM     39  O   UNL     1      -0.724   8.326  22.199  0.00  0.00    +0.000 OA
ATOM     40  H   UNL     1      -1.394   7.886  22.760  0.00  0.00    +0.000 HD
ENDBRANCH  37  39
ENDBRANCH  36  37
ENDBRANCH  28  36
ENDBRANCH  24  28
ENDBRANCH  23  25
ENDBRANCH   1  23
TORSDOF 11
ENDMDL
