MODEL 1
REMARK VINA RESULT:      -7.0      0.000      0.000
REMARK  Name = 
REMARK  4 active torsions:
REMARK  status: ('A' for Active; 'I' for Inactive)
REMARK    1  A    between atoms: C_1  and  C_2
REMARK    2  A    between atoms: C_2  and  O_3
REMARK    3  A    between atoms: O_3  and  C_4
REMARK    4  A    between atoms: C_9  and  N_10
REMARK                            x       y       z     vdW  Elec       q    Type
REMARK                         _______ _______ _______ _____ _____    ______ ____
ROOT
ATOM      1  N   UNL     1       3.738   3.851  17.596  0.00  0.00    +0.000 N 
ATOM      2  C   UNL     1       5.093   3.987  17.445  0.00  0.00    +0.000 C 
ATOM      3  N   UNL     1       6.018   3.816  18.334  0.00  0.00    +0.000 NA
ATOM      4  N   UNL     1       5.455   4.377  16.179  0.00  0.00    +0.000 N 
ATOM      5  C   UNL     1       6.684   4.693  15.684  0.00  0.00    +0.000 C 
ATOM      6  N   UNL     1       7.810   4.587  16.292  0.00  0.00    +0.000 NA
ATOM      7  N   UNL     1       6.685   5.175  14.420  0.00  0.00    +0.000 N 
ATOM      8  H   UNL     1       3.221   3.708  16.742  0.00  0.00    +0.000 HD
ATOM      9  H   UNL     1       5.558   3.537  19.208  0.00  0.00    +0.000 HD
ATOM     10  H   UNL     1       4.720   4.816  15.645  0.00  0.00    +0.000 HD
ATOM     11  H   UNL     1       7.565   4.223  17.239  0.00  0.00    +0.000 HD
ATOM     12  H   UNL     1       6.359   4.493  13.746  0.00  0.00    +0.000 HD
ATOM     13  H   UNL     1       7.659   5.385  14.194  0.00  0.00    +0.000 HD
ENDROOT
BRANCH   1  19
ATOM     14  C   UNL     1       2.496   4.963  19.505  0.00  0.00    +0.000 A 
ATOM     15  C   UNL     1       1.526   4.828  20.513  0.00  0.00    +0.000 A 
ATOM     16  C   UNL     1       0.980   3.584  20.821  0.00  0.00    +0.000 A 
ATOM     17  C   UNL     1       1.380   2.468  20.103  0.00  0.00    +0.000 A 
ATOM     18  C   UNL     1       2.308   2.603  19.067  0.00  0.00    +0.000 A 
ATOM     19  C   UNL     1       2.889   3.850  18.734  0.00  0.00    +0.000 A 
BRANCH  14  20
ATOM     20  O   UNL     1       3.105   6.164  19.261  0.00  0.00    +0.000 OA
BRANCH  20  22
ATOM     21  C   UNL     1       2.415   8.091  18.045  0.00  0.00    +0.000 C 
ATOM     22  C   UNL     1       2.288   7.333  19.354  0.00  0.00    +0.000 C 
ENDBRANCH  20  22
ENDBRANCH  14  20
ENDBRANCH   1  19
TORSDOF 3
ENDMDL
MODEL 2
REMARK VINA RESULT:      -7.0      1.076      1.095
REMARK  Name = 
REMARK  4 active torsions:
REMARK  status: ('A' for Active; 'I' for Inactive)
REMARK    1  A    between atoms: C_1  and  C_2
REMARK    2  A    between atoms: C_2  and  O_3
REMARK    3  A    between atoms: O_3  and  C_4
REMARK    4  A    between atoms: C_9  and  N_10
REMARK                            x       y       z     vdW  Elec       q    Type
REMARK                         _______ _______ _______ _____ _____    ______ ____
ROOT
ATOM      1  N   UNL     1       4.550   3.364  18.136  0.00  0.00    +0.000 N 
ATOM      2  C   UNL     1       5.447   4.159  17.471  0.00  0.00    +0.000 C 
ATOM      3  N   UNL     1       6.014   5.246  17.886  0.00  0.00    +0.000 NA
ATOM      4  N   UNL     1       5.727   3.708  16.204  0.00  0.00    +0.000 N 
ATOM      5  C   UNL     1       6.494   4.272  15.230  0.00  0.00    +0.000 C 
ATOM      6  N   UNL     1       7.221   5.326  15.335  0.00  0.00    +0.000 NA
ATOM      7  N   UNL     1       6.456   3.640  14.034  0.00  0.00    +0.000 N 
ATOM      8  H   UNL     1       4.475   2.418  17.793  0.00  0.00    +0.000 HD
ATOM      9  H   UNL     1       5.679   5.423  18.840  0.00  0.00    +0.000 HD
ATOM     10  H   UNL     1       5.036   3.087  15.814  0.00  0.00    +0.000 HD
ATOM     11  H   UNL     1       7.078   5.648  16.316  0.00  0.00    +0.000 HD
ATOM     12  H   UNL     1       6.838   2.703  14.081  0.00  0.00    +0.000 HD
ATOM     13  H   UNL     1       7.053   4.180  13.406  0.00  0.00    +0.000 HD
ENDROOT
BRANCH   1  19
ATOM     14  C   UNL     1       2.820   4.683  19.436  0.00  0.00    +0.000 A 
ATOM     15  C   UNL     1       1.920   4.697  20.515  0.00  0.00    +0.000 A 
ATOM     16  C   UNL     1       1.917   3.673  21.458  0.00  0.00    +0.000 A 
ATOM     17  C   UNL     1       2.795   2.611  21.315  0.00  0.00    +0.000 A 
ATOM     18  C   UNL     1       3.659   2.566  20.217  0.00  0.00    +0.000 A 
ATOM     19  C   UNL     1       3.695   3.594  19.245  0.00  0.00    +0.000 A 
BRANCH  14  20
ATOM     20  O   UNL     1       2.894   5.731  18.558  0.00  0.00    +0.000 OA
BRANCH  20  22
ATOM     21  C   UNL     1       2.495   7.983  17.897  0.00  0.00    +0.000 C 
ATOM     22  C   UNL     1       2.582   7.028  19.072  0.00  0.00    +0.000 C 
ENDBRANCH  20  22
ENDBRANCH  14  20
ENDBRANCH   1  19
TORSDOF 3
ENDMDL
MODEL 3
REMARK VINA RESULT:      -7.0      2.362      3.683
REMARK  Name = 
REMARK  4 active torsions:
REMARK  status: ('A' for Active; 'I' for Inactive)
REMARK    1  A    between atoms: C_1  and  C_2
REMARK    2  A    between atoms: C_2  and  O_3
REMARK    3  A    between atoms: O_3  and  C_4
REMARK    4  A    between atoms: C_9  and  N_10
REMARK                            x       y       z     vdW  Elec       q    Type
REMARK                         _______ _______ _______ _____ _____    ______ ____
ROOT
ATOM      1  N   UNL     1       5.666   3.593  16.108  0.00  0.00    +0.000 N 
ATOM      2  C   UNL     1       6.223   4.184  15.004  0.00  0.00    +0.000 C 
ATOM      3  N   UNL     1       6.629   5.406  14.870  0.00  0.00    +0.000 NA
ATOM      4  N   UNL     1       6.317   3.333  13.930  0.00  0.00    +0.000 N 
ATOM      5  C   UNL     1       6.729   3.583  12.656  0.00  0.00    +0.000 C 
ATOM      6  N   UNL     1       7.231   4.678  12.209  0.00  0.00    +0.000 NA
ATOM      7  N   UNL     1       6.572   2.554  11.791  0.00  0.00    +0.000 N 
ATOM      8  H   UNL     1       5.717   2.585  16.129  0.00  0.00    +0.000 HD
ATOM      9  H   UNL     1       6.472   5.883  15.766  0.00  0.00    +0.000 HD
ATOM     10  H   UNL     1       5.701   2.536  13.967  0.00  0.00    +0.000 HD
ATOM     11  H   UNL     1       7.234   5.321  13.030  0.00  0.00    +0.000 HD
ATOM     12  H   UNL     1       7.138   1.752  12.039  0.00  0.00    +0.000 HD
ATOM     13  H   UNL     1       6.900   2.890  10.884  0.00  0.00    +0.000 HD
ENDROOT
BRANCH   1  19
ATOM     14  C   UNL     1       5.660   4.704  18.385  0.00  0.00    +0.000 A 
ATOM     15  C   UNL     1       4.895   5.316  19.393  0.00  0.00    +0.000 A 
ATOM     16  C   UNL     1       3.503   5.296  19.347  0.00  0.00    +0.000 A 
ATOM     17  C   UNL     1       2.865   4.688  18.277  0.00  0.00    +0.000 A 
ATOM     18  C   UNL     1       3.621   4.121  17.247  0.00  0.00    +0.000 A 
ATOM     19  C   UNL     1       5.035   4.115  17.267  0.00  0.00    +0.000 A 
BRANCH  14  20
ATOM     20  O   UNL     1       7.025   4.637  18.472  0.00  0.00    +0.000 OA
BRANCH  20  22
ATOM     21  C   UNL     1       7.784   6.855  18.058  0.00  0.00    +0.000 C 
ATOM     22  C   UNL     1       7.689   5.743  19.086  0.00  0.00    +0.000 C 
ENDBRANCH  20  22
ENDBRANCH  14  20
ENDBRANCH   1  19
TORSDOF 3
ENDMDL
MODEL 4
REMARK VINA RESULT:      -6.9      1.172      2.868
REMARK  Name = 
REMARK  4 active torsions:
REMARK  status: ('A' for Active; 'I' for Inactive)
REMARK    1  A    between atoms: C_1  and  C_2
REMARK    2  A    between atoms: C_2  and  O_3
REMARK    3  A    between atoms: O_3  and  C_4
REMARK    4  A    between atoms: C_9  and  N_10
REMARK                            x       y       z     vdW  Elec       q    Type
REMARK                         _______ _______ _______ _____ _____    ______ ____
ROOT
ATOM      1  N   UNL     1       3.930   5.322  17.709  0.00  0.00    +0.000 N 
ATOM      2  C   UNL     1       5.203   4.815  17.718  0.00  0.00    +0.000 C 
ATOM      3  N   UNL     1       5.817   4.212  18.684  0.00  0.00    +0.000 NA
ATOM      4  N   UNL     1       5.870   5.021  16.535  0.00  0.00    +0.000 N 
ATOM      5  C   UNL     1       7.161   4.740  16.205  0.00  0.00    +0.000 C 
ATOM      6  N   UNL     1       8.020   4.108  16.921  0.00  0.00    +0.000 NA
ATOM      7  N   UNL     1       7.554   5.196  14.992  0.00  0.00    +0.000 N 
ATOM      8  H   UNL     1       3.525   5.455  16.794  0.00  0.00    +0.000 HD
ATOM      9  H   UNL     1       5.167   4.160  19.477  0.00  0.00    +0.000 HD
ATOM     10  H   UNL     1       5.498   5.763  15.963  0.00  0.00    +0.000 HD
ATOM     11  H   UNL     1       7.511   3.879  17.802  0.00  0.00    +0.000 HD
ATOM     12  H   UNL     1       7.046   4.759  14.233  0.00  0.00    +0.000 HD
ATOM     13  H   UNL     1       8.536   4.933  14.893  0.00  0.00    +0.000 HD
ENDROOT
BRANCH   1  19
ATOM     14  C   UNL     1       2.521   4.860  19.764  0.00  0.00    +0.000 A 
ATOM     15  C   UNL     1       1.757   5.402  20.812  0.00  0.00    +0.000 A 
ATOM     16  C   UNL     1       1.427   6.754  20.832  0.00  0.00    +0.000 A 
ATOM     17  C   UNL     1       1.882   7.583  19.818  0.00  0.00    +0.000 A 
ATOM     18  C   UNL     1       2.683   7.059  18.799  0.00  0.00    +0.000 A 
ATOM     19  C   UNL     1       3.030   5.689  18.743  0.00  0.00    +0.000 A 
BRANCH  14  20
ATOM     20  O   UNL     1       2.770   3.516  19.687  0.00  0.00    +0.000 OA
BRANCH  20  22
ATOM     21  C   UNL     1       0.830   2.486  18.767  0.00  0.00    +0.000 C 
ATOM     22  C   UNL     1       1.688   2.639  20.010  0.00  0.00    +0.000 C 
ENDBRANCH  20  22
ENDBRANCH  14  20
ENDBRANCH   1  19
TORSDOF 3
ENDMDL
MODEL 5
REMARK VINA RESULT:      -6.9      1.333      2.888
REMARK  Name = 
REMARK  4 active torsions:
REMARK  status: ('A' for Active; 'I' for Inactive)
REMARK    1  A    between atoms: C_1  and  C_2
REMARK    2  A    between atoms: C_2  and  O_3
REMARK    3  A    between atoms: O_3  and  C_4
REMARK    4  A    between atoms: C_9  and  N_10
REMARK                            x       y       z     vdW  Elec       q    Type
REMARK                         _______ _______ _______ _____ _____    ______ ____
ROOT
ATOM      1  N   UNL     1       3.781   4.877  17.503  0.00  0.00    +0.000 N 
ATOM      2  C   UNL     1       5.108   4.538  17.527  0.00  0.00    +0.000 C 
ATOM      3  N   UNL     1       5.781   4.009  18.497  0.00  0.00    +0.000 NA
ATOM      4  N   UNL     1       5.760   4.839  16.356  0.00  0.00    +0.000 N 
ATOM      5  C   UNL     1       7.081   4.729  16.043  0.00  0.00    +0.000 C 
ATOM      6  N   UNL     1       8.004   4.205  16.767  0.00  0.00    +0.000 NA
ATOM      7  N   UNL     1       7.429   5.244  14.840  0.00  0.00    +0.000 N 
ATOM      8  H   UNL     1       3.375   4.967  16.583  0.00  0.00    +0.000 HD
ATOM      9  H   UNL     1       5.132   3.865  19.280  0.00  0.00    +0.000 HD
ATOM     10  H   UNL     1       5.304   5.533  15.784  0.00  0.00    +0.000 HD
ATOM     11  H   UNL     1       7.515   3.904  17.638  0.00  0.00    +0.000 HD
ATOM     12  H   UNL     1       6.992   4.754  14.070  0.00  0.00    +0.000 HD
ATOM     13  H   UNL     1       8.438   5.111  14.753  0.00  0.00    +0.000 HD
ENDROOT
BRANCH   1  19
ATOM     14  C   UNL     1       1.867   4.210  19.024  0.00  0.00    +0.000 A 
ATOM     15  C   UNL     1       1.089   4.537  20.148  0.00  0.00    +0.000 A 
ATOM     16  C   UNL     1       1.199   5.786  20.754  0.00  0.00    +0.000 A 
ATOM     17  C   UNL     1       2.107   6.708  20.259  0.00  0.00    +0.000 A 
ATOM     18  C   UNL     1       2.918   6.370  19.172  0.00  0.00    +0.000 A 
ATOM     19  C   UNL     1       2.827   5.115  18.526  0.00  0.00    +0.000 A 
BRANCH  14  20
ATOM     20  O   UNL     1       1.698   3.022  18.365  0.00  0.00    +0.000 OA
BRANCH  20  22
ATOM     21  C   UNL     1       3.439   1.401  18.476  0.00  0.00    +0.000 C 
ATOM     22  C   UNL     1       2.105   1.837  19.054  0.00  0.00    +0.000 C 
ENDBRANCH  20  22
ENDBRANCH  14  20
ENDBRANCH   1  19
TORSDOF 3
ENDMDL
MODEL 6
REMARK VINA RESULT:      -6.7      2.055      2.929
REMARK  Name = 
REMARK  4 active torsions:
REMARK  status: ('A' for Active; 'I' for Inactive)
REMARK    1  A    between atoms: C_1  and  C_2
REMARK    2  A    between atoms: C_2  and  O_3
REMARK    3  A    between atoms: O_3  and  C_4
REMARK    4  A    between atoms: C_9  and  N_10
REMARK                            x       y       z     vdW  Elec       q    Type
REMARK                         _______ _______ _______ _____ _____    ______ ____
ROOT
ATOM      1  N   UNL     1       5.017   3.327  16.441  0.00  0.00    +0.000 N 
ATOM      2  C   UNL     1       5.802   4.121  15.647  0.00  0.00    +0.000 C 
ATOM      3  N   UNL     1       6.253   5.308  15.899  0.00  0.00    +0.000 NA
ATOM      4  N   UNL     1       6.098   3.544  14.436  0.00  0.00    +0.000 N 
ATOM      5  C   UNL     1       6.770   4.058  13.369  0.00  0.00    +0.000 C 
ATOM      6  N   UNL     1       7.377   5.189  13.311  0.00  0.00    +0.000 NA
ATOM      7  N   UNL     1       6.773   3.276  12.264  0.00  0.00    +0.000 N 
ATOM      8  H   UNL     1       5.040   2.342  16.223  0.00  0.00    +0.000 HD
ATOM      9  H   UNL     1       5.925   5.569  16.837  0.00  0.00    +0.000 HD
ATOM     10  H   UNL     1       5.471   2.807  14.155  0.00  0.00    +0.000 HD
ATOM     11  H   UNL     1       7.224   5.617  14.250  0.00  0.00    +0.000 HD
ATOM     12  H   UNL     1       7.258   2.400  12.412  0.00  0.00    +0.000 HD
ATOM     13  H   UNL     1       7.288   3.793  11.549  0.00  0.00    +0.000 HD
ENDROOT
BRANCH   1  19
ATOM     14  C   UNL     1       4.550   4.130  18.798  0.00  0.00    +0.000 A 
ATOM     15  C   UNL     1       3.578   4.496  19.745  0.00  0.00    +0.000 A 
ATOM     16  C   UNL     1       2.224   4.283  19.499  0.00  0.00    +0.000 A 
ATOM     17  C   UNL     1       1.828   3.730  18.291  0.00  0.00    +0.000 A 
ATOM     18  C   UNL     1       2.787   3.410  17.326  0.00  0.00    +0.000 A 
ATOM     19  C   UNL     1       4.171   3.603  17.547  0.00  0.00    +0.000 A 
BRANCH  14  20
ATOM     20  O   UNL     1       5.886   4.248  19.071  0.00  0.00    +0.000 OA
BRANCH  20  22
ATOM     21  C   UNL     1       7.855   5.586  19.087  0.00  0.00    +0.000 C 
ATOM     22  C   UNL     1       6.369   5.555  19.390  0.00  0.00    +0.000 C 
ENDBRANCH  20  22
ENDBRANCH  14  20
ENDBRANCH   1  19
TORSDOF 3
ENDMDL
MODEL 7
REMARK VINA RESULT:      -6.6      1.811      2.021
REMARK  Name = 
REMARK  4 active torsions:
REMARK  status: ('A' for Active; 'I' for Inactive)
REMARK    1  A    between atoms: C_1  and  C_2
REMARK    2  A    between atoms: C_2  and  O_3
REMARK    3  A    between atoms: O_3  and  C_4
REMARK    4  A    between atoms: C_9  and  N_10
REMARK                            x       y       z     vdW  Elec       q    Type
REMARK                         _______ _______ _______ _____ _____    ______ ____
ROOT
ATOM      1  N   UNL     1       4.302   4.807  18.078  0.00  0.00    +0.000 N 
ATOM      2  C   UNL     1       5.527   5.177  18.567  0.00  0.00    +0.000 C 
ATOM      3  N   UNL     1       6.108   4.780  19.654  0.00  0.00    +0.000 NA
ATOM      4  N   UNL     1       6.164   6.103  17.777  0.00  0.00    +0.000 N 
ATOM      5  C   UNL     1       7.339   6.759  17.981  0.00  0.00    +0.000 C 
ATOM      6  N   UNL     1       8.176   6.564  18.936  0.00  0.00    +0.000 NA
ATOM      7  N   UNL     1       7.625   7.718  17.070  0.00  0.00    +0.000 N 
ATOM      8  H   UNL     1       4.167   4.963  17.090  0.00  0.00    +0.000 HD
ATOM      9  H   UNL     1       5.483   4.103  20.107  0.00  0.00    +0.000 HD
ATOM     10  H   UNL     1       5.557   6.619  17.158  0.00  0.00    +0.000 HD
ATOM     11  H   UNL     1       7.743   5.811  19.514  0.00  0.00    +0.000 HD
ATOM     12  H   UNL     1       7.757   7.340  16.140  0.00  0.00    +0.000 HD
ATOM     13  H   UNL     1       8.512   8.133  17.359  0.00  0.00    +0.000 HD
ENDROOT
BRANCH   1  19
ATOM     14  C   UNL     1       2.334   4.783  19.674  0.00  0.00    +0.000 A 
ATOM     15  C   UNL     1       1.146   4.143  20.066  0.00  0.00    +0.000 A 
ATOM     16  C   UNL     1       0.791   2.905  19.535  0.00  0.00    +0.000 A 
ATOM     17  C   UNL     1       1.607   2.311  18.586  0.00  0.00    +0.000 A 
ATOM     18  C   UNL     1       2.764   2.966  18.156  0.00  0.00    +0.000 A 
ATOM     19  C   UNL     1       3.160   4.218  18.681  0.00  0.00    +0.000 A 
BRANCH  14  20
ATOM     20  O   UNL     1       2.738   5.952  20.261  0.00  0.00    +0.000 OA
BRANCH  20  22
ATOM     21  C   UNL     1       1.468   7.881  20.840  0.00  0.00    +0.000 C 
ATOM     22  C   UNL     1       2.203   7.163  19.723  0.00  0.00    +0.000 C 
ENDBRANCH  20  22
ENDBRANCH  14  20
ENDBRANCH   1  19
TORSDOF 3
ENDMDL
MODEL 8
REMARK VINA RESULT:      -6.6      2.776      5.983
REMARK  Name = 
REMARK  4 active torsions:
REMARK  status: ('A' for Active; 'I' for Inactive)
REMARK    1  A    between atoms: C_1  and  C_2
REMARK    2  A    between atoms: C_2  and  O_3
REMARK    3  A    between atoms: O_3  and  C_4
REMARK    4  A    between atoms: C_9  and  N_10
REMARK                            x       y       z     vdW  Elec       q    Type
REMARK                         _______ _______ _______ _____ _____    ______ ____
ROOT
ATOM      1  N   UNL     1       4.989   3.993  19.268  0.00  0.00    +0.000 N 
ATOM      2  C   UNL     1       3.622   4.014  19.371  0.00  0.00    +0.000 C 
ATOM      3  N   UNL     1       2.774   4.653  18.631  0.00  0.00    +0.000 NA
ATOM      4  N   UNL     1       3.151   3.265  20.422  0.00  0.00    +0.000 N 
ATOM      5  C   UNL     1       1.879   3.119  20.884  0.00  0.00    +0.000 C 
ATOM      6  N   UNL     1       0.807   3.584  20.351  0.00  0.00    +0.000 NA
ATOM      7  N   UNL     1       1.765   2.412  22.033  0.00  0.00    +0.000 N 
ATOM      8  H   UNL     1       5.442   3.207  19.710  0.00  0.00    +0.000 HD
ATOM      9  H   UNL     1       3.309   5.155  17.913  0.00  0.00    +0.000 HD
ATOM     10  H   UNL     1       3.829   3.079  21.145  0.00  0.00    +0.000 HD
ATOM     11  H   UNL     1       1.136   4.101  19.507  0.00  0.00    +0.000 HD
ATOM     12  H   UNL     1       2.058   1.449  21.925  0.00  0.00    +0.000 HD
ATOM     13  H   UNL     1       0.771   2.403  22.266  0.00  0.00    +0.000 HD
ENDROOT
BRANCH   1  19
ATOM     14  C   UNL     1       5.932   5.261  17.288  0.00  0.00    +0.000 A 
ATOM     15  C   UNL     1       6.832   6.243  16.841  0.00  0.00    +0.000 A 
ATOM     16  C   UNL     1       7.780   6.790  17.702  0.00  0.00    +0.000 A 
ATOM     17  C   UNL     1       7.817   6.380  19.025  0.00  0.00    +0.000 A 
ATOM     18  C   UNL     1       6.892   5.439  19.488  0.00  0.00    +0.000 A 
ATOM     19  C   UNL     1       5.923   4.856  18.638  0.00  0.00    +0.000 A 
BRANCH  14  20
ATOM     20  O   UNL     1       5.061   4.650  16.425  0.00  0.00    +0.000 OA
BRANCH  20  22
ATOM     21  C   UNL     1       5.608   4.188  14.155  0.00  0.00    +0.000 C 
ATOM     22  C   UNL     1       5.601   3.640  15.570  0.00  0.00    +0.000 C 
ENDBRANCH  20  22
ENDBRANCH  14  20
ENDBRANCH   1  19
TORSDOF 3
ENDMDL
MODEL 9
REMARK VINA RESULT:      -6.6      1.379      3.264
REMARK  Name = 
REMARK  4 active torsions:
REMARK  status: ('A' for Active; 'I' for Inactive)
REMARK    1  A    between atoms: C_1  and  C_2
REMARK    2  A    between atoms: C_2  and  O_3
REMARK    3  A    between atoms: O_3  and  C_4
REMARK    4  A    between atoms: C_9  and  N_10
REMARK                            x       y       z     vdW  Elec       q    Type
REMARK                         _______ _______ _______ _____ _____    ______ ____
ROOT
ATOM      1  N   UNL     1       3.840   6.087  17.484  0.00  0.00    +0.000 N 
ATOM      2  C   UNL     1       5.065   5.494  17.643  0.00  0.00    +0.000 C 
ATOM      3  N   UNL     1       5.618   5.082  18.738  0.00  0.00    +0.000 NA
ATOM      4  N   UNL     1       5.757   5.367  16.463  0.00  0.00    +0.000 N 
ATOM      5  C   UNL     1       7.022   4.913  16.242  0.00  0.00    +0.000 C 
ATOM      6  N   UNL     1       7.818   4.395  17.107  0.00  0.00    +0.000 NA
ATOM      7  N   UNL     1       7.463   5.044  14.969  0.00  0.00    +0.000 N 
ATOM      8  H   UNL     1       3.456   6.039  16.552  0.00  0.00    +0.000 HD
ATOM      9  H   UNL     1       4.959   5.266  19.504  0.00  0.00    +0.000 HD
ATOM     10  H   UNL     1       5.455   5.985  15.727  0.00  0.00    +0.000 HD
ATOM     11  H   UNL     1       7.283   4.417  18.002  0.00  0.00    +0.000 HD
ATOM     12  H   UNL     1       6.925   4.488  14.315  0.00  0.00    +0.000 HD
ATOM     13  H   UNL     1       8.419   4.687  14.958  0.00  0.00    +0.000 HD
ENDROOT
BRANCH   1  19
ATOM     14  C   UNL     1       2.508   6.286  19.630  0.00  0.00    +0.000 A 
ATOM     15  C   UNL     1       1.767   7.124  20.480  0.00  0.00    +0.000 A 
ATOM     16  C   UNL     1       1.411   8.411  20.084  0.00  0.00    +0.000 A 
ATOM     17  C   UNL     1       1.816   8.880  18.845  0.00  0.00    +0.000 A 
ATOM     18  C   UNL     1       2.595   8.069  18.015  0.00  0.00    +0.000 A 
ATOM     19  C   UNL     1       2.967   6.754  18.381  0.00  0.00    +0.000 A 
BRANCH  14  20
ATOM     20  O   UNL     1       2.780   4.989  19.972  0.00  0.00    +0.000 OA
BRANCH  20  22
ATOM     21  C   UNL     1       1.220   3.322  20.645  0.00  0.00    +0.000 C 
ATOM     22  C   UNL     1       2.100   4.465  21.115  0.00  0.00    +0.000 C 
ENDBRANCH  20  22
ENDBRANCH  14  20
ENDBRANCH   1  19
TORSDOF 3
ENDMDL
