MODEL 1
REMARK VINA RESULT:      -7.8      0.000      0.000
REMARK  Name = 
REMARK  4 active torsions:
REMARK  status: ('A' for Active; 'I' for Inactive)
REMARK    1  A    between atoms: C_1  and  O_2
REMARK    2  A    between atoms: O_2  and  C_3
REMARK    3  A    between atoms: C_6  and  C_7
REMARK    4  A    between atoms: N_9  and  C_10
REMARK                            x       y       z     vdW  Elec       q    Type
REMARK                         _______ _______ _______ _____ _____    ______ ____
ROOT
ATOM      1  C   UNL     1       7.916   7.911  17.988  0.00  0.00    +0.000 C 
ATOM      2  O   UNL     1       8.272   7.053  18.784  0.00  0.00    +0.000 OA
ATOM      3  N   UNL     1       7.094   7.666  16.903  0.00  0.00    +0.000 N 
ATOM      4  H   UNL     1       7.068   8.336  16.145  0.00  0.00    +0.000 HD
ENDROOT
BRANCH   3   5
ATOM      5  C   UNL     1       6.271   6.517  16.759  0.00  0.00    +0.000 A 
ATOM      6  C   UNL     1       6.701   5.358  16.076  0.00  0.00    +0.000 A 
ATOM      7  C   UNL     1       5.980   4.144  16.102  0.00  0.00    +0.000 A 
ATOM      8  C   UNL     1       4.874   4.106  16.934  0.00  0.00    +0.000 A 
ATOM      9  C   UNL     1       4.411   5.265  17.528  0.00  0.00    +0.000 A 
ATOM     10  C   UNL     1       3.182   5.051  18.120  0.00  0.00    +0.000 A 
ATOM     11  C   UNL     1       2.284   6.100  18.241  0.00  0.00    +0.000 A 
ATOM     12  C   UNL     1       2.794   7.380  17.950  0.00  0.00    +0.000 A 
ATOM     13  C   UNL     1       4.151   7.595  17.626  0.00  0.00    +0.000 A 
ATOM     14  C   UNL     1       4.994   6.494  17.358  0.00  0.00    +0.000 A 
ATOM     15  C   UNL     1       2.975   3.587  18.284  0.00  0.00    +0.000 C 
ATOM     16  C   UNL     1       3.886   3.009  17.155  0.00  0.00    +0.000 C 
ENDBRANCH   3   5
BRANCH   1  20
ATOM     17  C   UNL     1       9.218  11.928  18.822  0.00  0.00    +0.000 A 
ATOM     18  C   UNL     1       9.652  10.845  19.589  0.00  0.00    +0.000 A 
ATOM     19  C   UNL     1       9.265   9.543  19.265  0.00  0.00    +0.000 A 
ATOM     20  C   UNL     1       8.428   9.299  18.168  0.00  0.00    +0.000 A 
ATOM     21  C   UNL     1       7.997  10.384  17.389  0.00  0.00    +0.000 A 
ATOM     22  C   UNL     1       8.394  11.694  17.718  0.00  0.00    +0.000 A 
BRANCH  17  24
ATOM     23  C   UNL     1      10.087  14.082  18.328  0.00  0.00    +0.000 C 
ATOM     24  O   UNL     1       9.618  13.147  19.289  0.00  0.00    +0.000 OA
ENDBRANCH  17  24
ENDBRANCH   1  20
TORSDOF 3
ENDMDL
MODEL 2
REMARK VINA RESULT:      -7.8      0.357      1.064
REMARK  Name = 
REMARK  4 active torsions:
REMARK  status: ('A' for Active; 'I' for Inactive)
REMARK    1  A    between atoms: C_1  and  O_2
REMARK    2  A    between atoms: O_2  and  C_3
REMARK    3  A    between atoms: C_6  and  C_7
REMARK    4  A    between atoms: N_9  and  C_10
REMARK                            x       y       z     vdW  Elec       q    Type
REMARK                         _______ _______ _______ _____ _____    ______ ____
ROOT
ATOM      1  C   UNL     1       7.932   7.980  18.071  0.00  0.00    +0.000 C 
ATOM      2  O   UNL     1       8.382   7.082  18.769  0.00  0.00    +0.000 OA
ATOM      3  N   UNL     1       7.050   7.778  17.025  0.00  0.00    +0.000 N 
ATOM      4  H   UNL     1       6.940   8.503  16.327  0.00  0.00    +0.000 HD
ENDROOT
BRANCH   3   5
ATOM      5  C   UNL     1       6.274   6.603  16.841  0.00  0.00    +0.000 A 
ATOM      6  C   UNL     1       6.765   5.471  16.154  0.00  0.00    +0.000 A 
ATOM      7  C   UNL     1       6.088   4.231  16.142  0.00  0.00    +0.000 A 
ATOM      8  C   UNL     1       4.962   4.140  16.941  0.00  0.00    +0.000 A 
ATOM      9  C   UNL     1       4.440   5.272  17.539  0.00  0.00    +0.000 A 
ATOM     10  C   UNL     1       3.203   5.005  18.092  0.00  0.00    +0.000 A 
ATOM     11  C   UNL     1       2.265   6.018  18.203  0.00  0.00    +0.000 A 
ATOM     12  C   UNL     1       2.736   7.320  17.945  0.00  0.00    +0.000 A 
ATOM     13  C   UNL     1       4.093   7.590  17.663  0.00  0.00    +0.000 A 
ATOM     14  C   UNL     1       4.982   6.524  17.403  0.00  0.00    +0.000 A 
ATOM     15  C   UNL     1       3.047   3.532  18.230  0.00  0.00    +0.000 C 
ATOM     16  C   UNL     1       4.008   3.005  17.119  0.00  0.00    +0.000 C 
ENDBRANCH   3   5
BRANCH   1  20
ATOM     17  C   UNL     1       9.407  12.001  18.492  0.00  0.00    +0.000 A 
ATOM     18  C   UNL     1       8.420  11.679  17.558  0.00  0.00    +0.000 A 
ATOM     19  C   UNL     1       7.913  10.380  17.480  0.00  0.00    +0.000 A 
ATOM     20  C   UNL     1       8.390   9.375  18.330  0.00  0.00    +0.000 A 
ATOM     21  C   UNL     1       9.376   9.696  19.275  0.00  0.00    +0.000 A 
ATOM     22  C   UNL     1       9.880  11.009  19.353  0.00  0.00    +0.000 A 
BRANCH  17  24
ATOM     23  C   UNL     1       8.883  14.298  18.191  0.00  0.00    +0.000 C 
ATOM     24  O   UNL     1       9.857  13.289  18.416  0.00  0.00    +0.000 OA
ENDBRANCH  17  24
ENDBRANCH   1  20
TORSDOF 3
ENDMDL
MODEL 3
REMARK VINA RESULT:      -7.6      4.610      6.745
REMARK  Name = 
REMARK  4 active torsions:
REMARK  status: ('A' for Active; 'I' for Inactive)
REMARK    1  A    between atoms: C_1  and  O_2
REMARK    2  A    between atoms: O_2  and  C_3
REMARK    3  A    between atoms: C_6  and  C_7
REMARK    4  A    between atoms: N_9  and  C_10
REMARK                            x       y       z     vdW  Elec       q    Type
REMARK                         _______ _______ _______ _____ _____    ______ ____
ROOT
ATOM      1  C   UNL     1       1.362   8.800  18.958  0.00  0.00    +0.000 C 
ATOM      2  O   UNL     1       1.037   9.187  17.844  0.00  0.00    +0.000 OA
ATOM      3  N   UNL     1       2.122   7.669  19.193  0.00  0.00    +0.000 N 
ATOM      4  H   UNL     1       2.117   7.255  20.117  0.00  0.00    +0.000 HD
ENDROOT
BRANCH   3   5
ATOM      5  C   UNL     1       2.921   7.017  18.216  0.00  0.00    +0.000 A 
ATOM      6  C   UNL     1       3.855   7.711  17.415  0.00  0.00    +0.000 A 
ATOM      7  C   UNL     1       4.795   7.053  16.592  0.00  0.00    +0.000 A 
ATOM      8  C   UNL     1       4.837   5.673  16.693  0.00  0.00    +0.000 A 
ATOM      9  C   UNL     1       3.866   4.998  17.410  0.00  0.00    +0.000 A 
ATOM     10  C   UNL     1       3.960   3.637  17.193  0.00  0.00    +0.000 A 
ATOM     11  C   UNL     1       2.826   2.846  17.289  0.00  0.00    +0.000 A 
ATOM     12  C   UNL     1       1.687   3.470  17.832  0.00  0.00    +0.000 A 
ATOM     13  C   UNL     1       1.712   4.796  18.318  0.00  0.00    +0.000 A 
ATOM     14  C   UNL     1       2.831   5.617  18.061  0.00  0.00    +0.000 A 
ATOM     15  C   UNL     1       5.298   3.332  16.621  0.00  0.00    +0.000 C 
ATOM     16  C   UNL     1       5.671   4.688  15.942  0.00  0.00    +0.000 C 
ENDBRANCH   3   5
BRANCH   1  20
ATOM     17  C   UNL     1      -0.356  10.852  22.328  0.00  0.00    +0.000 A 
ATOM     18  C   UNL     1      -0.158   9.470  22.338  0.00  0.00    +0.000 A 
ATOM     19  C   UNL     1       0.457   8.832  21.258  0.00  0.00    +0.000 A 
ATOM     20  C   UNL     1       0.878   9.565  20.142  0.00  0.00    +0.000 A 
ATOM     21  C   UNL     1       0.688  10.956  20.131  0.00  0.00    +0.000 A 
ATOM     22  C   UNL     1       0.072  11.594  21.226  0.00  0.00    +0.000 A 
BRANCH  17  24
ATOM     23  C   UNL     1      -2.042  12.294  23.174  0.00  0.00    +0.000 C 
ATOM     24  O   UNL     1      -1.025  11.334  23.418  0.00  0.00    +0.000 OA
ENDBRANCH  17  24
ENDBRANCH   1  20
TORSDOF 3
ENDMDL
MODEL 4
REMARK VINA RESULT:      -7.4      4.392      7.583
REMARK  Name = 
REMARK  4 active torsions:
REMARK  status: ('A' for Active; 'I' for Inactive)
REMARK    1  A    between atoms: C_1  and  O_2
REMARK    2  A    between atoms: O_2  and  C_3
REMARK    3  A    between atoms: C_6  and  C_7
REMARK    4  A    between atoms: N_9  and  C_10
REMARK                            x       y       z     vdW  Elec       q    Type
REMARK                         _______ _______ _______ _____ _____    ______ ____
ROOT
ATOM      1  C   UNL     1       2.554   6.528  18.700  0.00  0.00    +0.000 C 
ATOM      2  O   UNL     1       1.949   5.675  19.334  0.00  0.00    +0.000 OA
ATOM      3  N   UNL     1       2.240   7.875  18.719  0.00  0.00    +0.000 N 
ATOM      4  H   UNL     1       2.583   8.471  17.977  0.00  0.00    +0.000 HD
ENDROOT
BRANCH   3   5
ATOM      5  C   UNL     1       1.445   8.502  19.715  0.00  0.00    +0.000 A 
ATOM      6  C   UNL     1       1.553   8.178  21.086  0.00  0.00    +0.000 A 
ATOM      7  C   UNL     1       0.923   8.932  22.101  0.00  0.00    +0.000 A 
ATOM      8  C   UNL     1       0.279  10.089  21.695  0.00  0.00    +0.000 A 
ATOM      9  C   UNL     1       0.104  10.351  20.349  0.00  0.00    +0.000 A 
ATOM     10  C   UNL     1      -0.753  11.420  20.170  0.00  0.00    +0.000 A 
ATOM     11  C   UNL     1      -1.522  11.500  19.020  0.00  0.00    +0.000 A 
ATOM     12  C   UNL     1      -1.197  10.584  18.001  0.00  0.00    +0.000 A 
ATOM     13  C   UNL     1      -0.111   9.688  18.109  0.00  0.00    +0.000 A 
ATOM     14  C   UNL     1       0.546   9.527  19.348  0.00  0.00    +0.000 A 
ATOM     15  C   UNL     1      -0.855  12.174  21.448  0.00  0.00    +0.000 C 
ATOM     16  C   UNL     1      -0.509  11.071  22.497  0.00  0.00    +0.000 C 
ENDBRANCH   3   5
BRANCH   1  20
ATOM     17  C   UNL     1       5.618   5.441  15.879  0.00  0.00    +0.000 A 
ATOM     18  C   UNL     1       5.419   6.768  16.266  0.00  0.00    +0.000 A 
ATOM     19  C   UNL     1       4.459   7.091  17.228  0.00  0.00    +0.000 A 
ATOM     20  C   UNL     1       3.673   6.093  17.817  0.00  0.00    +0.000 A 
ATOM     21  C   UNL     1       3.876   4.757  17.437  0.00  0.00    +0.000 A 
ATOM     22  C   UNL     1       4.849   4.436  16.470  0.00  0.00    +0.000 A 
BRANCH  17  24
ATOM     23  C   UNL     1       6.357   4.170  14.015  0.00  0.00    +0.000 C 
ATOM     24  O   UNL     1       6.541   5.276  14.886  0.00  0.00    +0.000 OA
ENDBRANCH  17  24
ENDBRANCH   1  20
TORSDOF 3
ENDMDL
MODEL 5
REMARK VINA RESULT:      -7.4      4.695      7.975
REMARK  Name = 
REMARK  4 active torsions:
REMARK  status: ('A' for Active; 'I' for Inactive)
REMARK    1  A    between atoms: C_1  and  O_2
REMARK    2  A    between atoms: O_2  and  C_3
REMARK    3  A    between atoms: C_6  and  C_7
REMARK    4  A    between atoms: N_9  and  C_10
REMARK                            x       y       z     vdW  Elec       q    Type
REMARK                         _______ _______ _______ _____ _____    ______ ____
ROOT
ATOM      1  C   UNL     1       2.313   6.794  19.737  0.00  0.00    +0.000 C 
ATOM      2  O   UNL     1       1.666   5.982  20.384  0.00  0.00    +0.000 OA
ATOM      3  N   UNL     1       1.976   8.130  19.614  0.00  0.00    +0.000 N 
ATOM      4  H   UNL     1       2.376   8.671  18.859  0.00  0.00    +0.000 HD
ENDROOT
BRANCH   3   5
ATOM      5  C   UNL     1       1.082   8.818  20.479  0.00  0.00    +0.000 A 
ATOM      6  C   UNL     1       1.041   8.581  21.870  0.00  0.00    +0.000 A 
ATOM      7  C   UNL     1       0.311   9.397  22.763  0.00  0.00    +0.000 A 
ATOM      8  C   UNL     1      -0.279  10.525  22.219  0.00  0.00    +0.000 A 
ATOM      9  C   UNL     1      -0.308  10.702  20.848  0.00  0.00    +0.000 A 
ATOM     10  C   UNL     1      -1.134  11.756  20.512  0.00  0.00    +0.000 A 
ATOM     11  C   UNL     1      -1.776  11.763  19.283  0.00  0.00    +0.000 A 
ATOM     12  C   UNL     1      -1.349  10.785  18.364  0.00  0.00    +0.000 A 
ATOM     13  C   UNL     1      -0.286   9.899  18.644  0.00  0.00    +0.000 A 
ATOM     14  C   UNL     1       0.234   9.817  19.953  0.00  0.00    +0.000 A 
ATOM     15  C   UNL     1      -1.368  12.590  21.721  0.00  0.00    +0.000 C 
ATOM     16  C   UNL     1      -1.143  11.555  22.869  0.00  0.00    +0.000 C 
ENDBRANCH   3   5
BRANCH   1  20
ATOM     17  C   UNL     1       5.560   5.270  17.359  0.00  0.00    +0.000 A 
ATOM     18  C   UNL     1       4.738   6.300  16.898  0.00  0.00    +0.000 A 
ATOM     19  C   UNL     1       3.728   6.820  17.710  0.00  0.00    +0.000 A 
ATOM     20  C   UNL     1       3.515   6.314  18.999  0.00  0.00    +0.000 A 
ATOM     21  C   UNL     1       4.344   5.284  19.469  0.00  0.00    +0.000 A 
ATOM     22  C   UNL     1       5.365   4.766  18.647  0.00  0.00    +0.000 A 
BRANCH  17  24
ATOM     23  C   UNL     1       5.980   3.898  15.467  0.00  0.00    +0.000 C 
ATOM     24  O   UNL     1       6.462   4.813  16.440  0.00  0.00    +0.000 OA
ENDBRANCH  17  24
ENDBRANCH   1  20
TORSDOF 3
ENDMDL
MODEL 6
REMARK VINA RESULT:      -7.4      4.659      7.760
REMARK  Name = 
REMARK  4 active torsions:
REMARK  status: ('A' for Active; 'I' for Inactive)
REMARK    1  A    between atoms: C_1  and  O_2
REMARK    2  A    between atoms: O_2  and  C_3
REMARK    3  A    between atoms: C_6  and  C_7
REMARK    4  A    between atoms: N_9  and  C_10
REMARK                            x       y       z     vdW  Elec       q    Type
REMARK                         _______ _______ _______ _____ _____    ______ ____
ROOT
ATOM      1  C   UNL     1       2.314   6.890  19.647  0.00  0.00    +0.000 C 
ATOM      2  O   UNL     1       1.789   6.078  20.396  0.00  0.00    +0.000 OA
ATOM      3  N   UNL     1       1.875   8.191  19.486  0.00  0.00    +0.000 N 
ATOM      4  H   UNL     1       2.164   8.711  18.667  0.00  0.00    +0.000 HD
ENDROOT
BRANCH   3   5
ATOM      5  C   UNL     1       1.020   8.871  20.395  0.00  0.00    +0.000 A 
ATOM      6  C   UNL     1       1.038   8.619  21.784  0.00  0.00    +0.000 A 
ATOM      7  C   UNL     1       0.348   9.426  22.716  0.00  0.00    +0.000 A 
ATOM      8  C   UNL     1      -0.263  10.561  22.210  0.00  0.00    +0.000 A 
ATOM      9  C   UNL     1      -0.349  10.753  20.844  0.00  0.00    +0.000 A 
ATOM     10  C   UNL     1      -1.188  11.812  20.554  0.00  0.00    +0.000 A 
ATOM     11  C   UNL     1      -1.881  11.832  19.355  0.00  0.00    +0.000 A 
ATOM     12  C   UNL     1      -1.496  10.864  18.408  0.00  0.00    +0.000 A 
ATOM     13  C   UNL     1      -0.423   9.974  18.632  0.00  0.00    +0.000 A 
ATOM     14  C   UNL     1       0.152   9.877  19.917  0.00  0.00    +0.000 A 
ATOM     15  C   UNL     1      -1.368  12.632  21.782  0.00  0.00    +0.000 C 
ATOM     16  C   UNL     1      -1.096  11.585  22.907  0.00  0.00    +0.000 C 
ENDBRANCH   3   5
BRANCH   1  20
ATOM     17  C   UNL     1       5.875   5.736  17.523  0.00  0.00    +0.000 A 
ATOM     18  C   UNL     1       5.516   5.131  18.728  0.00  0.00    +0.000 A 
ATOM     19  C   UNL     1       4.325   5.478  19.370  0.00  0.00    +0.000 A 
ATOM     20  C   UNL     1       3.473   6.445  18.821  0.00  0.00    +0.000 A 
ATOM     21  C   UNL     1       3.827   7.050  17.605  0.00  0.00    +0.000 A 
ATOM     22  C   UNL     1       5.027   6.692  16.959  0.00  0.00    +0.000 A 
BRANCH  17  24
ATOM     23  C   UNL     1       7.096   4.573  15.850  0.00  0.00    +0.000 C 
ATOM     24  O   UNL     1       7.093   5.351  17.039  0.00  0.00    +0.000 OA
ENDBRANCH  17  24
ENDBRANCH   1  20
TORSDOF 3
ENDMDL
MODEL 7
REMARK VINA RESULT:      -7.3      5.139      6.580
REMARK  Name = 
REMARK  4 active torsions:
REMARK  status: ('A' for Active; 'I' for Inactive)
REMARK    1  A    between atoms: C_1  and  O_2
REMARK    2  A    between atoms: O_2  and  C_3
REMARK    3  A    between atoms: C_6  and  C_7
REMARK    4  A    between atoms: N_9  and  C_10
REMARK                            x       y       z     vdW  Elec       q    Type
REMARK                         _______ _______ _______ _____ _____    ______ ____
ROOT
ATOM      1  C   UNL     1       1.344   8.577  20.459  0.00  0.00    +0.000 C 
ATOM      2  O   UNL     1       1.245   8.234  21.629  0.00  0.00    +0.000 OA
ATOM      3  N   UNL     1       1.950   7.813  19.478  0.00  0.00    +0.000 N 
ATOM      4  H   UNL     1       2.245   8.260  18.618  0.00  0.00    +0.000 HD
ENDROOT
BRANCH   3   5
ATOM      5  C   UNL     1       2.207   6.420  19.585  0.00  0.00    +0.000 A 
ATOM      6  C   UNL     1       1.757   5.649  20.679  0.00  0.00    +0.000 A 
ATOM      7  C   UNL     1       1.825   4.238  20.699  0.00  0.00    +0.000 A 
ATOM      8  C   UNL     1       2.254   3.629  19.532  0.00  0.00    +0.000 A 
ATOM      9  C   UNL     1       2.772   4.390  18.501  0.00  0.00    +0.000 A 
ATOM     10  C   UNL     1       3.347   3.580  17.541  0.00  0.00    +0.000 A 
ATOM     11  C   UNL     1       4.394   4.061  16.771  0.00  0.00    +0.000 A 
ATOM     12  C   UNL     1       4.646   5.442  16.875  0.00  0.00    +0.000 A 
ATOM     13  C   UNL     1       3.841   6.300  17.656  0.00  0.00    +0.000 A 
ATOM     14  C   UNL     1       2.889   5.755  18.544  0.00  0.00    +0.000 A 
ATOM     15  C   UNL     1       2.849   2.190  17.723  0.00  0.00    +0.000 C 
ATOM     16  C   UNL     1       2.477   2.182  19.240  0.00  0.00    +0.000 C 
ENDBRANCH   3   5
BRANCH   1  20
ATOM     17  C   UNL     1      -0.429  12.397  19.572  0.00  0.00    +0.000 A 
ATOM     18  C   UNL     1       0.175  12.141  20.804  0.00  0.00    +0.000 A 
ATOM     19  C   UNL     1       0.797  10.915  21.049  0.00  0.00    +0.000 A 
ATOM     20  C   UNL     1       0.821   9.917  20.067  0.00  0.00    +0.000 A 
ATOM     21  C   UNL     1       0.221  10.173  18.824  0.00  0.00    +0.000 A 
ATOM     22  C   UNL     1      -0.401  11.414  18.581  0.00  0.00    +0.000 A 
BRANCH  17  24
ATOM     23  C   UNL     1      -0.238  14.737  19.212  0.00  0.00    +0.000 C 
ATOM     24  O   UNL     1      -1.055  13.609  19.491  0.00  0.00    +0.000 OA
ENDBRANCH  17  24
ENDBRANCH   1  20
TORSDOF 3
ENDMDL
MODEL 8
REMARK VINA RESULT:      -7.3      5.119      6.571
REMARK  Name = 
REMARK  4 active torsions:
REMARK  status: ('A' for Active; 'I' for Inactive)
REMARK    1  A    between atoms: C_1  and  O_2
REMARK    2  A    between atoms: O_2  and  C_3
REMARK    3  A    between atoms: C_6  and  C_7
REMARK    4  A    between atoms: N_9  and  C_10
REMARK                            x       y       z     vdW  Elec       q    Type
REMARK                         _______ _______ _______ _____ _____    ______ ____
ROOT
ATOM      1  C   UNL     1       1.230   8.692  20.505  0.00  0.00    +0.000 C 
ATOM      2  O   UNL     1       1.096   8.331  21.667  0.00  0.00    +0.000 OA
ATOM      3  N   UNL     1       1.872   7.948  19.533  0.00  0.00    +0.000 N 
ATOM      4  H   UNL     1       2.191   8.409  18.690  0.00  0.00    +0.000 HD
ENDROOT
BRANCH   3   5
ATOM      5  C   UNL     1       2.135   6.555  19.627  0.00  0.00    +0.000 A 
ATOM      6  C   UNL     1       1.691   5.772  20.716  0.00  0.00    +0.000 A 
ATOM      7  C   UNL     1       1.766   4.361  20.723  0.00  0.00    +0.000 A 
ATOM      8  C   UNL     1       2.194   3.765  19.550  0.00  0.00    +0.000 A 
ATOM      9  C   UNL     1       2.707   4.536  18.524  0.00  0.00    +0.000 A 
ATOM     10  C   UNL     1       3.282   3.737  17.555  0.00  0.00    +0.000 A 
ATOM     11  C   UNL     1       4.325   4.230  16.787  0.00  0.00    +0.000 A 
ATOM     12  C   UNL     1       4.572   5.611  16.902  0.00  0.00    +0.000 A 
ATOM     13  C   UNL     1       3.765   6.459  17.693  0.00  0.00    +0.000 A 
ATOM     14  C   UNL     1       2.818   5.901  18.579  0.00  0.00    +0.000 A 
ATOM     15  C   UNL     1       2.791   2.344  17.726  0.00  0.00    +0.000 C 
ATOM     16  C   UNL     1       2.423   2.321  19.244  0.00  0.00    +0.000 C 
ENDBRANCH   3   5
BRANCH   1  20
ATOM     17  C   UNL     1      -0.083  12.535  19.080  0.00  0.00    +0.000 A 
ATOM     18  C   UNL     1      -0.471  11.351  18.450  0.00  0.00    +0.000 A 
ATOM     19  C   UNL     1      -0.083  10.112  18.965  0.00  0.00    +0.000 A 
ATOM     20  C   UNL     1       0.709  10.034  20.117  0.00  0.00    +0.000 A 
ATOM     21  C   UNL     1       1.095  11.222  20.758  0.00  0.00    +0.000 A 
ATOM     22  C   UNL     1       0.696  12.468  20.237  0.00  0.00    +0.000 A 
BRANCH  17  24
ATOM     23  C   UNL     1      -0.252  14.904  19.106  0.00  0.00    +0.000 C 
ATOM     24  O   UNL     1      -0.477  13.673  18.434  0.00  0.00    +0.000 OA
ENDBRANCH  17  24
ENDBRANCH   1  20
TORSDOF 3
ENDMDL
MODEL 9
REMARK VINA RESULT:      -7.2      4.293      7.618
REMARK  Name = 
REMARK  4 active torsions:
REMARK  status: ('A' for Active; 'I' for Inactive)
REMARK    1  A    between atoms: C_1  and  O_2
REMARK    2  A    between atoms: O_2  and  C_3
REMARK    3  A    between atoms: C_6  and  C_7
REMARK    4  A    between atoms: N_9  and  C_10
REMARK                            x       y       z     vdW  Elec       q    Type
REMARK                         _______ _______ _______ _____ _____    ______ ____
ROOT
ATOM      1  C   UNL     1       2.525   6.650  18.735  0.00  0.00    +0.000 C 
ATOM      2  O   UNL     1       2.025   5.794  19.451  0.00  0.00    +0.000 OA
ATOM      3  N   UNL     1       2.119   7.972  18.709  0.00  0.00    +0.000 N 
ATOM      4  H   UNL     1       2.371   8.548  17.916  0.00  0.00    +0.000 HD
ENDROOT
BRANCH   3   5
ATOM      5  C   UNL     1       1.348   8.598  19.725  0.00  0.00    +0.000 A 
ATOM      6  C   UNL     1       1.481   8.264  21.091  0.00  0.00    +0.000 A 
ATOM      7  C   UNL     1       0.876   9.015  22.123  0.00  0.00    +0.000 A 
ATOM      8  C   UNL     1       0.233  10.179  21.738  0.00  0.00    +0.000 A 
ATOM      9  C   UNL     1       0.033  10.452  20.397  0.00  0.00    +0.000 A 
ATOM     10  C   UNL     1      -0.820  11.527  20.242  0.00  0.00    +0.000 A 
ATOM     11  C   UNL     1      -1.612  11.619  19.108  0.00  0.00    +0.000 A 
ATOM     12  C   UNL     1      -1.313  10.708  18.077  0.00  0.00    +0.000 A 
ATOM     13  C   UNL     1      -0.231   9.805  18.157  0.00  0.00    +0.000 A 
ATOM     14  C   UNL     1       0.449   9.631  19.382  0.00  0.00    +0.000 A 
ATOM     15  C   UNL     1      -0.892  12.274  21.526  0.00  0.00    +0.000 C 
ATOM     16  C   UNL     1      -0.533  11.161  22.562  0.00  0.00    +0.000 C 
ENDBRANCH   3   5
BRANCH   1  20
ATOM     17  C   UNL     1       5.790   5.260  16.299  0.00  0.00    +0.000 A 
ATOM     18  C   UNL     1       4.754   4.408  16.687  0.00  0.00    +0.000 A 
ATOM     19  C   UNL     1       3.674   4.894  17.427  0.00  0.00    +0.000 A 
ATOM     20  C   UNL     1       3.613   6.243  17.800  0.00  0.00    +0.000 A 
ATOM     21  C   UNL     1       4.648   7.104  17.405  0.00  0.00    +0.000 A 
ATOM     22  C   UNL     1       5.732   6.609  16.654  0.00  0.00    +0.000 A 
BRANCH  17  24
ATOM     23  C   UNL     1       6.526   4.138  14.339  0.00  0.00    +0.000 C 
ATOM     24  O   UNL     1       6.812   4.640  15.637  0.00  0.00    +0.000 OA
ENDBRANCH  17  24
ENDBRANCH   1  20
TORSDOF 3
ENDMDL
