MODEL 1
REMARK VINA RESULT:      -7.7      0.000      0.000
REMARK  Name = 
REMARK  15 active torsions:
REMARK  status: ('A' for Active; 'I' for Inactive)
REMARK    1  A    between atoms: C_1  and  C_2
REMARK    2  A    between atoms: C_2  and  C_3
REMARK    3  A    between atoms: C_4  and  C_5
REMARK    4  A    between atoms: C_5  and  C_6
REMARK    5  A    between atoms: C_7  and  C_8
REMARK    6  A    between atoms: C_13  and  C_14
REMARK    7  A    between atoms: C_15  and  C_16
REMARK    8  A    between atoms: C_16  and  C_17
REMARK    9  A    between atoms: C_18  and  O_19
REMARK   10  A    between atoms: C_20  and  C_21
REMARK   11  A    between atoms: C_23  and  C_24
REMARK   12  A    between atoms: C_27  and  O_28
REMARK   13  A    between atoms: O_28  and  C_29
REMARK   14  A    between atoms: C_29  and  C_30
REMARK   15  A    between atoms: C_30  and  O_32
REMARK                            x       y       z     vdW  Elec       q    Type
REMARK                         _______ _______ _______ _____ _____    ______ ____
ROOT
ATOM      1  C   UNL     1      -0.229  10.839  19.128  0.00  0.00    +0.000 A 
ATOM      2  C   UNL     1      -1.033  10.431  18.035  0.00  0.00    +0.000 A 
ATOM      3  C   UNL     1      -2.386  10.811  17.922  0.00  0.00    +0.000 A 
ATOM      4  C   UNL     1      -2.999  11.580  18.925  0.00  0.00    +0.000 A 
ATOM      5  C   UNL     1      -4.431  12.057  18.830  0.00  0.00    +0.000 C 
ATOM      6  C   UNL     1      -2.224  11.940  20.059  0.00  0.00    +0.000 A 
ATOM      7 CL   UNL     1      -3.120  12.643  21.387  0.00  0.00    +0.000 Cl
ATOM      8  C   UNL     1      -0.829  11.648  20.140  0.00  0.00    +0.000 A 
ENDROOT
BRANCH   2   9
ATOM      9  O   UNL     1      -0.561   9.620  17.029  0.00  0.00    +0.000 OA
ATOM     10  H   UNL     1      -0.779   8.688  17.160  0.00  0.00    +0.000 HD
ENDBRANCH   2   9
BRANCH   3  11
ATOM     11  C   UNL     1      -3.116  10.342  16.710  0.00  0.00    +0.000 C 
ATOM     12  O   UNL     1      -2.725  10.527  15.565  0.00  0.00    +0.000 OA
ENDBRANCH   3  11
BRANCH   1  13
ATOM     13  C   UNL     1       1.224  10.384  19.251  0.00  0.00    +0.000 C 
BRANCH  13  16
ATOM     14  C   UNL     1       1.217   8.813  21.935  0.00  0.00    +0.000 C 
ATOM     15  C   UNL     1       1.428   8.209  20.576  0.00  0.00    +0.000 C 
ATOM     16  C   UNL     1       1.404   8.899  19.420  0.00  0.00    +0.000 C 
BRANCH  15  17
ATOM     17  C   UNL     1       1.489   6.754  20.586  0.00  0.00    +0.000 C 
ATOM     18  C   UNL     1       2.381   5.975  19.952  0.00  0.00    +0.000 C 
BRANCH  18  19
ATOM     19  C   UNL     1       2.410   4.414  19.985  0.00  0.00    +0.000 C 
ATOM     20  C   UNL     1       2.076   4.064  21.451  0.00  0.00    +0.000 C 
ATOM     21  C   UNL     1       1.351   3.796  18.998  0.00  0.00    +0.000 C 
ATOM     22  C   UNL     1       1.122   2.281  19.095  0.00  0.00    +0.000 C 
ATOM     23  C   UNL     1       1.677   4.184  17.540  0.00  0.00    +0.000 C 
ATOM     24  C   UNL     1       3.101   3.837  17.123  0.00  0.00    +0.000 C 
ATOM     25  C   UNL     1       4.126   4.287  18.144  0.00  0.00    +0.000 C 
ATOM     26  O   UNL     1       5.200   4.784  17.799  0.00  0.00    +0.000 OA
ATOM     27  C   UNL     1       3.858   3.969  19.610  0.00  0.00    +0.000 C 
ATOM     28  C   UNL     1       4.259   2.512  19.864  0.00  0.00    +0.000 C 
ENDBRANCH  18  19
ENDBRANCH  15  17
ENDBRANCH  13  16
ENDBRANCH   1  13
BRANCH   8  29
ATOM     29  O   UNL     1       0.037  12.065  21.146  0.00  0.00    +0.000 OA
BRANCH  29  30
ATOM     30  C   UNL     1       0.408  13.446  21.162  0.00  0.00    +0.000 C 
BRANCH  30  31
ATOM     31  C   UNL     1      -0.098  14.289  22.326  0.00  0.00    +0.000 C 
ATOM     32  O   UNL     1      -0.230  15.504  22.263  0.00  0.00    +0.000 OA
BRANCH  31  33
ATOM     33  O   UNL     1      -0.426  13.573  23.419  0.00  0.00    +0.000 OA
ATOM     34  H   UNL     1       0.342  13.082  23.764  0.00  0.00    +0.000 HD
ENDBRANCH  31  33
ENDBRANCH  30  31
ENDBRANCH  29  30
ENDBRANCH   8  29
TORSDOF 10
ENDMDL
MODEL 2
REMARK VINA RESULT:      -7.7      1.334      1.968
REMARK  Name = 
REMARK  15 active torsions:
REMARK  status: ('A' for Active; 'I' for Inactive)
REMARK    1  A    between atoms: C_1  and  C_2
REMARK    2  A    between atoms: C_2  and  C_3
REMARK    3  A    between atoms: C_4  and  C_5
REMARK    4  A    between atoms: C_5  and  C_6
REMARK    5  A    between atoms: C_7  and  C_8
REMARK    6  A    between atoms: C_13  and  C_14
REMARK    7  A    between atoms: C_15  and  C_16
REMARK    8  A    between atoms: C_16  and  C_17
REMARK    9  A    between atoms: C_18  and  O_19
REMARK   10  A    between atoms: C_20  and  C_21
REMARK   11  A    between atoms: C_23  and  C_24
REMARK   12  A    between atoms: C_27  and  O_28
REMARK   13  A    between atoms: O_28  and  C_29
REMARK   14  A    between atoms: C_29  and  C_30
REMARK   15  A    between atoms: C_30  and  O_32
REMARK                            x       y       z     vdW  Elec       q    Type
REMARK                         _______ _______ _______ _____ _____    ______ ____
ROOT
ATOM      1  C   UNL     1      -0.358  10.932  19.384  0.00  0.00    +0.000 A 
ATOM      2  C   UNL     1      -1.006  10.633  18.160  0.00  0.00    +0.000 A 
ATOM      3  C   UNL     1      -2.341  11.013  17.910  0.00  0.00    +0.000 A 
ATOM      4  C   UNL     1      -3.093  11.672  18.897  0.00  0.00    +0.000 A 
ATOM      5  C   UNL     1      -4.510  12.146  18.665  0.00  0.00    +0.000 C 
ATOM      6  C   UNL     1      -2.478  11.919  20.153  0.00  0.00    +0.000 A 
ATOM      7 CL   UNL     1      -3.552  12.477  21.417  0.00  0.00    +0.000 Cl
ATOM      8  C   UNL     1      -1.100  11.630  20.385  0.00  0.00    +0.000 A 
ENDROOT
BRANCH   2   9
ATOM      9  O   UNL     1      -0.392   9.932  17.148  0.00  0.00    +0.000 OA
ATOM     10  H   UNL     1       0.088   9.155  17.462  0.00  0.00    +0.000 HD
ENDBRANCH   2   9
BRANCH   3  11
ATOM     11  C   UNL     1      -2.899  10.666  16.573  0.00  0.00    +0.000 C 
ATOM     12  O   UNL     1      -2.944   9.527  16.129  0.00  0.00    +0.000 OA
ENDBRANCH   3  11
BRANCH   1  13
ATOM     13  C   UNL     1       1.075  10.477  19.649  0.00  0.00    +0.000 C 
BRANCH  13  16
ATOM     14  C   UNL     1       2.803   8.513  17.967  0.00  0.00    +0.000 C 
ATOM     15  C   UNL     1       1.956   8.132  19.146  0.00  0.00    +0.000 C 
ATOM     16  C   UNL     1       1.231   8.998  19.881  0.00  0.00    +0.000 C 
BRANCH  15  17
ATOM     17  C   UNL     1       2.116   6.743  19.558  0.00  0.00    +0.000 C 
ATOM     18  C   UNL     1       1.813   5.646  18.844  0.00  0.00    +0.000 C 
BRANCH  18  19
ATOM     19  C   UNL     1       1.996   4.171  19.325  0.00  0.00    +0.000 C 
ATOM     20  C   UNL     1       0.968   4.019  20.466  0.00  0.00    +0.000 C 
ATOM     21  C   UNL     1       1.713   3.146  18.165  0.00  0.00    +0.000 C 
ATOM     22  C   UNL     1       1.640   1.664  18.558  0.00  0.00    +0.000 C 
ATOM     23  C   UNL     1       2.726   3.334  17.015  0.00  0.00    +0.000 C 
ATOM     24  C   UNL     1       4.178   3.277  17.470  0.00  0.00    +0.000 C 
ATOM     25  C   UNL     1       4.435   4.139  18.689  0.00  0.00    +0.000 C 
ATOM     26  O   UNL     1       5.461   4.813  18.794  0.00  0.00    +0.000 OA
ATOM     27  C   UNL     1       3.458   4.034  19.854  0.00  0.00    +0.000 C 
ATOM     28  C   UNL     1       3.821   2.789  20.671  0.00  0.00    +0.000 C 
ENDBRANCH  18  19
ENDBRANCH  15  17
ENDBRANCH  13  16
ENDBRANCH   1  13
BRANCH   8  29
ATOM     29  O   UNL     1      -0.379  11.947  21.533  0.00  0.00    +0.000 OA
BRANCH  29  30
ATOM     30  C   UNL     1      -0.763  11.299  22.749  0.00  0.00    +0.000 C 
BRANCH  30  31
ATOM     31  C   UNL     1      -0.148   9.934  23.032  0.00  0.00    +0.000 C 
ATOM     32  O   UNL     1       1.040   9.774  23.276  0.00  0.00    +0.000 OA
BRANCH  31  33
ATOM     33  O   UNL     1      -1.036   8.921  23.029  0.00  0.00    +0.000 OA
ATOM     34  H   UNL     1      -0.586   8.056  23.026  0.00  0.00    +0.000 HD
ENDBRANCH  31  33
ENDBRANCH  30  31
ENDBRANCH  29  30
ENDBRANCH   8  29
TORSDOF 10
ENDMDL
MODEL 3
REMARK VINA RESULT:      -7.6      0.954      1.132
REMARK  Name = 
REMARK  15 active torsions:
REMARK  status: ('A' for Active; 'I' for Inactive)
REMARK    1  A    between atoms: C_1  and  C_2
REMARK    2  A    between atoms: C_2  and  C_3
REMARK    3  A    between atoms: C_4  and  C_5
REMARK    4  A    between atoms: C_5  and  C_6
REMARK    5  A    between atoms: C_7  and  C_8
REMARK    6  A    between atoms: C_13  and  C_14
REMARK    7  A    between atoms: C_15  and  C_16
REMARK    8  A    between atoms: C_16  and  C_17
REMARK    9  A    between atoms: C_18  and  O_19
REMARK   10  A    between atoms: C_20  and  C_21
REMARK   11  A    between atoms: C_23  and  C_24
REMARK   12  A    between atoms: C_27  and  O_28
REMARK   13  A    between atoms: O_28  and  C_29
REMARK   14  A    between atoms: C_29  and  C_30
REMARK   15  A    between atoms: C_30  and  O_32
REMARK                            x       y       z     vdW  Elec       q    Type
REMARK                         _______ _______ _______ _____ _____    ______ ____
ROOT
ATOM      1  C   UNL     1      -0.110  10.888  19.259  0.00  0.00    +0.000 A 
ATOM      2  C   UNL     1      -0.958  10.583  18.167  0.00  0.00    +0.000 A 
ATOM      3  C   UNL     1      -2.299  11.016  18.119  0.00  0.00    +0.000 A 
ATOM      4  C   UNL     1      -2.856  11.737  19.189  0.00  0.00    +0.000 A 
ATOM      5  C   UNL     1      -4.271  12.269  19.169  0.00  0.00    +0.000 C 
ATOM      6  C   UNL     1      -2.037  11.993  20.321  0.00  0.00    +0.000 A 
ATOM      7 CL   UNL     1      -2.870  12.636  21.718  0.00  0.00    +0.000 Cl
ATOM      8  C   UNL     1      -0.652  11.648  20.340  0.00  0.00    +0.000 A 
ENDROOT
BRANCH   2   9
ATOM      9  O   UNL     1      -0.544   9.825  17.095  0.00  0.00    +0.000 OA
ATOM     10  H   UNL     1      -1.276   9.510  16.549  0.00  0.00    +0.000 HD
ENDBRANCH   2   9
BRANCH   3  11
ATOM     11  C   UNL     1      -3.079  10.656  16.901  0.00  0.00    +0.000 C 
ATOM     12  O   UNL     1      -3.428   9.515  16.629  0.00  0.00    +0.000 OA
ENDBRANCH   3  11
BRANCH   1  13
ATOM     13  C   UNL     1       1.328  10.375  19.309  0.00  0.00    +0.000 C 
BRANCH  13  16
ATOM     14  C   UNL     1       1.270   8.762  21.967  0.00  0.00    +0.000 C 
ATOM     15  C   UNL     1       1.459   8.174  20.598  0.00  0.00    +0.000 C 
ATOM     16  C   UNL     1       1.457   8.882  19.453  0.00  0.00    +0.000 C 
BRANCH  15  17
ATOM     17  C   UNL     1       1.470   6.717  20.584  0.00  0.00    +0.000 C 
ATOM     18  C   UNL     1       2.341   5.919  19.945  0.00  0.00    +0.000 C 
BRANCH  18  19
ATOM     19  C   UNL     1       2.316   4.357  19.952  0.00  0.00    +0.000 C 
ATOM     20  C   UNL     1       1.838   3.996  21.375  0.00  0.00    +0.000 C 
ATOM     21  C   UNL     1       1.332   3.790  18.862  0.00  0.00    +0.000 C 
ATOM     22  C   UNL     1       1.046   2.283  18.910  0.00  0.00    +0.000 C 
ATOM     23  C   UNL     1       1.802   4.189  17.446  0.00  0.00    +0.000 C 
ATOM     24  C   UNL     1       3.246   3.801  17.155  0.00  0.00    +0.000 C 
ATOM     25  C   UNL     1       4.188   4.200  18.272  0.00  0.00    +0.000 C 
ATOM     26  O   UNL     1       5.304   4.665  18.035  0.00  0.00    +0.000 OA
ATOM     27  C   UNL     1       3.777   3.869  19.702  0.00  0.00    +0.000 C 
ATOM     28  C   UNL     1       4.105   2.395  19.964  0.00  0.00    +0.000 C 
ENDBRANCH  18  19
ENDBRANCH  15  17
ENDBRANCH  13  16
ENDBRANCH   1  13
BRANCH   8  29
ATOM     29  O   UNL     1       0.256  11.965  21.346  0.00  0.00    +0.000 OA
BRANCH  29  30
ATOM     30  C   UNL     1       0.670  13.331  21.448  0.00  0.00    +0.000 C 
BRANCH  30  31
ATOM     31  C   UNL     1       1.955  13.723  20.729  0.00  0.00    +0.000 C 
ATOM     32  O   UNL     1       1.970  14.224  19.613  0.00  0.00    +0.000 OA
BRANCH  31  33
ATOM     33  O   UNL     1       3.073  13.506  21.447  0.00  0.00    +0.000 OA
ATOM     34  H   UNL     1       2.866  13.351  22.387  0.00  0.00    +0.000 HD
ENDBRANCH  31  33
ENDBRANCH  30  31
ENDBRANCH  29  30
ENDBRANCH   8  29
TORSDOF 10
ENDMDL
MODEL 4
REMARK VINA RESULT:      -7.4      2.837      4.429
REMARK  Name = 
REMARK  15 active torsions:
REMARK  status: ('A' for Active; 'I' for Inactive)
REMARK    1  A    between atoms: C_1  and  C_2
REMARK    2  A    between atoms: C_2  and  C_3
REMARK    3  A    between atoms: C_4  and  C_5
REMARK    4  A    between atoms: C_5  and  C_6
REMARK    5  A    between atoms: C_7  and  C_8
REMARK    6  A    between atoms: C_13  and  C_14
REMARK    7  A    between atoms: C_15  and  C_16
REMARK    8  A    between atoms: C_16  and  C_17
REMARK    9  A    between atoms: C_18  and  O_19
REMARK   10  A    between atoms: C_20  and  C_21
REMARK   11  A    between atoms: C_23  and  C_24
REMARK   12  A    between atoms: C_27  and  O_28
REMARK   13  A    between atoms: O_28  and  C_29
REMARK   14  A    between atoms: C_29  and  C_30
REMARK   15  A    between atoms: C_30  and  O_32
REMARK                            x       y       z     vdW  Elec       q    Type
REMARK                         _______ _______ _______ _____ _____    ______ ____
ROOT
ATOM      1  C   UNL     1       0.750  11.143  19.121  0.00  0.00    +0.000 A 
ATOM      2  C   UNL     1       1.657  12.133  18.669  0.00  0.00    +0.000 A 
ATOM      3  C   UNL     1       1.978  13.263  19.449  0.00  0.00    +0.000 A 
ATOM      4  C   UNL     1       1.367  13.466  20.698  0.00  0.00    +0.000 A 
ATOM      5  C   UNL     1       1.711  14.632  21.598  0.00  0.00    +0.000 C 
ATOM      6  C   UNL     1       0.406  12.516  21.134  0.00  0.00    +0.000 A 
ATOM      7 CL   UNL     1      -0.515  12.976  22.549  0.00  0.00    +0.000 Cl
ATOM      8  C   UNL     1       0.145  11.319  20.402  0.00  0.00    +0.000 A 
ENDROOT
BRANCH   2   9
ATOM      9  O   UNL     1       2.263  12.076  17.435  0.00  0.00    +0.000 OA
ATOM     10  H   UNL     1       2.591  11.195  17.214  0.00  0.00    +0.000 HD
ENDBRANCH   2   9
BRANCH   3  11
ATOM     11  C   UNL     1       2.968  14.216  18.875  0.00  0.00    +0.000 C 
ATOM     12  O   UNL     1       4.159  13.968  18.749  0.00  0.00    +0.000 OA
ENDBRANCH   3  11
BRANCH   1  13
ATOM     13  C   UNL     1       0.387   9.947  18.243  0.00  0.00    +0.000 C 
BRANCH  13  16
ATOM     14  C   UNL     1       1.884   7.633  19.683  0.00  0.00    +0.000 C 
ATOM     15  C   UNL     1       2.239   8.190  18.334  0.00  0.00    +0.000 C 
ATOM     16  C   UNL     1       1.566   9.176  17.712  0.00  0.00    +0.000 C 
BRANCH  15  17
ATOM     17  C   UNL     1       3.289   7.445  17.652  0.00  0.00    +0.000 C 
ATOM     18  C   UNL     1       4.290   6.752  18.217  0.00  0.00    +0.000 C 
BRANCH  18  19
ATOM     19  C   UNL     1       5.401   5.969  17.448  0.00  0.00    +0.000 C 
ATOM     20  C   UNL     1       6.182   7.069  16.696  0.00  0.00    +0.000 C 
ATOM     21  C   UNL     1       6.340   5.179  18.433  0.00  0.00    +0.000 C 
ATOM     22  C   UNL     1       7.602   4.550  17.826  0.00  0.00    +0.000 C 
ATOM     23  C   UNL     1       5.539   4.107  19.204  0.00  0.00    +0.000 C 
ATOM     24  C   UNL     1       4.759   3.165  18.297  0.00  0.00    +0.000 C 
ATOM     25  C   UNL     1       3.970   3.905  17.236  0.00  0.00    +0.000 C 
ATOM     26  O   UNL     1       2.830   3.558  16.925  0.00  0.00    +0.000 OA
ATOM     27  C   UNL     1       4.684   5.002  16.455  0.00  0.00    +0.000 C 
ATOM     28  C   UNL     1       5.520   4.338  15.356  0.00  0.00    +0.000 C 
ENDBRANCH  18  19
ENDBRANCH  15  17
ENDBRANCH  13  16
ENDBRANCH   1  13
BRANCH   8  29
ATOM     29  O   UNL     1      -0.682  10.275  20.807  0.00  0.00    +0.000 OA
BRANCH  29  30
ATOM     30  C   UNL     1      -0.066   9.176  21.486  0.00  0.00    +0.000 C 
BRANCH  30  31
ATOM     31  C   UNL     1       0.649   9.482  22.796  0.00  0.00    +0.000 C 
ATOM     32  O   UNL     1       0.061   9.810  23.818  0.00  0.00    +0.000 OA
BRANCH  31  33
ATOM     33  O   UNL     1       1.985   9.320  22.742  0.00  0.00    +0.000 OA
ATOM     34  H   UNL     1       2.445  10.179  22.727  0.00  0.00    +0.000 HD
ENDBRANCH  31  33
ENDBRANCH  30  31
ENDBRANCH  29  30
ENDBRANCH   8  29
TORSDOF 10
ENDMDL
MODEL 5
REMARK VINA RESULT:      -7.4      1.986      4.047
REMARK  Name = 
REMARK  15 active torsions:
REMARK  status: ('A' for Active; 'I' for Inactive)
REMARK    1  A    between atoms: C_1  and  C_2
REMARK    2  A    between atoms: C_2  and  C_3
REMARK    3  A    between atoms: C_4  and  C_5
REMARK    4  A    between atoms: C_5  and  C_6
REMARK    5  A    between atoms: C_7  and  C_8
REMARK    6  A    between atoms: C_13  and  C_14
REMARK    7  A    between atoms: C_15  and  C_16
REMARK    8  A    between atoms: C_16  and  C_17
REMARK    9  A    between atoms: C_18  and  O_19
REMARK   10  A    between atoms: C_20  and  C_21
REMARK   11  A    between atoms: C_23  and  C_24
REMARK   12  A    between atoms: C_27  and  O_28
REMARK   13  A    between atoms: O_28  and  C_29
REMARK   14  A    between atoms: C_29  and  C_30
REMARK   15  A    between atoms: C_30  and  O_32
REMARK                            x       y       z     vdW  Elec       q    Type
REMARK                         _______ _______ _______ _____ _____    ______ ____
ROOT
ATOM      1  C   UNL     1      -0.146  10.586  19.611  0.00  0.00    +0.000 A 
ATOM      2  C   UNL     1       0.101  10.027  20.889  0.00  0.00    +0.000 A 
ATOM      3  C   UNL     1      -0.596  10.455  22.037  0.00  0.00    +0.000 A 
ATOM      4  C   UNL     1      -1.539  11.493  21.956  0.00  0.00    +0.000 A 
ATOM      5  C   UNL     1      -2.351  11.957  23.145  0.00  0.00    +0.000 C 
ATOM      6  C   UNL     1      -1.749  12.109  20.694  0.00  0.00    +0.000 A 
ATOM      7 CL   UNL     1      -2.713  13.569  20.722  0.00  0.00    +0.000 Cl
ATOM      8  C   UNL     1      -1.125  11.621  19.506  0.00  0.00    +0.000 A 
ENDROOT
BRANCH   2   9
ATOM      9  O   UNL     1       1.050   9.054  21.102  0.00  0.00    +0.000 OA
ATOM     10  H   UNL     1       0.752   8.172  20.846  0.00  0.00    +0.000 HD
ENDBRANCH   2   9
BRANCH   3  11
ATOM     11  C   UNL     1      -0.267   9.768  23.318  0.00  0.00    +0.000 C 
ATOM     12  O   UNL     1       0.863   9.698  23.782  0.00  0.00    +0.000 OA
ENDBRANCH   3  11
BRANCH   1  13
ATOM     13  C   UNL     1       0.648  10.136  18.386  0.00  0.00    +0.000 C 
BRANCH  13  16
ATOM     14  C   UNL     1       3.298   8.688  17.640  0.00  0.00    +0.000 C 
ATOM     15  C   UNL     1       1.993   8.009  17.941  0.00  0.00    +0.000 C 
ATOM     16  C   UNL     1       0.858   8.648  18.287  0.00  0.00    +0.000 C 
BRANCH  15  17
ATOM     17  C   UNL     1       2.089   6.557  18.004  0.00  0.00    +0.000 C 
ATOM     18  C   UNL     1       2.630   5.822  18.989  0.00  0.00    +0.000 C 
BRANCH  18  19
ATOM     19  C   UNL     1       2.718   4.263  19.016  0.00  0.00    +0.000 C 
ATOM     20  C   UNL     1       1.473   3.831  19.821  0.00  0.00    +0.000 C 
ATOM     21  C   UNL     1       2.692   3.657  17.564  0.00  0.00    +0.000 C 
ATOM     22  C   UNL     1       2.549   2.132  17.456  0.00  0.00    +0.000 C 
ATOM     23  C   UNL     1       3.924   4.125  16.759  0.00  0.00    +0.000 C 
ATOM     24  C   UNL     1       5.248   3.847  17.459  0.00  0.00    +0.000 C 
ATOM     25  C   UNL     1       5.236   4.282  18.911  0.00  0.00    +0.000 C 
ATOM     26  O   UNL     1       6.212   4.831  19.425  0.00  0.00    +0.000 OA
ATOM     27  C   UNL     1       4.036   3.885  19.762  0.00  0.00    +0.000 C 
ATOM     28  C   UNL     1       4.227   2.432  20.209  0.00  0.00    +0.000 C 
ENDBRANCH  18  19
ENDBRANCH  15  17
ENDBRANCH  13  16
ENDBRANCH   1  13
BRANCH   8  29
ATOM     29  O   UNL     1      -1.361  12.075  18.212  0.00  0.00    +0.000 OA
BRANCH  29  30
ATOM     30  C   UNL     1      -2.624  11.751  17.623  0.00  0.00    +0.000 C 
BRANCH  30  31
ATOM     31  C   UNL     1      -2.665  10.553  16.683  0.00  0.00    +0.000 C 
ATOM     32  O   UNL     1      -3.054   9.445  17.028  0.00  0.00    +0.000 OA
BRANCH  31  33
ATOM     33  O   UNL     1      -2.272  10.829  15.425  0.00  0.00    +0.000 OA
ATOM     34  H   UNL     1      -2.355  10.048  14.848  0.00  0.00    +0.000 HD
ENDBRANCH  31  33
ENDBRANCH  30  31
ENDBRANCH  29  30
ENDBRANCH   8  29
TORSDOF 10
ENDMDL
MODEL 6
REMARK VINA RESULT:      -7.3      2.517      3.979
REMARK  Name = 
REMARK  15 active torsions:
REMARK  status: ('A' for Active; 'I' for Inactive)
REMARK    1  A    between atoms: C_1  and  C_2
REMARK    2  A    between atoms: C_2  and  C_3
REMARK    3  A    between atoms: C_4  and  C_5
REMARK    4  A    between atoms: C_5  and  C_6
REMARK    5  A    between atoms: C_7  and  C_8
REMARK    6  A    between atoms: C_13  and  C_14
REMARK    7  A    between atoms: C_15  and  C_16
REMARK    8  A    between atoms: C_16  and  C_17
REMARK    9  A    between atoms: C_18  and  O_19
REMARK   10  A    between atoms: C_20  and  C_21
REMARK   11  A    between atoms: C_23  and  C_24
REMARK   12  A    between atoms: C_27  and  O_28
REMARK   13  A    between atoms: O_28  and  C_29
REMARK   14  A    between atoms: C_29  and  C_30
REMARK   15  A    between atoms: C_30  and  O_32
REMARK                            x       y       z     vdW  Elec       q    Type
REMARK                         _______ _______ _______ _____ _____    ______ ____
ROOT
ATOM      1  C   UNL     1       0.887  11.653  19.173  0.00  0.00    +0.000 A 
ATOM      2  C   UNL     1       1.962  12.373  18.595  0.00  0.00    +0.000 A 
ATOM      3  C   UNL     1       2.527  13.501  19.225  0.00  0.00    +0.000 A 
ATOM      4  C   UNL     1       2.007  13.978  20.439  0.00  0.00    +0.000 A 
ATOM      5  C   UNL     1       2.606  15.152  21.182  0.00  0.00    +0.000 C 
ATOM      6  C   UNL     1       0.887  13.307  20.996  0.00  0.00    +0.000 A 
ATOM      7 CL   UNL     1       0.120  14.118  22.344  0.00  0.00    +0.000 Cl
ATOM      8  C   UNL     1       0.368  12.107  20.424  0.00  0.00    +0.000 A 
ENDROOT
BRANCH   2   9
ATOM      9  O   UNL     1       2.507  12.041  17.377  0.00  0.00    +0.000 OA
ATOM     10  H   UNL     1       3.016  11.220  17.401  0.00  0.00    +0.000 HD
ENDBRANCH   2   9
BRANCH   3  11
ATOM     11  C   UNL     1       3.673  14.153  18.530  0.00  0.00    +0.000 C 
ATOM     12  O   UNL     1       3.548  14.929  17.592  0.00  0.00    +0.000 OA
ENDBRANCH   3  11
BRANCH   1  13
ATOM     13  C   UNL     1       0.264  10.457  18.456  0.00  0.00    +0.000 C 
BRANCH  13  16
ATOM     14  C   UNL     1       1.435   8.618  20.674  0.00  0.00    +0.000 C 
ATOM     15  C   UNL     1       1.728   8.502  19.206  0.00  0.00    +0.000 C 
ATOM     16  C   UNL     1       1.194   9.291  18.253  0.00  0.00    +0.000 C 
BRANCH  15  17
ATOM     17  C   UNL     1       2.520   7.330  18.857  0.00  0.00    +0.000 C 
ATOM     18  C   UNL     1       2.617   6.183  19.548  0.00  0.00    +0.000 C 
BRANCH  18  19
ATOM     19  C   UNL     1       3.483   4.948  19.142  0.00  0.00    +0.000 C 
ATOM     20  C   UNL     1       4.932   5.480  19.173  0.00  0.00    +0.000 C 
ATOM     21  C   UNL     1       3.296   3.754  20.150  0.00  0.00    +0.000 C 
ATOM     22  C   UNL     1       4.254   2.564  19.993  0.00  0.00    +0.000 C 
ATOM     23  C   UNL     1       1.835   3.255  20.136  0.00  0.00    +0.000 C 
ATOM     24  C   UNL     1       1.329   2.899  18.744  0.00  0.00    +0.000 C 
ATOM     25  C   UNL     1       1.643   3.973  17.722  0.00  0.00    +0.000 C 
ATOM     26  O   UNL     1       0.826   4.296  16.859  0.00  0.00    +0.000 OA
ATOM     27  C   UNL     1       3.058   4.539  17.697  0.00  0.00    +0.000 C 
ATOM     28  C   UNL     1       3.951   3.560  16.927  0.00  0.00    +0.000 C 
ENDBRANCH  18  19
ENDBRANCH  15  17
ENDBRANCH  13  16
ENDBRANCH   1  13
BRANCH   8  29
ATOM     29  O   UNL     1      -0.641  11.313  20.961  0.00  0.00    +0.000 OA
BRANCH  29  30
ATOM     30  C   UNL     1      -0.691  11.191  22.386  0.00  0.00    +0.000 C 
BRANCH  30  31
ATOM     31  C   UNL     1      -0.451   9.806  22.974  0.00  0.00    +0.000 C 
ATOM     32  O   UNL     1      -1.083   8.816  22.631  0.00  0.00    +0.000 OA
BRANCH  31  33
ATOM     33  O   UNL     1       0.545   9.760  23.879  0.00  0.00    +0.000 OA
ATOM     34  H   UNL     1       1.317  10.277  23.584  0.00  0.00    +0.000 HD
ENDBRANCH  31  33
ENDBRANCH  30  31
ENDBRANCH  29  30
ENDBRANCH   8  29
TORSDOF 10
ENDMDL
MODEL 7
REMARK VINA RESULT:      -7.3      1.177      1.493
REMARK  Name = 
REMARK  15 active torsions:
REMARK  status: ('A' for Active; 'I' for Inactive)
REMARK    1  A    between atoms: C_1  and  C_2
REMARK    2  A    between atoms: C_2  and  C_3
REMARK    3  A    between atoms: C_4  and  C_5
REMARK    4  A    between atoms: C_5  and  C_6
REMARK    5  A    between atoms: C_7  and  C_8
REMARK    6  A    between atoms: C_13  and  C_14
REMARK    7  A    between atoms: C_15  and  C_16
REMARK    8  A    between atoms: C_16  and  C_17
REMARK    9  A    between atoms: C_18  and  O_19
REMARK   10  A    between atoms: C_20  and  C_21
REMARK   11  A    between atoms: C_23  and  C_24
REMARK   12  A    between atoms: C_27  and  O_28
REMARK   13  A    between atoms: O_28  and  C_29
REMARK   14  A    between atoms: C_29  and  C_30
REMARK   15  A    between atoms: C_30  and  O_32
REMARK                            x       y       z     vdW  Elec       q    Type
REMARK                         _______ _______ _______ _____ _____    ______ ____
ROOT
ATOM      1  C   UNL     1      -1.039  11.383  19.092  0.00  0.00    +0.000 A 
ATOM      2  C   UNL     1      -1.640  10.838  17.931  0.00  0.00    +0.000 A 
ATOM      3  C   UNL     1      -2.997  11.060  17.619  0.00  0.00    +0.000 A 
ATOM      4  C   UNL     1      -3.818  11.802  18.484  0.00  0.00    +0.000 A 
ATOM      5  C   UNL     1      -5.265  12.112  18.175  0.00  0.00    +0.000 C 
ATOM      6  C   UNL     1      -3.246  12.298  19.686  0.00  0.00    +0.000 A 
ATOM      7 CL   UNL     1      -4.383  12.959  20.840  0.00  0.00    +0.000 Cl
ATOM      8  C   UNL     1      -1.853  12.167  19.966  0.00  0.00    +0.000 A 
ENDROOT
BRANCH   2   9
ATOM      9  O   UNL     1      -0.953  10.039  17.046  0.00  0.00    +0.000 OA
ATOM     10  H   UNL     1      -0.116   9.713  17.401  0.00  0.00    +0.000 HD
ENDBRANCH   2   9
BRANCH   3  11
ATOM     11  C   UNL     1      -3.502  10.457  16.353  0.00  0.00    +0.000 C 
ATOM     12  O   UNL     1      -3.142  10.812  15.239  0.00  0.00    +0.000 OA
ENDBRANCH   3  11
BRANCH   1  13
ATOM     13  C   UNL     1       0.423  11.098  19.431  0.00  0.00    +0.000 C 
BRANCH  13  16
ATOM     14  C   UNL     1       2.310   9.168  17.888  0.00  0.00    +0.000 C 
ATOM     15  C   UNL     1       1.513   8.811  19.109  0.00  0.00    +0.000 C 
ATOM     16  C   UNL     1       0.718   9.664  19.782  0.00  0.00    +0.000 C 
BRANCH  15  17
ATOM     17  C   UNL     1       1.805   7.482  19.630  0.00  0.00    +0.000 C 
ATOM     18  C   UNL     1       2.199   6.405  18.932  0.00  0.00    +0.000 C 
BRANCH  18  19
ATOM     19  C   UNL     1       2.499   4.994  19.530  0.00  0.00    +0.000 C 
ATOM     20  C   UNL     1       2.497   5.226  21.056  0.00  0.00    +0.000 C 
ATOM     21  C   UNL     1       1.402   3.945  19.114  0.00  0.00    +0.000 C 
ATOM     22  C   UNL     1       1.455   2.578  19.813  0.00  0.00    +0.000 C 
ATOM     23  C   UNL     1       1.390   3.749  17.582  0.00  0.00    +0.000 C 
ATOM     24  C   UNL     1       2.754   3.392  17.006  0.00  0.00    +0.000 C 
ATOM     25  C   UNL     1       3.854   4.297  17.522  0.00  0.00    +0.000 C 
ATOM     26  O   UNL     1       4.748   4.709  16.780  0.00  0.00    +0.000 OA
ATOM     27  C   UNL     1       3.911   4.565  19.021  0.00  0.00    +0.000 C 
ATOM     28  C   UNL     1       4.593   3.369  19.694  0.00  0.00    +0.000 C 
ENDBRANCH  18  19
ENDBRANCH  15  17
ENDBRANCH  13  16
ENDBRANCH   1  13
BRANCH   8  29
ATOM     29  O   UNL     1      -1.180  12.724  21.049  0.00  0.00    +0.000 OA
BRANCH  29  30
ATOM     30  C   UNL     1      -1.508  12.227  22.351  0.00  0.00    +0.000 C 
BRANCH  30  31
ATOM     31  C   UNL     1      -1.845  13.256  23.422  0.00  0.00    +0.000 C 
ATOM     32  O   UNL     1      -2.934  13.310  23.978  0.00  0.00    +0.000 OA
BRANCH  31  33
ATOM     33  O   UNL     1      -0.825  14.080  23.733  0.00  0.00    +0.000 OA
ATOM     34  H   UNL     1      -0.901  14.930  23.262  0.00  0.00    +0.000 HD
ENDBRANCH  31  33
ENDBRANCH  30  31
ENDBRANCH  29  30
ENDBRANCH   8  29
TORSDOF 10
ENDMDL
MODEL 8
REMARK VINA RESULT:      -7.3      1.731      2.257
REMARK  Name = 
REMARK  15 active torsions:
REMARK  status: ('A' for Active; 'I' for Inactive)
REMARK    1  A    between atoms: C_1  and  C_2
REMARK    2  A    between atoms: C_2  and  C_3
REMARK    3  A    between atoms: C_4  and  C_5
REMARK    4  A    between atoms: C_5  and  C_6
REMARK    5  A    between atoms: C_7  and  C_8
REMARK    6  A    between atoms: C_13  and  C_14
REMARK    7  A    between atoms: C_15  and  C_16
REMARK    8  A    between atoms: C_16  and  C_17
REMARK    9  A    between atoms: C_18  and  O_19
REMARK   10  A    between atoms: C_20  and  C_21
REMARK   11  A    between atoms: C_23  and  C_24
REMARK   12  A    between atoms: C_27  and  O_28
REMARK   13  A    between atoms: O_28  and  C_29
REMARK   14  A    between atoms: C_29  and  C_30
REMARK   15  A    between atoms: C_30  and  O_32
REMARK                            x       y       z     vdW  Elec       q    Type
REMARK                         _______ _______ _______ _____ _____    ______ ____
ROOT
ATOM      1  C   UNL     1       0.218  11.143  18.945  0.00  0.00    +0.000 A 
ATOM      2  C   UNL     1      -1.065  10.996  18.362  0.00  0.00    +0.000 A 
ATOM      3  C   UNL     1      -2.197  11.667  18.870  0.00  0.00    +0.000 A 
ATOM      4  C   UNL     1      -2.094  12.478  20.012  0.00  0.00    +0.000 A 
ATOM      5  C   UNL     1      -3.263  13.259  20.569  0.00  0.00    +0.000 C 
ATOM      6  C   UNL     1      -0.828  12.582  20.647  0.00  0.00    +0.000 A 
ATOM      7 CL   UNL     1      -0.835  13.369  22.210  0.00  0.00    +0.000 Cl
ATOM      8  C   UNL     1       0.345  11.991  20.087  0.00  0.00    +0.000 A 
ENDROOT
BRANCH   2   9
ATOM      9  O   UNL     1      -1.300  10.174  17.284  0.00  0.00    +0.000 OA
ATOM     10  H   UNL     1      -1.680   9.321  17.534  0.00  0.00    +0.000 HD
ENDBRANCH   2   9
BRANCH   3  11
ATOM     11  C   UNL     1      -3.484  11.452  18.150  0.00  0.00    +0.000 C 
ATOM     12  O   UNL     1      -3.633  11.643  16.951  0.00  0.00    +0.000 OA
ENDBRANCH   3  11
BRANCH   1  13
ATOM     13  C   UNL     1       1.423  10.377  18.403  0.00  0.00    +0.000 C 
BRANCH  13  16
ATOM     14  C   UNL     1       3.517   8.296  17.426  0.00  0.00    +0.000 C 
ATOM     15  C   UNL     1       2.201   7.967  18.069  0.00  0.00    +0.000 C 
ATOM     16  C   UNL     1       1.314   8.879  18.509  0.00  0.00    +0.000 C 
BRANCH  15  17
ATOM     17  C   UNL     1       2.025   6.547  18.348  0.00  0.00    +0.000 C 
ATOM     18  C   UNL     1       2.585   5.841  19.342  0.00  0.00    +0.000 C 
BRANCH  18  19
ATOM     19  C   UNL     1       2.374   4.316  19.605  0.00  0.00    +0.000 C 
ATOM     20  C   UNL     1       1.399   4.274  20.801  0.00  0.00    +0.000 C 
ATOM     21  C   UNL     1       1.761   3.592  18.349  0.00  0.00    +0.000 C 
ATOM     22  C   UNL     1       1.299   2.142  18.547  0.00  0.00    +0.000 C 
ATOM     23  C   UNL     1       2.731   3.673  17.149  0.00  0.00    +0.000 C 
ATOM     24  C   UNL     1       4.130   3.161  17.465  0.00  0.00    +0.000 C 
ATOM     25  C   UNL     1       4.674   3.727  18.760  0.00  0.00    +0.000 C 
ATOM     26  O   UNL     1       5.851   4.078  18.864  0.00  0.00    +0.000 OA
ATOM     27  C   UNL     1       3.763   3.713  19.982  0.00  0.00    +0.000 C 
ATOM     28  C   UNL     1       3.804   2.308  20.591  0.00  0.00    +0.000 C 
ENDBRANCH  18  19
ENDBRANCH  15  17
ENDBRANCH  13  16
ENDBRANCH   1  13
BRANCH   8  29
ATOM     29  O   UNL     1       1.643  12.139  20.565  0.00  0.00    +0.000 OA
BRANCH  29  30
ATOM     30  C   UNL     1       2.227  13.442  20.484  0.00  0.00    +0.000 C 
BRANCH  30  31
ATOM     31  C   UNL     1       2.445  14.021  19.092  0.00  0.00    +0.000 C 
ATOM     32  O   UNL     1       3.140  13.477  18.243  0.00  0.00    +0.000 OA
BRANCH  31  33
ATOM     33  O   UNL     1       1.774  15.166  18.862  0.00  0.00    +0.000 OA
ATOM     34  H   UNL     1       1.455  15.211  17.942  0.00  0.00    +0.000 HD
ENDBRANCH  31  33
ENDBRANCH  30  31
ENDBRANCH  29  30
ENDBRANCH   8  29
TORSDOF 10
ENDMDL
MODEL 9
REMARK VINA RESULT:      -7.3      1.500      4.030
REMARK  Name = 
REMARK  15 active torsions:
REMARK  status: ('A' for Active; 'I' for Inactive)
REMARK    1  A    between atoms: C_1  and  C_2
REMARK    2  A    between atoms: C_2  and  C_3
REMARK    3  A    between atoms: C_4  and  C_5
REMARK    4  A    between atoms: C_5  and  C_6
REMARK    5  A    between atoms: C_7  and  C_8
REMARK    6  A    between atoms: C_13  and  C_14
REMARK    7  A    between atoms: C_15  and  C_16
REMARK    8  A    between atoms: C_16  and  C_17
REMARK    9  A    between atoms: C_18  and  O_19
REMARK   10  A    between atoms: C_20  and  C_21
REMARK   11  A    between atoms: C_23  and  C_24
REMARK   12  A    between atoms: C_27  and  O_28
REMARK   13  A    between atoms: O_28  and  C_29
REMARK   14  A    between atoms: C_29  and  C_30
REMARK   15  A    between atoms: C_30  and  O_32
REMARK                            x       y       z     vdW  Elec       q    Type
REMARK                         _______ _______ _______ _____ _____    ______ ____
ROOT
ATOM      1  C   UNL     1      -0.697  11.439  20.355  0.00  0.00    +0.000 A 
ATOM      2  C   UNL     1      -1.055  11.865  21.657  0.00  0.00    +0.000 A 
ATOM      3  C   UNL     1      -2.363  12.290  21.970  0.00  0.00    +0.000 A 
ATOM      4  C   UNL     1      -3.353  12.345  20.976  0.00  0.00    +0.000 A 
ATOM      5  C   UNL     1      -4.783  12.744  21.266  0.00  0.00    +0.000 C 
ATOM      6  C   UNL     1      -2.991  11.986  19.650  0.00  0.00    +0.000 A 
ATOM      7 CL   UNL     1      -4.184  12.349  18.422  0.00  0.00    +0.000 Cl
ATOM      8  C   UNL     1      -1.701  11.460  19.340  0.00  0.00    +0.000 A 
ENDROOT
BRANCH   2   9
ATOM      9  O   UNL     1      -0.153  11.919  22.694  0.00  0.00    +0.000 OA
ATOM     10  H   UNL     1       0.148  12.817  22.888  0.00  0.00    +0.000 HD
ENDBRANCH   2   9
BRANCH   3  11
ATOM     11  C   UNL     1      -2.620  12.685  23.383  0.00  0.00    +0.000 C 
ATOM     12  O   UNL     1      -2.265  13.750  23.868  0.00  0.00    +0.000 OA
ENDBRANCH   3  11
BRANCH   1  13
ATOM     13  C   UNL     1       0.735  11.021  20.028  0.00  0.00    +0.000 C 
BRANCH  13  16
ATOM     14  C   UNL     1       1.441   9.048  22.326  0.00  0.00    +0.000 C 
ATOM     15  C   UNL     1       1.271   8.673  20.882  0.00  0.00    +0.000 C 
ATOM     16  C   UNL     1       0.942   9.535  19.901  0.00  0.00    +0.000 C 
BRANCH  15  17
ATOM     17  C   UNL     1       1.320   7.237  20.641  0.00  0.00    +0.000 C 
ATOM     18  C   UNL     1       2.200   6.573  19.874  0.00  0.00    +0.000 C 
BRANCH  18  19
ATOM     19  C   UNL     1       2.216   5.030  19.637  0.00  0.00    +0.000 C 
ATOM     20  C   UNL     1       1.046   4.507  20.499  0.00  0.00    +0.000 C 
ATOM     21  C   UNL     1       2.004   4.676  18.119  0.00  0.00    +0.000 C 
ATOM     22  C   UNL     1       1.777   3.195  17.782  0.00  0.00    +0.000 C 
ATOM     23  C   UNL     1       3.162   5.236  17.264  0.00  0.00    +0.000 C 
ATOM     24  C   UNL     1       4.539   4.806  17.753  0.00  0.00    +0.000 C 
ATOM     25  C   UNL     1       4.705   4.992  19.248  0.00  0.00    +0.000 C 
ATOM     26  O   UNL     1       5.757   5.419  19.728  0.00  0.00    +0.000 OA
ATOM     27  C   UNL     1       3.587   4.495  20.155  0.00  0.00    +0.000 C 
ATOM     28  C   UNL     1       3.756   2.982  20.336  0.00  0.00    +0.000 C 
ENDBRANCH  18  19
ENDBRANCH  15  17
ENDBRANCH  13  16
ENDBRANCH   1  13
BRANCH   8  29
ATOM     29  O   UNL     1      -1.295  10.966  18.104  0.00  0.00    +0.000 OA
BRANCH  29  30
ATOM     30  C   UNL     1      -2.149  10.012  17.465  0.00  0.00    +0.000 C 
BRANCH  30  31
ATOM     31  C   UNL     1      -2.552  10.296  16.024  0.00  0.00    +0.000 C 
ATOM     32  O   UNL     1      -2.917   9.423  15.248  0.00  0.00    +0.000 OA
BRANCH  31  33
ATOM     33  O   UNL     1      -2.509  11.600  15.689  0.00  0.00    +0.000 OA
ATOM     34  H   UNL     1      -3.095  12.131  16.259  0.00  0.00    +0.000 HD
ENDBRANCH  31  33
ENDBRANCH  30  31
ENDBRANCH  29  30
ENDBRANCH   8  29
TORSDOF 10
ENDMDL
