MODEL 1
REMARK VINA RESULT:      -8.1      0.000      0.000
REMARK  Name = 
REMARK  6 active torsions:
REMARK  status: ('A' for Active; 'I' for Inactive)
REMARK    1  A    between atoms: C_1  and  C_2
REMARK    2  A    between atoms: C_2  and  C_3
REMARK    3  A    between atoms: C_2  and  C_4
REMARK    4  A    between atoms: C_9  and  C_11
REMARK    5  A    between atoms: N_13  and  C_14
REMARK    6  A    between atoms: C_14  and  C_15
REMARK                            x       y       z     vdW  Elec       q    Type
REMARK                         _______ _______ _______ _____ _____    ______ ____
ROOT
ATOM      1  C   UNL     1       6.854   6.667  17.122  0.00  0.00    +0.000 C 
ATOM      2  C   UNL     1       6.409   5.573  18.122  0.00  0.00    +0.000 C 
ATOM      3  N   UNL     1       5.525   4.549  17.515  0.00  0.00    +0.000 NA
ATOM      4  C   UNL     1       6.205   4.029  16.311  0.00  0.00    +0.000 C 
ATOM      5  C   UNL     1       6.685   5.125  15.342  0.00  0.00    +0.000 C 
ATOM      6  O   UNL     1       7.532   6.087  15.999  0.00  0.00    +0.000 OA
ENDROOT
BRANCH   1  12
ATOM      7  C   UNL     1       9.570  11.675  19.024  0.00  0.00    +0.000 A 
ATOM      8  N   UNL     1       8.758  12.236  18.151  0.00  0.00    +0.000 NA
ATOM      9  N   UNL     1       8.007  11.296  17.460  0.00  0.00    +0.000 NA
ATOM     10  C   UNL     1       8.252  10.071  17.870  0.00  0.00    +0.000 A 
ATOM     11  N   UNL     1       7.611   8.962  17.376  0.00  0.00    +0.000 N 
ATOM     12  C   UNL     1       7.701   7.689  17.889  0.00  0.00    +0.000 C 
ATOM     13  O   UNL     1       8.328   7.337  18.885  0.00  0.00    +0.000 OA
ATOM     14  S   UNL     1       9.477   9.964  19.050  0.00  0.00    +0.000 S 
ATOM     15  H   UNL     1       6.960   9.122  16.611  0.00  0.00    +0.000 HD
BRANCH   7  17
ATOM     16  C   UNL     1       9.984  12.362  21.386  0.00  0.00    +0.000 C 
ATOM     17  C   UNL     1      10.507  12.390  19.953  0.00  0.00    +0.000 C 
ATOM     18  C   UNL     1      11.911  11.794  19.867  0.00  0.00    +0.000 C 
ENDBRANCH   7  17
ENDBRANCH   1  12
BRANCH   3  19
ATOM     19  C   UNL     1       4.194   5.126  17.242  0.00  0.00    +0.000 C 
BRANCH  19  20
ATOM     20  C   UNL     1       3.074   4.513  18.048  0.00  0.00    +0.000 A 
ATOM     21  C   UNL     1       2.482   3.309  17.645  0.00  0.00    +0.000 A 
ATOM     22  C   UNL     1       1.463   2.737  18.406  0.00  0.00    +0.000 A 
ATOM     23  C   UNL     1       1.024   3.363  19.572  0.00  0.00    +0.000 A 
ATOM     24  C   UNL     1       1.602   4.564  19.979  0.00  0.00    +0.000 A 
ATOM     25  C   UNL     1       2.624   5.136  19.221  0.00  0.00    +0.000 A 
ENDBRANCH  19  20
ENDBRANCH   3  19
TORSDOF 4
ENDMDL
MODEL 2
REMARK VINA RESULT:      -8.1      0.380      1.016
REMARK  Name = 
REMARK  6 active torsions:
REMARK  status: ('A' for Active; 'I' for Inactive)
REMARK    1  A    between atoms: C_1  and  C_2
REMARK    2  A    between atoms: C_2  and  C_3
REMARK    3  A    between atoms: C_2  and  C_4
REMARK    4  A    between atoms: C_9  and  C_11
REMARK    5  A    between atoms: N_13  and  C_14
REMARK    6  A    between atoms: C_14  and  C_15
REMARK                            x       y       z     vdW  Elec       q    Type
REMARK                         _______ _______ _______ _____ _____    ______ ____
ROOT
ATOM      1  C   UNL     1       6.954   6.751  17.150  0.00  0.00    +0.000 C 
ATOM      2  C   UNL     1       6.510   5.662  18.156  0.00  0.00    +0.000 C 
ATOM      3  N   UNL     1       5.629   4.632  17.555  0.00  0.00    +0.000 NA
ATOM      4  C   UNL     1       6.312   4.106  16.355  0.00  0.00    +0.000 C 
ATOM      5  C   UNL     1       6.790   5.197  15.379  0.00  0.00    +0.000 C 
ATOM      6  O   UNL     1       7.635   6.165  16.032  0.00  0.00    +0.000 OA
ENDROOT
BRANCH   1  12
ATOM      7  C   UNL     1       9.626  11.783  19.048  0.00  0.00    +0.000 A 
ATOM      8  N   UNL     1       8.792  12.339  18.193  0.00  0.00    +0.000 NA
ATOM      9  N   UNL     1       8.044  11.393  17.506  0.00  0.00    +0.000 NA
ATOM     10  C   UNL     1       8.314  10.168  17.903  0.00  0.00    +0.000 A 
ATOM     11  N   UNL     1       7.682   9.054  17.410  0.00  0.00    +0.000 N 
ATOM     12  C   UNL     1       7.798   7.779  17.912  0.00  0.00    +0.000 C 
ATOM     13  O   UNL     1       8.446   7.429  18.895  0.00  0.00    +0.000 OA
ATOM     14  S   UNL     1       9.559  10.071  19.062  0.00  0.00    +0.000 S 
ATOM     15  H   UNL     1       7.016   9.211  16.657  0.00  0.00    +0.000 HD
BRANCH   7  17
ATOM     16  C   UNL     1      10.036  12.512  21.399  0.00  0.00    +0.000 C 
ATOM     17  C   UNL     1      10.568  12.505  19.968  0.00  0.00    +0.000 C 
ATOM     18  C   UNL     1      11.964  11.890  19.902  0.00  0.00    +0.000 C 
ENDBRANCH   7  17
ENDBRANCH   1  12
BRANCH   3  19
ATOM     19  C   UNL     1       4.297   5.204  17.277  0.00  0.00    +0.000 C 
BRANCH  19  20
ATOM     20  C   UNL     1       3.223   4.779  18.248  0.00  0.00    +0.000 A 
ATOM     21  C   UNL     1       3.243   5.230  19.575  0.00  0.00    +0.000 A 
ATOM     22  C   UNL     1       2.235   4.851  20.461  0.00  0.00    +0.000 A 
ATOM     23  C   UNL     1       1.205   4.016  20.034  0.00  0.00    +0.000 A 
ATOM     24  C   UNL     1       1.179   3.556  18.720  0.00  0.00    +0.000 A 
ATOM     25  C   UNL     1       2.183   3.937  17.829  0.00  0.00    +0.000 A 
ENDBRANCH  19  20
ENDBRANCH   3  19
TORSDOF 4
ENDMDL
MODEL 3
REMARK VINA RESULT:      -8.0      5.128      6.400
REMARK  Name = 
REMARK  6 active torsions:
REMARK  status: ('A' for Active; 'I' for Inactive)
REMARK    1  A    between atoms: C_1  and  C_2
REMARK    2  A    between atoms: C_2  and  C_3
REMARK    3  A    between atoms: C_2  and  C_4
REMARK    4  A    between atoms: C_9  and  C_11
REMARK    5  A    between atoms: N_13  and  C_14
REMARK    6  A    between atoms: C_14  and  C_15
REMARK                            x       y       z     vdW  Elec       q    Type
REMARK                         _______ _______ _______ _____ _____    ______ ____
ROOT
ATOM      1  C   UNL     1       3.483   6.522  17.625  0.00  0.00    +0.000 C 
ATOM      2  C   UNL     1       4.234   5.867  18.808  0.00  0.00    +0.000 C 
ATOM      3  N   UNL     1       5.007   4.664  18.418  0.00  0.00    +0.000 NA
ATOM      4  C   UNL     1       5.876   5.040  17.284  0.00  0.00    +0.000 C 
ATOM      5  C   UNL     1       5.129   5.731  16.128  0.00  0.00    +0.000 C 
ATOM      6  O   UNL     1       4.396   6.886  16.580  0.00  0.00    +0.000 OA
ENDROOT
BRANCH   1  12
ATOM      7  C   UNL     1       0.289  10.236  21.099  0.00  0.00    +0.000 A 
ATOM      8  N   UNL     1       0.626   9.370  22.032  0.00  0.00    +0.000 NA
ATOM      9  N   UNL     1       1.345   8.301  21.515  0.00  0.00    +0.000 NA
ATOM     10  C   UNL     1       1.558   8.429  20.223  0.00  0.00    +0.000 A 
ATOM     11  N   UNL     1       2.279   7.529  19.479  0.00  0.00    +0.000 N 
ATOM     12  C   UNL     1       2.678   7.704  18.175  0.00  0.00    +0.000 C 
ATOM     13  O   UNL     1       2.494   8.697  17.474  0.00  0.00    +0.000 OA
ATOM     14  S   UNL     1       0.819   9.800  19.529  0.00  0.00    +0.000 S 
ATOM     15  H   UNL     1       2.603   6.699  19.969  0.00  0.00    +0.000 HD
BRANCH   7  17
ATOM     16  C   UNL     1      -1.457  11.754  20.167  0.00  0.00    +0.000 C 
ATOM     17  C   UNL     1      -0.472  11.514  21.307  0.00  0.00    +0.000 C 
ATOM     18  C   UNL     1      -1.184  11.503  22.658  0.00  0.00    +0.000 C 
ENDBRANCH   7  17
ENDBRANCH   1  12
BRANCH   3  19
ATOM     19  C   UNL     1       4.091   3.547  18.119  0.00  0.00    +0.000 C 
BRANCH  19  20
ATOM     20  C   UNL     1       3.081   3.264  19.205  0.00  0.00    +0.000 A 
ATOM     21  C   UNL     1       3.499   2.825  20.470  0.00  0.00    +0.000 A 
ATOM     22  C   UNL     1       2.563   2.587  21.475  0.00  0.00    +0.000 A 
ATOM     23  C   UNL     1       1.205   2.778  21.227  0.00  0.00    +0.000 A 
ATOM     24  C   UNL     1       0.778   3.207  19.973  0.00  0.00    +0.000 A 
ATOM     25  C   UNL     1       1.713   3.451  18.966  0.00  0.00    +0.000 A 
ENDBRANCH  19  20
ENDBRANCH   3  19
TORSDOF 4
ENDMDL
MODEL 4
REMARK VINA RESULT:      -8.0      5.112      6.205
REMARK  Name = 
REMARK  6 active torsions:
REMARK  status: ('A' for Active; 'I' for Inactive)
REMARK    1  A    between atoms: C_1  and  C_2
REMARK    2  A    between atoms: C_2  and  C_3
REMARK    3  A    between atoms: C_2  and  C_4
REMARK    4  A    between atoms: C_9  and  C_11
REMARK    5  A    between atoms: N_13  and  C_14
REMARK    6  A    between atoms: C_14  and  C_15
REMARK                            x       y       z     vdW  Elec       q    Type
REMARK                         _______ _______ _______ _____ _____    ______ ____
ROOT
ATOM      1  C   UNL     1       3.527   6.509  17.632  0.00  0.00    +0.000 C 
ATOM      2  C   UNL     1       4.287   5.868  18.818  0.00  0.00    +0.000 C 
ATOM      3  N   UNL     1       5.069   4.669  18.434  0.00  0.00    +0.000 NA
ATOM      4  C   UNL     1       5.932   5.044  17.294  0.00  0.00    +0.000 C 
ATOM      5  C   UNL     1       5.176   5.721  16.136  0.00  0.00    +0.000 C 
ATOM      6  O   UNL     1       4.434   6.873  16.582  0.00  0.00    +0.000 OA
ENDROOT
BRANCH   1  12
ATOM      7  C   UNL     1       0.264  10.195  21.071  0.00  0.00    +0.000 A 
ATOM      8  N   UNL     1       0.573   9.316  22.002  0.00  0.00    +0.000 NA
ATOM      9  N   UNL     1       1.300   8.250  21.489  0.00  0.00    +0.000 NA
ATOM     10  C   UNL     1       1.546   8.393  20.205  0.00  0.00    +0.000 A 
ATOM     11  N   UNL     1       2.281   7.499  19.468  0.00  0.00    +0.000 N 
ATOM     12  C   UNL     1       2.714   7.688  18.176  0.00  0.00    +0.000 C 
ATOM     13  O   UNL     1       2.552   8.690  17.483  0.00  0.00    +0.000 OA
ATOM     14  S   UNL     1       0.831   9.775  19.510  0.00  0.00    +0.000 S 
ATOM     15  H   UNL     1       2.590   6.661  19.955  0.00  0.00    +0.000 HD
BRANCH   7  17
ATOM     16  C   UNL     1      -1.023  11.575  22.704  0.00  0.00    +0.000 C 
ATOM     17  C   UNL     1      -0.497  11.474  21.275  0.00  0.00    +0.000 C 
ATOM     18  C   UNL     1       0.372  12.679  20.921  0.00  0.00    +0.000 C 
ENDBRANCH   7  17
ENDBRANCH   1  12
BRANCH   3  19
ATOM     19  C   UNL     1       4.161   3.542  18.145  0.00  0.00    +0.000 C 
BRANCH  19  20
ATOM     20  C   UNL     1       3.129   3.286  19.217  0.00  0.00    +0.000 A 
ATOM     21  C   UNL     1       1.765   3.471  18.951  0.00  0.00    +0.000 A 
ATOM     22  C   UNL     1       0.816   3.211  19.938  0.00  0.00    +0.000 A 
ATOM     23  C   UNL     1       1.218   2.770  21.198  0.00  0.00    +0.000 A 
ATOM     24  C   UNL     1       2.571   2.589  21.475  0.00  0.00    +0.000 A 
ATOM     25  C   UNL     1       3.523   2.845  20.487  0.00  0.00    +0.000 A 
ENDBRANCH  19  20
ENDBRANCH   3  19
TORSDOF 4
ENDMDL
MODEL 5
REMARK VINA RESULT:      -7.8      5.525      7.621
REMARK  Name = 
REMARK  6 active torsions:
REMARK  status: ('A' for Active; 'I' for Inactive)
REMARK    1  A    between atoms: C_1  and  C_2
REMARK    2  A    between atoms: C_2  and  C_3
REMARK    3  A    between atoms: C_2  and  C_4
REMARK    4  A    between atoms: C_9  and  C_11
REMARK    5  A    between atoms: N_13  and  C_14
REMARK    6  A    between atoms: C_14  and  C_15
REMARK                            x       y       z     vdW  Elec       q    Type
REMARK                         _______ _______ _______ _____ _____    ______ ____
ROOT
ATOM      1  C   UNL     1       2.554   6.135  19.983  0.00  0.00    +0.000 C 
ATOM      2  C   UNL     1       2.543   5.682  18.503  0.00  0.00    +0.000 C 
ATOM      3  N   UNL     1       3.176   4.358  18.291  0.00  0.00    +0.000 NA
ATOM      4  C   UNL     1       2.538   3.404  19.221  0.00  0.00    +0.000 C 
ATOM      5  C   UNL     1       2.513   3.881  20.685  0.00  0.00    +0.000 C 
ATOM      6  O   UNL     1       1.891   5.174  20.816  0.00  0.00    +0.000 OA
ENDROOT
BRANCH   1  12
ATOM      7  C   UNL     1      -0.111  11.207  21.783  0.00  0.00    +0.000 A 
ATOM      8  N   UNL     1       0.042  10.658  22.971  0.00  0.00    +0.000 NA
ATOM      9  N   UNL     1       0.594   9.388  22.890  0.00  0.00    +0.000 NA
ATOM     10  C   UNL     1       0.874   9.049  21.650  0.00  0.00    +0.000 A 
ATOM     11  N   UNL     1       1.463   7.861  21.301  0.00  0.00    +0.000 N 
ATOM     12  C   UNL     1       1.935   7.535  20.051  0.00  0.00    +0.000 C 
ATOM     13  O   UNL     1       1.944   8.256  19.055  0.00  0.00    +0.000 OA
ATOM     14  S   UNL     1       0.398  10.205  20.490  0.00  0.00    +0.000 S 
ATOM     15  H   UNL     1       1.628   7.201  22.058  0.00  0.00    +0.000 HD
BRANCH   7  17
ATOM     16  C   UNL     1      -1.818  12.509  20.513  0.00  0.00    +0.000 C 
ATOM     17  C   UNL     1      -0.658  12.577  21.502  0.00  0.00    +0.000 C 
ATOM     18  C   UNL     1      -1.078  13.266  22.799  0.00  0.00    +0.000 C 
ENDBRANCH   7  17
ENDBRANCH   1  12
BRANCH   3  19
ATOM     19  C   UNL     1       4.638   4.463  18.459  0.00  0.00    +0.000 C 
BRANCH  19  20
ATOM     20  C   UNL     1       5.409   4.533  17.162  0.00  0.00    +0.000 A 
ATOM     21  C   UNL     1       6.769   4.870  17.159  0.00  0.00    +0.000 A 
ATOM     22  C   UNL     1       7.480   4.910  15.960  0.00  0.00    +0.000 A 
ATOM     23  C   UNL     1       6.840   4.622  14.756  0.00  0.00    +0.000 A 
ATOM     24  C   UNL     1       5.487   4.292  14.747  0.00  0.00    +0.000 A 
ATOM     25  C   UNL     1       4.773   4.246  15.946  0.00  0.00    +0.000 A 
ENDBRANCH  19  20
ENDBRANCH   3  19
TORSDOF 4
ENDMDL
MODEL 6
REMARK VINA RESULT:      -7.8      5.337      7.385
REMARK  Name = 
REMARK  6 active torsions:
REMARK  status: ('A' for Active; 'I' for Inactive)
REMARK    1  A    between atoms: C_1  and  C_2
REMARK    2  A    between atoms: C_2  and  C_3
REMARK    3  A    between atoms: C_2  and  C_4
REMARK    4  A    between atoms: C_9  and  C_11
REMARK    5  A    between atoms: N_13  and  C_14
REMARK    6  A    between atoms: C_14  and  C_15
REMARK                            x       y       z     vdW  Elec       q    Type
REMARK                         _______ _______ _______ _____ _____    ______ ____
ROOT
ATOM      1  C   UNL     1       2.490   5.742  20.029  0.00  0.00    +0.000 C 
ATOM      2  C   UNL     1       2.512   5.217  18.573  0.00  0.00    +0.000 C 
ATOM      3  N   UNL     1       3.038   3.837  18.455  0.00  0.00    +0.000 NA
ATOM      4  C   UNL     1       2.276   2.987  19.393  0.00  0.00    +0.000 C 
ATOM      5  C   UNL     1       2.222   3.537  20.830  0.00  0.00    +0.000 C 
ATOM      6  O   UNL     1       1.708   4.882  20.869  0.00  0.00    +0.000 OA
ENDROOT
BRANCH   1  12
ATOM      7  C   UNL     1       0.247  11.123  21.470  0.00  0.00    +0.000 A 
ATOM      8  N   UNL     1       0.341  10.639  22.692  0.00  0.00    +0.000 NA
ATOM      9  N   UNL     1       0.784   9.324  22.698  0.00  0.00    +0.000 NA
ATOM     10  C   UNL     1       1.046   8.886  21.486  0.00  0.00    +0.000 A 
ATOM     11  N   UNL     1       1.537   7.632  21.220  0.00  0.00    +0.000 N 
ATOM     12  C   UNL     1       1.992   7.191  20.000  0.00  0.00    +0.000 C 
ATOM     13  O   UNL     1       2.073   7.844  18.962  0.00  0.00    +0.000 OA
ATOM     14  S   UNL     1       0.682  10.002  20.250  0.00  0.00    +0.000 S 
ATOM     15  H   UNL     1       1.637   7.010  22.019  0.00  0.00    +0.000 HD
BRANCH   7  17
ATOM     16  C   UNL     1      -1.204  12.485  19.966  0.00  0.00    +0.000 C 
ATOM     17  C   UNL     1      -0.179  12.513  21.096  0.00  0.00    +0.000 C 
ATOM     18  C   UNL     1      -0.722  13.256  22.315  0.00  0.00    +0.000 C 
ENDBRANCH   7  17
ENDBRANCH   1  12
BRANCH   3  19
ATOM     19  C   UNL     1       4.494   3.827  18.693  0.00  0.00    +0.000 C 
BRANCH  19  20
ATOM     20  C   UNL     1       5.319   4.305  17.522  0.00  0.00    +0.000 A 
ATOM     21  C   UNL     1       5.129   3.757  16.246  0.00  0.00    +0.000 A 
ATOM     22  C   UNL     1       5.879   4.219  15.165  0.00  0.00    +0.000 A 
ATOM     23  C   UNL     1       6.825   5.226  15.348  0.00  0.00    +0.000 A 
ATOM     24  C   UNL     1       7.026   5.773  16.613  0.00  0.00    +0.000 A 
ATOM     25  C   UNL     1       6.274   5.316  17.696  0.00  0.00    +0.000 A 
ENDBRANCH  19  20
ENDBRANCH   3  19
TORSDOF 4
ENDMDL
MODEL 7
REMARK VINA RESULT:      -7.7      5.319      7.248
REMARK  Name = 
REMARK  6 active torsions:
REMARK  status: ('A' for Active; 'I' for Inactive)
REMARK    1  A    between atoms: C_1  and  C_2
REMARK    2  A    between atoms: C_2  and  C_3
REMARK    3  A    between atoms: C_2  and  C_4
REMARK    4  A    between atoms: C_9  and  C_11
REMARK    5  A    between atoms: N_13  and  C_14
REMARK    6  A    between atoms: C_14  and  C_15
REMARK                            x       y       z     vdW  Elec       q    Type
REMARK                         _______ _______ _______ _____ _____    ______ ____
ROOT
ATOM      1  C   UNL     1       2.566   5.763  20.120  0.00  0.00    +0.000 C 
ATOM      2  C   UNL     1       2.560   5.160  18.695  0.00  0.00    +0.000 C 
ATOM      3  N   UNL     1       3.105   3.782  18.638  0.00  0.00    +0.000 NA
ATOM      4  C   UNL     1       2.378   2.974  19.640  0.00  0.00    +0.000 C 
ATOM      5  C   UNL     1       2.351   3.601  21.046  0.00  0.00    +0.000 C 
ATOM      6  O   UNL     1       1.817   4.939  21.025  0.00  0.00    +0.000 OA
ENDROOT
BRANCH   1  12
ATOM      7  C   UNL     1       0.242  11.169  21.316  0.00  0.00    +0.000 A 
ATOM      8  N   UNL     1       0.346  10.744  22.559  0.00  0.00    +0.000 NA
ATOM      9  N   UNL     1       0.809   9.438  22.625  0.00  0.00    +0.000 NA
ATOM     10  C   UNL     1       1.076   8.948  21.434  0.00  0.00    +0.000 A 
ATOM     11  N   UNL     1       1.586   7.691  21.225  0.00  0.00    +0.000 N 
ATOM     12  C   UNL     1       2.045   7.200  20.025  0.00  0.00    +0.000 C 
ATOM     13  O   UNL     1       2.114   7.806  18.958  0.00  0.00    +0.000 OA
ATOM     14  S   UNL     1       0.693  10.000  20.148  0.00  0.00    +0.000 S 
ATOM     15  H   UNL     1       1.697   7.109  22.052  0.00  0.00    +0.000 HD
BRANCH   7  17
ATOM     16  C   UNL     1      -0.123  13.531  22.031  0.00  0.00    +0.000 C 
ATOM     17  C   UNL     1      -0.206  12.534  20.879  0.00  0.00    +0.000 C 
ATOM     18  C   UNL     1       0.610  13.009  19.678  0.00  0.00    +0.000 C 
ENDBRANCH   7  17
ENDBRANCH   1  12
BRANCH   3  19
ATOM     19  C   UNL     1       4.566   3.805  18.841  0.00  0.00    +0.000 C 
BRANCH  19  20
ATOM     20  C   UNL     1       5.352   4.272  17.639  0.00  0.00    +0.000 A 
ATOM     21  C   UNL     1       6.400   5.191  17.786  0.00  0.00    +0.000 A 
ATOM     22  C   UNL     1       7.136   5.601  16.675  0.00  0.00    +0.000 A 
ATOM     23  C   UNL     1       6.831   5.101  15.410  0.00  0.00    +0.000 A 
ATOM     24  C   UNL     1       5.788   4.192  15.251  0.00  0.00    +0.000 A 
ATOM     25  C   UNL     1       5.052   3.777  16.362  0.00  0.00    +0.000 A 
ENDBRANCH  19  20
ENDBRANCH   3  19
TORSDOF 4
ENDMDL
MODEL 8
REMARK VINA RESULT:      -7.7      0.858      1.556
REMARK  Name = 
REMARK  6 active torsions:
REMARK  status: ('A' for Active; 'I' for Inactive)
REMARK    1  A    between atoms: C_1  and  C_2
REMARK    2  A    between atoms: C_2  and  C_3
REMARK    3  A    between atoms: C_2  and  C_4
REMARK    4  A    between atoms: C_9  and  C_11
REMARK    5  A    between atoms: N_13  and  C_14
REMARK    6  A    between atoms: C_14  and  C_15
REMARK                            x       y       z     vdW  Elec       q    Type
REMARK                         _______ _______ _______ _____ _____    ______ ____
ROOT
ATOM      1  C   UNL     1       6.940   6.710  17.094  0.00  0.00    +0.000 C 
ATOM      2  C   UNL     1       6.448   5.605  18.059  0.00  0.00    +0.000 C 
ATOM      3  N   UNL     1       5.564   4.609  17.409  0.00  0.00    +0.000 NA
ATOM      4  C   UNL     1       6.269   4.099  16.214  0.00  0.00    +0.000 C 
ATOM      5  C   UNL     1       6.794   5.206  15.280  0.00  0.00    +0.000 C 
ATOM      6  O   UNL     1       7.639   6.140  15.979  0.00  0.00    +0.000 OA
ENDROOT
BRANCH   1  12
ATOM      7  C   UNL     1       9.659  11.638  19.189  0.00  0.00    +0.000 A 
ATOM      8  N   UNL     1       8.861  12.232  18.325  0.00  0.00    +0.000 NA
ATOM      9  N   UNL     1       8.114  11.319  17.594  0.00  0.00    +0.000 NA
ATOM     10  C   UNL     1       8.347  10.080  17.968  0.00  0.00    +0.000 A 
ATOM     11  N   UNL     1       7.707   8.991  17.431  0.00  0.00    +0.000 N 
ATOM     12  C   UNL     1       7.782   7.702  17.904  0.00  0.00    +0.000 C 
ATOM     13  O   UNL     1       8.395   7.315  18.896  0.00  0.00    +0.000 OA
ATOM     14  S   UNL     1       9.556   9.928  19.160  0.00  0.00    +0.000 S 
ATOM     15  H   UNL     1       7.066   9.180  16.664  0.00  0.00    +0.000 HD
BRANCH   7  17
ATOM     16  C   UNL     1      12.036  11.915  19.892  0.00  0.00    +0.000 C 
ATOM     17  C   UNL     1      10.588  12.318  20.153  0.00  0.00    +0.000 C 
ATOM     18  C   UNL     1      10.418  13.835  20.086  0.00  0.00    +0.000 C 
ENDBRANCH   7  17
ENDBRANCH   1  12
BRANCH   3  19
ATOM     19  C   UNL     1       4.252   5.214  17.110  0.00  0.00    +0.000 C 
BRANCH  19  20
ATOM     20  C   UNL     1       3.402   5.484  18.328  0.00  0.00    +0.000 A 
ATOM     21  C   UNL     1       2.991   6.789  18.636  0.00  0.00    +0.000 A 
ATOM     22  C   UNL     1       2.187   7.028  19.749  0.00  0.00    +0.000 A 
ATOM     23  C   UNL     1       1.791   5.972  20.568  0.00  0.00    +0.000 A 
ATOM     24  C   UNL     1       2.198   4.672  20.275  0.00  0.00    +0.000 A 
ATOM     25  C   UNL     1       2.999   4.429  19.159  0.00  0.00    +0.000 A 
ENDBRANCH  19  20
ENDBRANCH   3  19
TORSDOF 4
ENDMDL
MODEL 9
REMARK VINA RESULT:      -7.7      5.553      7.499
REMARK  Name = 
REMARK  6 active torsions:
REMARK  status: ('A' for Active; 'I' for Inactive)
REMARK    1  A    between atoms: C_1  and  C_2
REMARK    2  A    between atoms: C_2  and  C_3
REMARK    3  A    between atoms: C_2  and  C_4
REMARK    4  A    between atoms: C_9  and  C_11
REMARK    5  A    between atoms: N_13  and  C_14
REMARK    6  A    between atoms: C_14  and  C_15
REMARK                            x       y       z     vdW  Elec       q    Type
REMARK                         _______ _______ _______ _____ _____    ______ ____
ROOT
ATOM      1  C   UNL     1       2.588   6.282  19.921  0.00  0.00    +0.000 C 
ATOM      2  C   UNL     1       2.545   5.860  18.432  0.00  0.00    +0.000 C 
ATOM      3  N   UNL     1       3.220   4.567  18.169  0.00  0.00    +0.000 NA
ATOM      4  C   UNL     1       2.650   3.569  19.098  0.00  0.00    +0.000 C 
ATOM      5  C   UNL     1       2.656   4.013  20.572  0.00  0.00    +0.000 C 
ATOM      6  O   UNL     1       1.990   5.277  20.752  0.00  0.00    +0.000 OA
ENDROOT
BRANCH   1  12
ATOM      7  C   UNL     1      -0.260  11.182  21.908  0.00  0.00    +0.000 A 
ATOM      8  N   UNL     1      -0.087  10.594  23.075  0.00  0.00    +0.000 NA
ATOM      9  N   UNL     1       0.510   9.348  22.946  0.00  0.00    +0.000 NA
ATOM     10  C   UNL     1       0.803   9.068  21.694  0.00  0.00    +0.000 A 
ATOM     11  N   UNL     1       1.435   7.915  21.302  0.00  0.00    +0.000 N 
ATOM     12  C   UNL     1       1.919   7.655  20.040  0.00  0.00    +0.000 C 
ATOM     13  O   UNL     1       1.902   8.413  19.073  0.00  0.00    +0.000 OA
ATOM     14  S   UNL     1       0.286  10.249  20.579  0.00  0.00    +0.000 S 
ATOM     15  H   UNL     1       1.623   7.234  22.033  0.00  0.00    +0.000 HD
BRANCH   7  17
ATOM     16  C   UNL     1      -1.162  13.234  23.002  0.00  0.00    +0.000 C 
ATOM     17  C   UNL     1      -0.856  12.541  21.678  0.00  0.00    +0.000 C 
ATOM     18  C   UNL     1       0.068  13.393  20.810  0.00  0.00    +0.000 C 
ENDBRANCH   7  17
ENDBRANCH   1  12
BRANCH   3  19
ATOM     19  C   UNL     1       4.682   4.725  18.291  0.00  0.00    +0.000 C 
BRANCH  19  20
ATOM     20  C   UNL     1       5.425   4.671  16.978  0.00  0.00    +0.000 A 
ATOM     21  C   UNL     1       4.775   4.252  15.808  0.00  0.00    +0.000 A 
ATOM     22  C   UNL     1       5.461   4.227  14.595  0.00  0.00    +0.000 A 
ATOM     23  C   UNL     1       6.799   4.612  14.538  0.00  0.00    +0.000 A 
ATOM     24  C   UNL     1       7.456   5.024  15.695  0.00  0.00    +0.000 A 
ATOM     25  C   UNL     1       6.772   5.055  16.911  0.00  0.00    +0.000 A 
ENDBRANCH  19  20
ENDBRANCH   3  19
TORSDOF 4
ENDMDL
