MODEL 1
REMARK VINA RESULT:      -8.3      0.000      0.000
REMARK  Name = 
REMARK  12 active torsions:
REMARK  status: ('A' for Active; 'I' for Inactive)
REMARK    1  A    between atoms: C_1  and  C_2
REMARK    2  A    between atoms: C_4  and  C_5
REMARK    3  A    between atoms: N_7  and  C_8
REMARK    4  A    between atoms: C_9  and  C_10
REMARK    5  A    between atoms: C_10  and  C_11
REMARK    6  A    between atoms: C_12  and  C_13
REMARK    7  A    between atoms: C_13  and  C_14
REMARK    8  A    between atoms: C_14  and  C_15
REMARK    9  A    between atoms: C_15  and  C_16
REMARK   10  A    between atoms: C_16  and  O_18
REMARK   11  A    between atoms: C_23  and  C_24
REMARK   12  A    between atoms: C_23  and  C_25
REMARK                            x       y       z     vdW  Elec       q    Type
REMARK                         _______ _______ _______ _____ _____    ______ ____
ROOT
ATOM      1  C   UNL     1       3.307   4.882  18.548  0.00  0.00    +0.000 C 
ATOM      2  C   UNL     1       2.804   3.946  17.396  0.00  0.00    +0.000 C 
ATOM      3  C   UNL     1       2.393   2.517  17.851  0.00  0.00    +0.000 C 
ATOM      4  C   UNL     1       2.718   2.231  19.315  0.00  0.00    +0.000 C 
ATOM      5  C   UNL     1       4.151   2.734  19.638  0.00  0.00    +0.000 C 
ATOM      6  C   UNL     1       3.450   4.113  19.881  0.00  0.00    +0.000 C 
ATOM      7  C   UNL     1       2.205   3.267  20.384  0.00  0.00    +0.000 C 
ATOM      8  C   UNL     1       2.282   2.739  21.833  0.00  0.00    +0.000 C 
ATOM      9  C   UNL     1       0.817   3.881  20.189  0.00  0.00    +0.000 C 
ENDROOT
BRANCH   1  12
ATOM     10  C   UNL     1       2.685   7.286  18.300  0.00  0.00    +0.000 C 
ATOM     11  O   UNL     1       3.605   7.508  17.520  0.00  0.00    +0.000 OA
ATOM     12  N   UNL     1       2.431   6.028  18.810  0.00  0.00    +0.000 N 
ATOM     13  H   UNL     1       1.750   5.947  19.548  0.00  0.00    +0.000 HD
BRANCH  10  17
ATOM     14  C   UNL     1      -0.945  10.917  18.332  0.00  0.00    +0.000 C 
ATOM     15  C   UNL     1       0.168  10.036  18.787  0.00  0.00    +0.000 A 
ATOM     16  C   UNL     1       1.103   9.365  18.023  0.00  0.00    +0.000 A 
ATOM     17  C   UNL     1       1.816   8.369  18.775  0.00  0.00    +0.000 A 
ATOM     18  C   UNL     1       1.564   8.538  20.130  0.00  0.00    +0.000 A 
ATOM     19  S   UNL     1       0.377   9.721  20.452  0.00  0.00    +0.000 S 
ENDBRANCH  10  17
ENDBRANCH   1  12
BRANCH   2  20
ATOM     20  C   UNL     1       3.859   3.921  16.248  0.00  0.00    +0.000 C 
BRANCH  20  21
ATOM     21  C   UNL     1       5.146   4.629  16.594  0.00  0.00    +0.000 C 
ATOM     22  C   UNL     1       5.817   5.422  15.744  0.00  0.00    +0.000 C 
BRANCH  22  23
ATOM     23  C   UNL     1       7.062   6.181  16.111  0.00  0.00    +0.000 C 
BRANCH  23  24
ATOM     24  C   UNL     1       6.882   7.040  17.366  0.00  0.00    +0.000 C 
BRANCH  24  25
ATOM     25  C   UNL     1       7.983   6.828  18.406  0.00  0.00    +0.000 C 
BRANCH  25  26
ATOM     26  C   UNL     1       7.811   5.528  19.163  0.00  0.00    +0.000 C 
ATOM     27  O   UNL     1       7.437   5.424  20.319  0.00  0.00    +0.000 OA
BRANCH  26  28
ATOM     28  O   UNL     1       8.129   4.454  18.402  0.00  0.00    +0.000 OA
ATOM     29  H   UNL     1       7.394   4.144  17.838  0.00  0.00    +0.000 HD
ENDBRANCH  26  28
ENDBRANCH  25  26
ENDBRANCH  24  25
ENDBRANCH  23  24
ENDBRANCH  22  23
ENDBRANCH  20  21
ENDBRANCH   2  20
TORSDOF 9
ENDMDL
MODEL 2
REMARK VINA RESULT:      -8.2      0.832      1.097
REMARK  Name = 
REMARK  12 active torsions:
REMARK  status: ('A' for Active; 'I' for Inactive)
REMARK    1  A    between atoms: C_1  and  C_2
REMARK    2  A    between atoms: C_4  and  C_5
REMARK    3  A    between atoms: N_7  and  C_8
REMARK    4  A    between atoms: C_9  and  C_10
REMARK    5  A    between atoms: C_10  and  C_11
REMARK    6  A    between atoms: C_12  and  C_13
REMARK    7  A    between atoms: C_13  and  C_14
REMARK    8  A    between atoms: C_14  and  C_15
REMARK    9  A    between atoms: C_15  and  C_16
REMARK   10  A    between atoms: C_16  and  O_18
REMARK   11  A    between atoms: C_23  and  C_24
REMARK   12  A    between atoms: C_23  and  C_25
REMARK                            x       y       z     vdW  Elec       q    Type
REMARK                         _______ _______ _______ _____ _____    ______ ____
ROOT
ATOM      1  C   UNL     1       3.303   4.735  18.609  0.00  0.00    +0.000 C 
ATOM      2  C   UNL     1       2.784   3.816  17.451  0.00  0.00    +0.000 C 
ATOM      3  C   UNL     1       2.304   2.407  17.903  0.00  0.00    +0.000 C 
ATOM      4  C   UNL     1       2.587   2.116  19.374  0.00  0.00    +0.000 C 
ATOM      5  C   UNL     1       4.033   2.560  19.725  0.00  0.00    +0.000 C 
ATOM      6  C   UNL     1       3.386   3.968  19.947  0.00  0.00    +0.000 C 
ATOM      7  C   UNL     1       2.096   3.178  20.428  0.00  0.00    +0.000 C 
ATOM      8  C   UNL     1       2.121   2.654  21.880  0.00  0.00    +0.000 C 
ATOM      9  C   UNL     1       0.739   3.848  20.202  0.00  0.00    +0.000 C 
ENDROOT
BRANCH   1  12
ATOM     10  C   UNL     1       2.773   7.157  18.315  0.00  0.00    +0.000 C 
ATOM     11  O   UNL     1       3.701   7.329  17.533  0.00  0.00    +0.000 OA
ATOM     12  N   UNL     1       2.470   5.919  18.847  0.00  0.00    +0.000 N 
ATOM     13  H   UNL     1       1.786   5.878  19.585  0.00  0.00    +0.000 HD
BRANCH  10  17
ATOM     14  C   UNL     1       0.456  10.509  21.438  0.00  0.00    +0.000 C 
ATOM     15  C   UNL     1       0.877   9.804  20.194  0.00  0.00    +0.000 A 
ATOM     16  C   UNL     1       1.340   8.510  20.052  0.00  0.00    +0.000 A 
ATOM     17  C   UNL     1       1.945   8.281  18.768  0.00  0.00    +0.000 A 
ATOM     18  C   UNL     1       1.656   9.341  17.920  0.00  0.00    +0.000 A 
ATOM     19  S   UNL     1       0.855  10.630  18.700  0.00  0.00    +0.000 S 
ENDBRANCH  10  17
ENDBRANCH   1  12
BRANCH   2  20
ATOM     20  C   UNL     1       3.861   3.741  16.325  0.00  0.00    +0.000 C 
BRANCH  20  21
ATOM     21  C   UNL     1       5.200   4.303  16.730  0.00  0.00    +0.000 C 
ATOM     22  C   UNL     1       6.010   4.981  15.901  0.00  0.00    +0.000 C 
BRANCH  22  23
ATOM     23  C   UNL     1       7.314   5.600  16.324  0.00  0.00    +0.000 C 
BRANCH  23  24
ATOM     24  C   UNL     1       7.122   6.891  17.125  0.00  0.00    +0.000 C 
BRANCH  24  25
ATOM     25  C   UNL     1       7.868   6.891  18.460  0.00  0.00    +0.000 C 
BRANCH  25  26
ATOM     26  C   UNL     1       7.580   5.648  19.275  0.00  0.00    +0.000 C 
ATOM     27  O   UNL     1       6.539   5.413  19.866  0.00  0.00    +0.000 OA
BRANCH  26  28
ATOM     28  O   UNL     1       8.630   4.794  19.284  0.00  0.00    +0.000 OA
ATOM     29  H   UNL     1       9.185   4.866  20.084  0.00  0.00    +0.000 HD
ENDBRANCH  26  28
ENDBRANCH  25  26
ENDBRANCH  24  25
ENDBRANCH  23  24
ENDBRANCH  22  23
ENDBRANCH  20  21
ENDBRANCH   2  20
TORSDOF 9
ENDMDL
MODEL 3
REMARK VINA RESULT:      -8.2      1.278      1.654
REMARK  Name = 
REMARK  12 active torsions:
REMARK  status: ('A' for Active; 'I' for Inactive)
REMARK    1  A    between atoms: C_1  and  C_2
REMARK    2  A    between atoms: C_4  and  C_5
REMARK    3  A    between atoms: N_7  and  C_8
REMARK    4  A    between atoms: C_9  and  C_10
REMARK    5  A    between atoms: C_10  and  C_11
REMARK    6  A    between atoms: C_12  and  C_13
REMARK    7  A    between atoms: C_13  and  C_14
REMARK    8  A    between atoms: C_14  and  C_15
REMARK    9  A    between atoms: C_15  and  C_16
REMARK   10  A    between atoms: C_16  and  O_18
REMARK   11  A    between atoms: C_23  and  C_24
REMARK   12  A    between atoms: C_23  and  C_25
REMARK                            x       y       z     vdW  Elec       q    Type
REMARK                         _______ _______ _______ _____ _____    ______ ____
ROOT
ATOM      1  C   UNL     1       3.268   4.713  18.457  0.00  0.00    +0.000 C 
ATOM      2  C   UNL     1       2.641   3.775  17.370  0.00  0.00    +0.000 C 
ATOM      3  C   UNL     1       2.175   2.388  17.896  0.00  0.00    +0.000 C 
ATOM      4  C   UNL     1       2.572   2.128  19.347  0.00  0.00    +0.000 C 
ATOM      5  C   UNL     1       4.049   2.552  19.567  0.00  0.00    +0.000 C 
ATOM      6  C   UNL     1       3.447   3.978  19.804  0.00  0.00    +0.000 C 
ATOM      7  C   UNL     1       2.187   3.224  20.409  0.00  0.00    +0.000 C 
ATOM      8  C   UNL     1       2.322   2.736  21.868  0.00  0.00    +0.000 C 
ATOM      9  C   UNL     1       0.829   3.915  20.276  0.00  0.00    +0.000 C 
ENDROOT
BRANCH   1  12
ATOM     10  C   UNL     1       2.822   7.158  18.232  0.00  0.00    +0.000 C 
ATOM     11  O   UNL     1       3.753   7.319  17.450  0.00  0.00    +0.000 OA
ATOM     12  N   UNL     1       2.479   5.918  18.732  0.00  0.00    +0.000 N 
ATOM     13  H   UNL     1       1.796   5.881  19.472  0.00  0.00    +0.000 HD
BRANCH  10  17
ATOM     14  C   UNL     1       0.541  10.437  21.459  0.00  0.00    +0.000 C 
ATOM     15  C   UNL     1       0.984   9.788  20.192  0.00  0.00    +0.000 A 
ATOM     16  C   UNL     1       1.382   8.481  19.986  0.00  0.00    +0.000 A 
ATOM     17  C   UNL     1       2.036   8.298  18.719  0.00  0.00    +0.000 A 
ATOM     18  C   UNL     1       1.848   9.424  17.930  0.00  0.00    +0.000 A 
ATOM     19  S   UNL     1       1.081  10.706  18.756  0.00  0.00    +0.000 S 
ENDBRANCH  10  17
ENDBRANCH   1  12
BRANCH   2  20
ATOM     20  C   UNL     1       3.620   3.652  16.163  0.00  0.00    +0.000 C 
BRANCH  20  21
ATOM     21  C   UNL     1       5.074   3.751  16.550  0.00  0.00    +0.000 C 
ATOM     22  C   UNL     1       5.978   4.491  15.889  0.00  0.00    +0.000 C 
BRANCH  22  23
ATOM     23  C   UNL     1       7.412   4.643  16.316  0.00  0.00    +0.000 C 
BRANCH  23  24
ATOM     24  C   UNL     1       7.570   4.714  17.838  0.00  0.00    +0.000 C 
BRANCH  24  25
ATOM     25  C   UNL     1       6.973   5.983  18.449  0.00  0.00    +0.000 C 
BRANCH  25  26
ATOM     26  C   UNL     1       7.734   7.226  18.040  0.00  0.00    +0.000 C 
ATOM     27  O   UNL     1       7.577   7.844  17.000  0.00  0.00    +0.000 OA
BRANCH  26  28
ATOM     28  O   UNL     1       8.639   7.596  18.976  0.00  0.00    +0.000 OA
ATOM     29  H   UNL     1       8.321   7.486  19.892  0.00  0.00    +0.000 HD
ENDBRANCH  26  28
ENDBRANCH  25  26
ENDBRANCH  24  25
ENDBRANCH  23  24
ENDBRANCH  22  23
ENDBRANCH  20  21
ENDBRANCH   2  20
TORSDOF 9
ENDMDL
MODEL 4
REMARK VINA RESULT:      -8.0      1.059      1.320
REMARK  Name = 
REMARK  12 active torsions:
REMARK  status: ('A' for Active; 'I' for Inactive)
REMARK    1  A    between atoms: C_1  and  C_2
REMARK    2  A    between atoms: C_4  and  C_5
REMARK    3  A    between atoms: N_7  and  C_8
REMARK    4  A    between atoms: C_9  and  C_10
REMARK    5  A    between atoms: C_10  and  C_11
REMARK    6  A    between atoms: C_12  and  C_13
REMARK    7  A    between atoms: C_13  and  C_14
REMARK    8  A    between atoms: C_14  and  C_15
REMARK    9  A    between atoms: C_15  and  C_16
REMARK   10  A    between atoms: C_16  and  O_18
REMARK   11  A    between atoms: C_23  and  C_24
REMARK   12  A    between atoms: C_23  and  C_25
REMARK                            x       y       z     vdW  Elec       q    Type
REMARK                         _______ _______ _______ _____ _____    ______ ____
ROOT
ATOM      1  C   UNL     1       3.212   4.801  18.307  0.00  0.00    +0.000 C 
ATOM      2  C   UNL     1       2.601   3.813  17.256  0.00  0.00    +0.000 C 
ATOM      3  C   UNL     1       2.223   2.413  17.820  0.00  0.00    +0.000 C 
ATOM      4  C   UNL     1       2.677   2.200  19.261  0.00  0.00    +0.000 C 
ATOM      5  C   UNL     1       4.137   2.703  19.427  0.00  0.00    +0.000 C 
ATOM      6  C   UNL     1       3.470   4.100  19.660  0.00  0.00    +0.000 C 
ATOM      7  C   UNL     1       2.270   3.295  20.317  0.00  0.00    +0.000 C 
ATOM      8  C   UNL     1       2.475   2.842  21.778  0.00  0.00    +0.000 C 
ATOM      9  C   UNL     1       0.874   3.914  20.216  0.00  0.00    +0.000 C 
ENDROOT
BRANCH   1  12
ATOM     10  C   UNL     1       2.751   7.253  18.251  0.00  0.00    +0.000 C 
ATOM     11  O   UNL     1       3.772   7.493  17.615  0.00  0.00    +0.000 OA
ATOM     12  N   UNL     1       2.371   5.969  18.586  0.00  0.00    +0.000 N 
ATOM     13  H   UNL     1       1.600   5.858  19.225  0.00  0.00    +0.000 HD
BRANCH  10  17
ATOM     14  C   UNL     1      -0.839  10.923  18.304  0.00  0.00    +0.000 C 
ATOM     15  C   UNL     1       0.257  10.021  18.757  0.00  0.00    +0.000 A 
ATOM     16  C   UNL     1       1.197   9.355  17.992  0.00  0.00    +0.000 A 
ATOM     17  C   UNL     1       1.888   8.336  18.735  0.00  0.00    +0.000 A 
ATOM     18  C   UNL     1       1.618   8.481  20.089  0.00  0.00    +0.000 A 
ATOM     19  S   UNL     1       0.439   9.671  20.418  0.00  0.00    +0.000 S 
ENDBRANCH  10  17
ENDBRANCH   1  12
BRANCH   2  20
ATOM     20  C   UNL     1       3.547   3.717  16.020  0.00  0.00    +0.000 C 
BRANCH  20  21
ATOM     21  C   UNL     1       4.849   4.458  16.196  0.00  0.00    +0.000 C 
ATOM     22  C   UNL     1       6.021   3.860  16.461  0.00  0.00    +0.000 C 
BRANCH  22  23
ATOM     23  C   UNL     1       7.330   4.593  16.568  0.00  0.00    +0.000 C 
BRANCH  23  24
ATOM     24  C   UNL     1       7.835   4.691  18.011  0.00  0.00    +0.000 C 
BRANCH  24  25
ATOM     25  C   UNL     1       7.308   5.921  18.752  0.00  0.00    +0.000 C 
BRANCH  25  26
ATOM     26  C   UNL     1       7.747   7.214  18.099  0.00  0.00    +0.000 C 
ATOM     27  O   UNL     1       7.367   7.626  17.016  0.00  0.00    +0.000 OA
BRANCH  26  28
ATOM     28  O   UNL     1       8.635   7.892  18.863  0.00  0.00    +0.000 OA
ATOM     29  H   UNL     1       8.577   7.675  19.814  0.00  0.00    +0.000 HD
ENDBRANCH  26  28
ENDBRANCH  25  26
ENDBRANCH  24  25
ENDBRANCH  23  24
ENDBRANCH  22  23
ENDBRANCH  20  21
ENDBRANCH   2  20
TORSDOF 9
ENDMDL
MODEL 5
REMARK VINA RESULT:      -7.9      4.459      6.876
REMARK  Name = 
REMARK  12 active torsions:
REMARK  status: ('A' for Active; 'I' for Inactive)
REMARK    1  A    between atoms: C_1  and  C_2
REMARK    2  A    between atoms: C_4  and  C_5
REMARK    3  A    between atoms: N_7  and  C_8
REMARK    4  A    between atoms: C_9  and  C_10
REMARK    5  A    between atoms: C_10  and  C_11
REMARK    6  A    between atoms: C_12  and  C_13
REMARK    7  A    between atoms: C_13  and  C_14
REMARK    8  A    between atoms: C_14  and  C_15
REMARK    9  A    between atoms: C_15  and  C_16
REMARK   10  A    between atoms: C_16  and  O_18
REMARK   11  A    between atoms: C_23  and  C_24
REMARK   12  A    between atoms: C_23  and  C_25
REMARK                            x       y       z     vdW  Elec       q    Type
REMARK                         _______ _______ _______ _____ _____    ______ ____
ROOT
ATOM      1  C   UNL     1       5.635   5.536  16.842  0.00  0.00    +0.000 C 
ATOM      2  C   UNL     1       6.376   4.818  18.021  0.00  0.00    +0.000 C 
ATOM      3  C   UNL     1       5.477   4.476  19.243  0.00  0.00    +0.000 C 
ATOM      4  C   UNL     1       4.070   5.059  19.140  0.00  0.00    +0.000 C 
ATOM      5  C   UNL     1       4.150   6.534  18.662  0.00  0.00    +0.000 C 
ATOM      6  C   UNL     1       4.186   5.909  17.227  0.00  0.00    +0.000 C 
ATOM      7  C   UNL     1       3.261   4.765  17.822  0.00  0.00    +0.000 C 
ATOM      8  C   UNL     1       1.758   5.098  17.941  0.00  0.00    +0.000 C 
ATOM      9  C   UNL     1       3.378   3.374  17.196  0.00  0.00    +0.000 C 
ENDROOT
BRANCH   1  12
ATOM     10  C   UNL     1       6.539   4.775  14.643  0.00  0.00    +0.000 C 
ATOM     11  O   UNL     1       7.584   5.401  14.786  0.00  0.00    +0.000 OA
ATOM     12  N   UNL     1       5.557   4.739  15.614  0.00  0.00    +0.000 N 
ATOM     13  H   UNL     1       4.672   4.322  15.372  0.00  0.00    +0.000 HD
BRANCH  10  17
ATOM     14  C   UNL     1       7.071   1.537  10.695  0.00  0.00    +0.000 C 
ATOM     15  C   UNL     1       6.500   2.584  11.588  0.00  0.00    +0.000 A 
ATOM     16  C   UNL     1       7.157   3.394  12.496  0.00  0.00    +0.000 A 
ATOM     17  C   UNL     1       6.253   4.054  13.398  0.00  0.00    +0.000 A 
ATOM     18  C   UNL     1       4.950   3.912  12.941  0.00  0.00    +0.000 A 
ATOM     19  S   UNL     1       4.818   2.874  11.592  0.00  0.00    +0.000 S 
ENDBRANCH  10  17
ENDBRANCH   1  12
BRANCH   2  20
ATOM     20  C   UNL     1       7.635   5.645  18.424  0.00  0.00    +0.000 C 
BRANCH  20  21
ATOM     21  C   UNL     1       7.636   7.051  17.878  0.00  0.00    +0.000 C 
ATOM     22  C   UNL     1       8.270   8.081  18.460  0.00  0.00    +0.000 C 
BRANCH  22  23
ATOM     23  C   UNL     1       8.328   9.466  17.878  0.00  0.00    +0.000 C 
BRANCH  23  24
ATOM     24  C   UNL     1       9.286  10.387  18.640  0.00  0.00    +0.000 C 
BRANCH  24  25
ATOM     25  C   UNL     1       9.543  11.715  17.927  0.00  0.00    +0.000 C 
BRANCH  25  26
ATOM     26  C   UNL     1      10.937  12.244  18.190  0.00  0.00    +0.000 C 
ATOM     27  O   UNL     1      11.213  13.185  18.916  0.00  0.00    +0.000 OA
BRANCH  26  28
ATOM     28  O   UNL     1      11.879  11.546  17.515  0.00  0.00    +0.000 OA
ATOM     29  H   UNL     1      12.489  12.110  17.000  0.00  0.00    +0.000 HD
ENDBRANCH  26  28
ENDBRANCH  25  26
ENDBRANCH  24  25
ENDBRANCH  23  24
ENDBRANCH  22  23
ENDBRANCH  20  21
ENDBRANCH   2  20
TORSDOF 9
ENDMDL
MODEL 6
REMARK VINA RESULT:      -7.7      1.128      1.597
REMARK  Name = 
REMARK  12 active torsions:
REMARK  status: ('A' for Active; 'I' for Inactive)
REMARK    1  A    between atoms: C_1  and  C_2
REMARK    2  A    between atoms: C_4  and  C_5
REMARK    3  A    between atoms: N_7  and  C_8
REMARK    4  A    between atoms: C_9  and  C_10
REMARK    5  A    between atoms: C_10  and  C_11
REMARK    6  A    between atoms: C_12  and  C_13
REMARK    7  A    between atoms: C_13  and  C_14
REMARK    8  A    between atoms: C_14  and  C_15
REMARK    9  A    between atoms: C_15  and  C_16
REMARK   10  A    between atoms: C_16  and  O_18
REMARK   11  A    between atoms: C_23  and  C_24
REMARK   12  A    between atoms: C_23  and  C_25
REMARK                            x       y       z     vdW  Elec       q    Type
REMARK                         _______ _______ _______ _____ _____    ______ ____
ROOT
ATOM      1  C   UNL     1       3.075   5.070  19.010  0.00  0.00    +0.000 C 
ATOM      2  C   UNL     1       2.573   4.384  17.694  0.00  0.00    +0.000 C 
ATOM      3  C   UNL     1       2.216   2.877  17.840  0.00  0.00    +0.000 C 
ATOM      4  C   UNL     1       2.584   2.299  19.203  0.00  0.00    +0.000 C 
ATOM      5  C   UNL     1       4.009   2.770  19.602  0.00  0.00    +0.000 C 
ATOM      6  C   UNL     1       3.273   4.041  20.145  0.00  0.00    +0.000 C 
ATOM      7  C   UNL     1       2.066   3.064  20.477  0.00  0.00    +0.000 C 
ATOM      8  C   UNL     1       2.194   2.243  21.779  0.00  0.00    +0.000 C 
ATOM      9  C   UNL     1       0.656   3.657  20.442  0.00  0.00    +0.000 C 
ENDROOT
BRANCH   1  12
ATOM     10  C   UNL     1       2.286   7.433  19.170  0.00  0.00    +0.000 C 
ATOM     11  O   UNL     1       3.089   7.823  18.330  0.00  0.00    +0.000 OA
ATOM     12  N   UNL     1       2.171   6.103  19.525  0.00  0.00    +0.000 N 
ATOM     13  H   UNL     1       1.590   5.876  20.317  0.00  0.00    +0.000 HD
BRANCH  10  17
ATOM     14  C   UNL     1      -0.178   9.780  23.015  0.00  0.00    +0.000 C 
ATOM     15  C   UNL     1       0.284   9.441  21.638  0.00  0.00    +0.000 A 
ATOM     16  C   UNL     1       0.786   8.241  21.169  0.00  0.00    +0.000 A 
ATOM     17  C   UNL     1       1.419   8.376  19.885  0.00  0.00    +0.000 A 
ATOM     18  C   UNL     1       1.114   9.616  19.342  0.00  0.00    +0.000 A 
ATOM     19  S   UNL     1       0.262  10.632  20.417  0.00  0.00    +0.000 S 
ENDBRANCH  10  17
ENDBRANCH   1  12
BRANCH   2  20
ATOM     20  C   UNL     1       3.600   4.640  16.549  0.00  0.00    +0.000 C 
BRANCH  20  21
ATOM     21  C   UNL     1       4.835   5.379  16.999  0.00  0.00    +0.000 C 
ATOM     22  C   UNL     1       5.206   6.579  16.524  0.00  0.00    +0.000 C 
BRANCH  22  23
ATOM     23  C   UNL     1       6.399   7.346  17.023  0.00  0.00    +0.000 C 
BRANCH  23  24
ATOM     24  C   UNL     1       7.578   6.437  17.382  0.00  0.00    +0.000 C 
BRANCH  24  25
ATOM     25  C   UNL     1       8.034   6.584  18.835  0.00  0.00    +0.000 C 
BRANCH  25  26
ATOM     26  C   UNL     1       7.543   5.448  19.706  0.00  0.00    +0.000 C 
ATOM     27  O   UNL     1       6.673   4.648  19.406  0.00  0.00    +0.000 OA
BRANCH  26  28
ATOM     28  O   UNL     1       8.189   5.408  20.896  0.00  0.00    +0.000 OA
ATOM     29  H   UNL     1       9.158   5.324  20.811  0.00  0.00    +0.000 HD
ENDBRANCH  26  28
ENDBRANCH  25  26
ENDBRANCH  24  25
ENDBRANCH  23  24
ENDBRANCH  22  23
ENDBRANCH  20  21
ENDBRANCH   2  20
TORSDOF 9
ENDMDL
MODEL 7
REMARK VINA RESULT:      -7.6      3.010      3.888
REMARK  Name = 
REMARK  12 active torsions:
REMARK  status: ('A' for Active; 'I' for Inactive)
REMARK    1  A    between atoms: C_1  and  C_2
REMARK    2  A    between atoms: C_4  and  C_5
REMARK    3  A    between atoms: N_7  and  C_8
REMARK    4  A    between atoms: C_9  and  C_10
REMARK    5  A    between atoms: C_10  and  C_11
REMARK    6  A    between atoms: C_12  and  C_13
REMARK    7  A    between atoms: C_13  and  C_14
REMARK    8  A    between atoms: C_14  and  C_15
REMARK    9  A    between atoms: C_15  and  C_16
REMARK   10  A    between atoms: C_16  and  O_18
REMARK   11  A    between atoms: C_23  and  C_24
REMARK   12  A    between atoms: C_23  and  C_25
REMARK                            x       y       z     vdW  Elec       q    Type
REMARK                         _______ _______ _______ _____ _____    ______ ____
ROOT
ATOM      1  C   UNL     1       3.630   4.864  19.057  0.00  0.00    +0.000 C 
ATOM      2  C   UNL     1       3.548   4.049  17.722  0.00  0.00    +0.000 C 
ATOM      3  C   UNL     1       3.050   2.584  17.883  0.00  0.00    +0.000 C 
ATOM      4  C   UNL     1       2.895   2.155  19.339  0.00  0.00    +0.000 C 
ATOM      5  C   UNL     1       4.135   2.615  20.153  0.00  0.00    +0.000 C 
ATOM      6  C   UNL     1       3.358   3.968  20.286  0.00  0.00    +0.000 C 
ATOM      7  C   UNL     1       2.039   3.084  20.279  0.00  0.00    +0.000 C 
ATOM      8  C   UNL     1       1.661   2.417  21.619  0.00  0.00    +0.000 C 
ATOM      9  C   UNL     1       0.772   3.722  19.706  0.00  0.00    +0.000 C 
ENDROOT
BRANCH   1  12
ATOM     10  C   UNL     1       2.913   7.186  18.488  0.00  0.00    +0.000 C 
ATOM     11  O   UNL     1       3.869   7.364  17.740  0.00  0.00    +0.000 OA
ATOM     12  N   UNL     1       2.687   5.984  19.129  0.00  0.00    +0.000 N 
ATOM     13  H   UNL     1       1.966   5.955  19.832  0.00  0.00    +0.000 HD
BRANCH  10  17
ATOM     14  C   UNL     1      -0.866  10.607  17.874  0.00  0.00    +0.000 C 
ATOM     15  C   UNL     1       0.250   9.840  18.496  0.00  0.00    +0.000 A 
ATOM     16  C   UNL     1       1.265   9.137  17.874  0.00  0.00    +0.000 A 
ATOM     17  C   UNL     1       1.968   8.269  18.780  0.00  0.00    +0.000 A 
ATOM     18  C   UNL     1       1.615   8.575  20.087  0.00  0.00    +0.000 A 
ATOM     19  S   UNL     1       0.358   9.724  20.196  0.00  0.00    +0.000 S 
ENDBRANCH  10  17
ENDBRANCH   1  12
BRANCH   2  20
ATOM     20  C   UNL     1       4.916   4.130  16.978  0.00  0.00    +0.000 C 
BRANCH  20  21
ATOM     21  C   UNL     1       4.790   4.475  15.515  0.00  0.00    +0.000 C 
ATOM     22  C   UNL     1       5.591   3.984  14.557  0.00  0.00    +0.000 C 
BRANCH  22  23
ATOM     23  C   UNL     1       5.421   4.274  13.091  0.00  0.00    +0.000 C 
BRANCH  23  24
ATOM     24  C   UNL     1       6.274   3.362  12.205  0.00  0.00    +0.000 C 
BRANCH  24  25
ATOM     25  C   UNL     1       5.484   2.202  11.596  0.00  0.00    +0.000 C 
BRANCH  25  26
ATOM     26  C   UNL     1       6.378   1.046  11.202  0.00  0.00    +0.000 C 
ATOM     27  O   UNL     1       6.005  -0.090  10.965  0.00  0.00    +0.000 OA
BRANCH  26  28
ATOM     28  O   UNL     1       7.680   1.411  11.140  0.00  0.00    +0.000 OA
ATOM     29  H   UNL     1       8.158   1.299  11.985  0.00  0.00    +0.000 HD
ENDBRANCH  26  28
ENDBRANCH  25  26
ENDBRANCH  24  25
ENDBRANCH  23  24
ENDBRANCH  22  23
ENDBRANCH  20  21
ENDBRANCH   2  20
TORSDOF 9
ENDMDL
MODEL 8
REMARK VINA RESULT:      -7.6      2.813      3.805
REMARK  Name = 
REMARK  12 active torsions:
REMARK  status: ('A' for Active; 'I' for Inactive)
REMARK    1  A    between atoms: C_1  and  C_2
REMARK    2  A    between atoms: C_4  and  C_5
REMARK    3  A    between atoms: N_7  and  C_8
REMARK    4  A    between atoms: C_9  and  C_10
REMARK    5  A    between atoms: C_10  and  C_11
REMARK    6  A    between atoms: C_12  and  C_13
REMARK    7  A    between atoms: C_13  and  C_14
REMARK    8  A    between atoms: C_14  and  C_15
REMARK    9  A    between atoms: C_15  and  C_16
REMARK   10  A    between atoms: C_16  and  O_18
REMARK   11  A    between atoms: C_23  and  C_24
REMARK   12  A    between atoms: C_23  and  C_25
REMARK                            x       y       z     vdW  Elec       q    Type
REMARK                         _______ _______ _______ _____ _____    ______ ____
ROOT
ATOM      1  C   UNL     1       3.770   5.566  19.451  0.00  0.00    +0.000 C 
ATOM      2  C   UNL     1       3.830   5.467  17.888  0.00  0.00    +0.000 C 
ATOM      3  C   UNL     1       3.483   4.065  17.311  0.00  0.00    +0.000 C 
ATOM      4  C   UNL     1       3.314   2.994  18.385  0.00  0.00    +0.000 C 
ATOM      5  C   UNL     1       4.464   3.110  19.422  0.00  0.00    +0.000 C 
ATOM      6  C   UNL     1       3.543   4.181  20.098  0.00  0.00    +0.000 C 
ATOM      7  C   UNL     1       2.327   3.308  19.570  0.00  0.00    +0.000 C 
ATOM      8  C   UNL     1       1.966   2.065  20.412  0.00  0.00    +0.000 C 
ATOM      9  C   UNL     1       1.024   4.044  19.251  0.00  0.00    +0.000 C 
ENDROOT
BRANCH   1  12
ATOM     10  C   UNL     1       2.333   7.601  19.291  0.00  0.00    +0.000 C 
ATOM     11  O   UNL     1       2.791   7.914  18.198  0.00  0.00    +0.000 OA
ATOM     12  N   UNL     1       2.711   6.448  19.951  0.00  0.00    +0.000 N 
ATOM     13  H   UNL     1       2.401   6.327  20.902  0.00  0.00    +0.000 HD
BRANCH  10  17
ATOM     14  C   UNL     1      -0.333   9.789  23.095  0.00  0.00    +0.000 C 
ATOM     15  C   UNL     1       0.150   9.459  21.724  0.00  0.00    +0.000 A 
ATOM     16  C   UNL     1       0.774   8.307  21.284  0.00  0.00    +0.000 A 
ATOM     17  C   UNL     1       1.377   8.468  19.989  0.00  0.00    +0.000 A 
ATOM     18  C   UNL     1       0.936   9.651  19.413  0.00  0.00    +0.000 A 
ATOM     19  S   UNL     1      -0.009  10.604  20.468  0.00  0.00    +0.000 S 
ENDBRANCH  10  17
ENDBRANCH   1  12
BRANCH   2  20
ATOM     20  C   UNL     1       5.211   5.989  17.387  0.00  0.00    +0.000 C 
BRANCH  20  21
ATOM     21  C   UNL     1       5.586   5.484  16.016  0.00  0.00    +0.000 C 
ATOM     22  C   UNL     1       6.849   5.398  15.569  0.00  0.00    +0.000 C 
BRANCH  22  23
ATOM     23  C   UNL     1       7.227   4.830  14.229  0.00  0.00    +0.000 C 
BRANCH  23  24
ATOM     24  C   UNL     1       6.151   3.904  13.655  0.00  0.00    +0.000 C 
BRANCH  24  25
ATOM     25  C   UNL     1       6.403   3.516  12.197  0.00  0.00    +0.000 C 
BRANCH  25  26
ATOM     26  C   UNL     1       5.341   2.580  11.663  0.00  0.00    +0.000 C 
ATOM     27  O   UNL     1       4.197   2.893  11.379  0.00  0.00    +0.000 OA
BRANCH  26  28
ATOM     28  O   UNL     1       5.802   1.314  11.529  0.00  0.00    +0.000 OA
ATOM     29  H   UNL     1       5.101   0.659  11.348  0.00  0.00    +0.000 HD
ENDBRANCH  26  28
ENDBRANCH  25  26
ENDBRANCH  24  25
ENDBRANCH  23  24
ENDBRANCH  22  23
ENDBRANCH  20  21
ENDBRANCH   2  20
TORSDOF 9
ENDMDL
MODEL 9
REMARK VINA RESULT:      -7.6      4.411      6.614
REMARK  Name = 
REMARK  12 active torsions:
REMARK  status: ('A' for Active; 'I' for Inactive)
REMARK    1  A    between atoms: C_1  and  C_2
REMARK    2  A    between atoms: C_4  and  C_5
REMARK    3  A    between atoms: N_7  and  C_8
REMARK    4  A    between atoms: C_9  and  C_10
REMARK    5  A    between atoms: C_10  and  C_11
REMARK    6  A    between atoms: C_12  and  C_13
REMARK    7  A    between atoms: C_13  and  C_14
REMARK    8  A    between atoms: C_14  and  C_15
REMARK    9  A    between atoms: C_15  and  C_16
REMARK   10  A    between atoms: C_16  and  O_18
REMARK   11  A    between atoms: C_23  and  C_24
REMARK   12  A    between atoms: C_23  and  C_25
REMARK                            x       y       z     vdW  Elec       q    Type
REMARK                         _______ _______ _______ _____ _____    ______ ____
ROOT
ATOM      1  C   UNL     1       5.512   5.431  17.035  0.00  0.00    +0.000 C 
ATOM      2  C   UNL     1       6.282   4.697  18.185  0.00  0.00    +0.000 C 
ATOM      3  C   UNL     1       5.408   4.313  19.413  0.00  0.00    +0.000 C 
ATOM      4  C   UNL     1       3.991   4.875  19.345  0.00  0.00    +0.000 C 
ATOM      5  C   UNL     1       4.040   6.362  18.901  0.00  0.00    +0.000 C 
ATOM      6  C   UNL     1       4.063   5.772  17.451  0.00  0.00    +0.000 C 
ATOM      7  C   UNL     1       3.165   4.600  18.033  0.00  0.00    +0.000 C 
ATOM      8  C   UNL     1       1.659   4.906  18.182  0.00  0.00    +0.000 C 
ATOM      9  C   UNL     1       3.294   3.225  17.373  0.00  0.00    +0.000 C 
ENDROOT
BRANCH   1  12
ATOM     10  C   UNL     1       6.409   4.712  14.820  0.00  0.00    +0.000 C 
ATOM     11  O   UNL     1       7.459   5.326  14.976  0.00  0.00    +0.000 OA
ATOM     12  N   UNL     1       5.427   4.662  15.790  0.00  0.00    +0.000 N 
ATOM     13  H   UNL     1       4.539   4.257  15.540  0.00  0.00    +0.000 HD
BRANCH  10  17
ATOM     14  C   UNL     1       3.825   3.001  10.726  0.00  0.00    +0.000 C 
ATOM     15  C   UNL     1       4.934   3.228  11.697  0.00  0.00    +0.000 A 
ATOM     16  C   UNL     1       4.853   3.583  13.030  0.00  0.00    +0.000 A 
ATOM     17  C   UNL     1       6.116   4.020  13.560  0.00  0.00    +0.000 A 
ATOM     18  C   UNL     1       7.130   3.709  12.665  0.00  0.00    +0.000 A 
ATOM     19  S   UNL     1       6.555   3.091  11.181  0.00  0.00    +0.000 S 
ENDBRANCH  10  17
ENDBRANCH   1  12
BRANCH   2  20
ATOM     20  C   UNL     1       7.534   5.534  18.590  0.00  0.00    +0.000 C 
BRANCH  20  21
ATOM     21  C   UNL     1       7.527   6.938  18.038  0.00  0.00    +0.000 C 
ATOM     22  C   UNL     1       8.293   7.933  18.513  0.00  0.00    +0.000 C 
BRANCH  22  23
ATOM     23  C   UNL     1       8.335   9.314  17.919  0.00  0.00    +0.000 C 
BRANCH  23  24
ATOM     24  C   UNL     1       9.102  10.310  18.794  0.00  0.00    +0.000 C 
BRANCH  24  25
ATOM     25  C   UNL     1       9.990  11.261  17.991  0.00  0.00    +0.000 C 
BRANCH  25  26
ATOM     26  C   UNL     1       9.659  12.714  18.256  0.00  0.00    +0.000 C 
ATOM     27  O   UNL     1       9.731  13.272  19.338  0.00  0.00    +0.000 OA
BRANCH  26  28
ATOM     28  O   UNL     1       9.259  13.355  17.133  0.00  0.00    +0.000 OA
ATOM     29  H   UNL     1       8.902  14.249  17.299  0.00  0.00    +0.000 HD
ENDBRANCH  26  28
ENDBRANCH  25  26
ENDBRANCH  24  25
ENDBRANCH  23  24
ENDBRANCH  22  23
ENDBRANCH  20  21
ENDBRANCH   2  20
TORSDOF 9
ENDMDL
