MODEL 1
REMARK VINA RESULT:      -7.9      0.000      0.000
REMARK  Name = 
REMARK  8 active torsions:
REMARK  status: ('A' for Active; 'I' for Inactive)
REMARK    1  A    between atoms: C_1  and  C_2
REMARK    2  A    between atoms: C_2  and  C_3
REMARK    3  A    between atoms: N_5  and  C_6
REMARK    4  A    between atoms: C_9  and  C_10
REMARK    5  A    between atoms: C_11  and  C_12
REMARK    6  A    between atoms: C_15  and  C_16
REMARK    7  A    between atoms: N_18  and  C_19
REMARK    8  A    between atoms: C_19  and  C_20
REMARK                            x       y       z     vdW  Elec       q    Type
REMARK                         _______ _______ _______ _____ _____    ______ ____
ROOT
ATOM      1  C   UNL     1       2.286   7.070  18.956  0.00  0.00    +0.000 A 
ATOM      2  C   UNL     1       1.961   7.347  20.297  0.00  0.00    +0.000 A 
ATOM      3  C   UNL     1       1.360   8.550  20.695  0.00  0.00    +0.000 A 
ATOM      4  C   UNL     1       1.132   9.558  19.763  0.00  0.00    +0.000 A 
ATOM      5  C   UNL     1       1.537   9.360  18.443  0.00  0.00    +0.000 A 
ATOM      6  C   UNL     1       2.083   8.126  18.043  0.00  0.00    +0.000 A 
ENDROOT
BRANCH   1  12
ATOM      7  C   UNL     1       4.232   4.434  16.950  0.00  0.00    +0.000 A 
ATOM      8  C   UNL     1       3.842   3.260  17.590  0.00  0.00    +0.000 A 
ATOM      9  C   UNL     1       2.923   3.289  18.629  0.00  0.00    +0.000 A 
ATOM     10  C   UNL     1       2.364   4.501  19.070  0.00  0.00    +0.000 A 
ATOM     11  C   UNL     1       1.281   4.359  20.107  0.00  0.00    +0.000 C 
ATOM     12  C   UNL     1       2.810   5.736  18.518  0.00  0.00    +0.000 A 
ATOM     13  C   UNL     1       3.765   5.662  17.464  0.00  0.00    +0.000 A 
BRANCH   7  16
ATOM     14  C   UNL     1       6.450   4.475  15.838  0.00  0.00    +0.000 C 
ATOM     15  O   UNL     1       7.139   4.511  16.854  0.00  0.00    +0.000 OA
ATOM     16  N   UNL     1       5.063   4.416  15.803  0.00  0.00    +0.000 N 
ATOM     17  H   UNL     1       4.624   4.162  14.922  0.00  0.00    +0.000 HD
BRANCH  14  19
ATOM     18  C   UNL     1       6.175   3.822  13.439  0.00  0.00    +0.000 C 
ATOM     19  C   UNL     1       7.094   4.474  14.466  0.00  0.00    +0.000 C 
ENDBRANCH  14  19
ENDBRANCH   7  16
ENDBRANCH   1  12
BRANCH   4  20
ATOM     20  C   UNL     1       0.507  10.854  20.147  0.00  0.00    +0.000 C 
ATOM     21  O   UNL     1       1.101  11.908  19.954  0.00  0.00    +0.000 OA
ATOM     22  N   UNL     1      -0.758  10.778  20.690  0.00  0.00    +0.000 N 
ATOM     23  H   UNL     1      -1.253   9.900  20.710  0.00  0.00    +0.000 HD
BRANCH  22  24
ATOM     24  C   UNL     1      -1.458  11.965  21.127  0.00  0.00    +0.000 C 
BRANCH  24  25
ATOM     25  C   UNL     1      -1.529  11.979  22.622  0.00  0.00    +0.000 C 
ATOM     26  C   UNL     1      -1.773  13.268  23.369  0.00  0.00    +0.000 C 
ATOM     27  C   UNL     1      -2.838  12.208  23.333  0.00  0.00    +0.000 C 
ENDBRANCH  24  25
ENDBRANCH  22  24
ENDBRANCH   4  20
TORSDOF 6
ENDMDL
MODEL 2
REMARK VINA RESULT:      -7.9      1.834      2.304
REMARK  Name = 
REMARK  8 active torsions:
REMARK  status: ('A' for Active; 'I' for Inactive)
REMARK    1  A    between atoms: C_1  and  C_2
REMARK    2  A    between atoms: C_2  and  C_3
REMARK    3  A    between atoms: N_5  and  C_6
REMARK    4  A    between atoms: C_9  and  C_10
REMARK    5  A    between atoms: C_11  and  C_12
REMARK    6  A    between atoms: C_15  and  C_16
REMARK    7  A    between atoms: N_18  and  C_19
REMARK    8  A    between atoms: C_19  and  C_20
REMARK                            x       y       z     vdW  Elec       q    Type
REMARK                         _______ _______ _______ _____ _____    ______ ____
ROOT
ATOM      1  C   UNL     1       2.363   7.415  18.909  0.00  0.00    +0.000 A 
ATOM      2  C   UNL     1       1.903   7.792  20.185  0.00  0.00    +0.000 A 
ATOM      3  C   UNL     1       1.028   8.870  20.383  0.00  0.00    +0.000 A 
ATOM      4  C   UNL     1       0.642   9.663  19.305  0.00  0.00    +0.000 A 
ATOM      5  C   UNL     1       1.162   9.381  18.042  0.00  0.00    +0.000 A 
ATOM      6  C   UNL     1       1.989   8.261  17.845  0.00  0.00    +0.000 A 
ENDROOT
BRANCH   1  12
ATOM      7  C   UNL     1       4.724   4.907  17.208  0.00  0.00    +0.000 A 
ATOM      8  C   UNL     1       4.777   3.890  18.159  0.00  0.00    +0.000 A 
ATOM      9  C   UNL     1       4.028   3.970  19.325  0.00  0.00    +0.000 A 
ATOM     10  C   UNL     1       3.200   5.076  19.582  0.00  0.00    +0.000 A 
ATOM     11  C   UNL     1       2.345   4.955  20.816  0.00  0.00    +0.000 C 
ATOM     12  C   UNL     1       3.193   6.187  18.690  0.00  0.00    +0.000 A 
ATOM     13  C   UNL     1       3.988   6.070  17.513  0.00  0.00    +0.000 A 
BRANCH   7  16
ATOM     14  C   UNL     1       6.749   4.841  15.775  0.00  0.00    +0.000 C 
ATOM     15  O   UNL     1       7.583   4.961  16.668  0.00  0.00    +0.000 OA
ATOM     16  N   UNL     1       5.373   4.787  15.954  0.00  0.00    +0.000 N 
ATOM     17  H   UNL     1       4.808   4.461  15.174  0.00  0.00    +0.000 HD
BRANCH  14  19
ATOM     18  C   UNL     1       6.194   3.862  13.541  0.00  0.00    +0.000 C 
ATOM     19  C   UNL     1       7.179   4.721  14.326  0.00  0.00    +0.000 C 
ENDBRANCH  14  19
ENDBRANCH   7  16
ENDBRANCH   1  12
BRANCH   4  20
ATOM     20  C   UNL     1      -0.276  10.823  19.474  0.00  0.00    +0.000 C 
ATOM     21  O   UNL     1      -0.194  11.536  20.468  0.00  0.00    +0.000 OA
ATOM     22  N   UNL     1      -1.172  11.041  18.450  0.00  0.00    +0.000 N 
ATOM     23  H   UNL     1      -1.113  10.505  17.598  0.00  0.00    +0.000 HD
BRANCH  22  24
ATOM     24  C   UNL     1      -2.131  12.120  18.511  0.00  0.00    +0.000 C 
BRANCH  24  25
ATOM     25  C   UNL     1      -3.517  11.558  18.434  0.00  0.00    +0.000 C 
ATOM     26  C   UNL     1      -4.307  11.634  17.150  0.00  0.00    +0.000 C 
ATOM     27  C   UNL     1      -3.802  10.307  17.644  0.00  0.00    +0.000 C 
ENDBRANCH  24  25
ENDBRANCH  22  24
ENDBRANCH   4  20
TORSDOF 6
ENDMDL
MODEL 3
REMARK VINA RESULT:      -7.9      0.501      1.080
REMARK  Name = 
REMARK  8 active torsions:
REMARK  status: ('A' for Active; 'I' for Inactive)
REMARK    1  A    between atoms: C_1  and  C_2
REMARK    2  A    between atoms: C_2  and  C_3
REMARK    3  A    between atoms: N_5  and  C_6
REMARK    4  A    between atoms: C_9  and  C_10
REMARK    5  A    between atoms: C_11  and  C_12
REMARK    6  A    between atoms: C_15  and  C_16
REMARK    7  A    between atoms: N_18  and  C_19
REMARK    8  A    between atoms: C_19  and  C_20
REMARK                            x       y       z     vdW  Elec       q    Type
REMARK                         _______ _______ _______ _____ _____    ______ ____
ROOT
ATOM      1  C   UNL     1       2.385   7.224  18.962  0.00  0.00    +0.000 A 
ATOM      2  C   UNL     1       2.086   8.189  17.982  0.00  0.00    +0.000 A 
ATOM      3  C   UNL     1       1.479   9.415  18.290  0.00  0.00    +0.000 A 
ATOM      4  C   UNL     1       1.075   9.685  19.595  0.00  0.00    +0.000 A 
ATOM      5  C   UNL     1       1.261   8.709  20.573  0.00  0.00    +0.000 A 
ATOM      6  C   UNL     1       1.926   7.508  20.265  0.00  0.00    +0.000 A 
ENDROOT
BRANCH   1  12
ATOM      7  C   UNL     1       4.598   4.725  17.061  0.00  0.00    +0.000 A 
ATOM      8  C   UNL     1       4.604   3.642  17.938  0.00  0.00    +0.000 A 
ATOM      9  C   UNL     1       3.869   3.677  19.114  0.00  0.00    +0.000 A 
ATOM     10  C   UNL     1       3.102   4.804  19.458  0.00  0.00    +0.000 A 
ATOM     11  C   UNL     1       2.251   4.639  20.689  0.00  0.00    +0.000 C 
ATOM     12  C   UNL     1       3.148   5.974  18.647  0.00  0.00    +0.000 A 
ATOM     13  C   UNL     1       3.927   5.900  17.456  0.00  0.00    +0.000 A 
BRANCH   7  16
ATOM     14  C   UNL     1       6.591   4.847  15.587  0.00  0.00    +0.000 C 
ATOM     15  O   UNL     1       7.427   5.052  16.464  0.00  0.00    +0.000 OA
ATOM     16  N   UNL     1       5.230   4.661  15.795  0.00  0.00    +0.000 N 
ATOM     17  H   UNL     1       4.685   4.277  15.028  0.00  0.00    +0.000 HD
BRANCH  14  19
ATOM     18  C   UNL     1       6.103   3.789  13.375  0.00  0.00    +0.000 C 
ATOM     19  C   UNL     1       7.002   4.760  14.131  0.00  0.00    +0.000 C 
ENDBRANCH  14  19
ENDBRANCH   7  16
ENDBRANCH   1  12
BRANCH   4  20
ATOM     20  C   UNL     1       0.417  10.969  19.962  0.00  0.00    +0.000 C 
ATOM     21  O   UNL     1       0.914  12.037  19.624  0.00  0.00    +0.000 OA
ATOM     22  N   UNL     1      -0.766  10.865  20.661  0.00  0.00    +0.000 N 
ATOM     23  H   UNL     1      -1.198   9.965  20.803  0.00  0.00    +0.000 HD
BRANCH  22  24
ATOM     24  C   UNL     1      -1.486  12.041  21.095  0.00  0.00    +0.000 C 
BRANCH  24  25
ATOM     25  C   UNL     1      -1.531  12.072  22.592  0.00  0.00    +0.000 C 
ATOM     26  C   UNL     1      -1.856  13.350  23.326  0.00  0.00    +0.000 C 
ATOM     27  C   UNL     1      -2.840  12.214  23.324  0.00  0.00    +0.000 C 
ENDBRANCH  24  25
ENDBRANCH  22  24
ENDBRANCH   4  20
TORSDOF 6
ENDMDL
MODEL 4
REMARK VINA RESULT:      -7.8      1.020      1.588
REMARK  Name = 
REMARK  8 active torsions:
REMARK  status: ('A' for Active; 'I' for Inactive)
REMARK    1  A    between atoms: C_1  and  C_2
REMARK    2  A    between atoms: C_2  and  C_3
REMARK    3  A    between atoms: N_5  and  C_6
REMARK    4  A    between atoms: C_9  and  C_10
REMARK    5  A    between atoms: C_11  and  C_12
REMARK    6  A    between atoms: C_15  and  C_16
REMARK    7  A    between atoms: N_18  and  C_19
REMARK    8  A    between atoms: C_19  and  C_20
REMARK                            x       y       z     vdW  Elec       q    Type
REMARK                         _______ _______ _______ _____ _____    ______ ____
ROOT
ATOM      1  C   UNL     1       2.223   6.902  19.195  0.00  0.00    +0.000 A 
ATOM      2  C   UNL     1       1.909   7.064  20.557  0.00  0.00    +0.000 A 
ATOM      3  C   UNL     1       1.322   8.234  21.062  0.00  0.00    +0.000 A 
ATOM      4  C   UNL     1       1.101   9.323  20.222  0.00  0.00    +0.000 A 
ATOM      5  C   UNL     1       1.497   9.235  18.888  0.00  0.00    +0.000 A 
ATOM      6  C   UNL     1       2.026   8.035  18.379  0.00  0.00    +0.000 A 
ENDROOT
BRANCH   1  12
ATOM      7  C   UNL     1       4.161   4.430  16.982  0.00  0.00    +0.000 A 
ATOM      8  C   UNL     1       3.731   3.208  17.495  0.00  0.00    +0.000 A 
ATOM      9  C   UNL     1       2.790   3.157  18.512  0.00  0.00    +0.000 A 
ATOM     10  C   UNL     1       2.245   4.333  19.058  0.00  0.00    +0.000 A 
ATOM     11  C   UNL     1       1.135   4.115  20.053  0.00  0.00    +0.000 C 
ATOM     12  C   UNL     1       2.729   5.605  18.640  0.00  0.00    +0.000 A 
ATOM     13  C   UNL     1       3.707   5.612  17.604  0.00  0.00    +0.000 A 
BRANCH   7  16
ATOM     14  C   UNL     1       6.405   4.489  15.924  0.00  0.00    +0.000 C 
ATOM     15  O   UNL     1       7.070   4.371  16.950  0.00  0.00    +0.000 OA
ATOM     16  N   UNL     1       5.018   4.505  15.856  0.00  0.00    +0.000 N 
ATOM     17  H   UNL     1       4.589   4.379  14.944  0.00  0.00    +0.000 HD
BRANCH  14  19
ATOM     18  C   UNL     1       6.287   3.883  13.501  0.00  0.00    +0.000 C 
ATOM     19  C   UNL     1       7.082   4.618  14.575  0.00  0.00    +0.000 C 
ENDBRANCH  14  19
ENDBRANCH   7  16
ENDBRANCH   1  12
BRANCH   4  20
ATOM     20  C   UNL     1       0.493  10.586  20.721  0.00  0.00    +0.000 C 
ATOM     21  O   UNL     1       1.124  11.323  21.470  0.00  0.00    +0.000 OA
ATOM     22  N   UNL     1      -0.779  10.866  20.268  0.00  0.00    +0.000 N 
ATOM     23  H   UNL     1      -1.204  10.294  19.554  0.00  0.00    +0.000 HD
BRANCH  22  24
ATOM     24  C   UNL     1      -1.485  12.050  20.702  0.00  0.00    +0.000 C 
BRANCH  24  25
ATOM     25  C   UNL     1      -1.597  13.010  19.558  0.00  0.00    +0.000 C 
ATOM     26  C   UNL     1      -0.588  14.118  19.381  0.00  0.00    +0.000 C 
ATOM     27  C   UNL     1      -0.618  12.968  18.414  0.00  0.00    +0.000 C 
ENDBRANCH  24  25
ENDBRANCH  22  24
ENDBRANCH   4  20
TORSDOF 6
ENDMDL
MODEL 5
REMARK VINA RESULT:      -7.8      1.833      2.151
REMARK  Name = 
REMARK  8 active torsions:
REMARK  status: ('A' for Active; 'I' for Inactive)
REMARK    1  A    between atoms: C_1  and  C_2
REMARK    2  A    between atoms: C_2  and  C_3
REMARK    3  A    between atoms: N_5  and  C_6
REMARK    4  A    between atoms: C_9  and  C_10
REMARK    5  A    between atoms: C_11  and  C_12
REMARK    6  A    between atoms: C_15  and  C_16
REMARK    7  A    between atoms: N_18  and  C_19
REMARK    8  A    between atoms: C_19  and  C_20
REMARK                            x       y       z     vdW  Elec       q    Type
REMARK                         _______ _______ _______ _____ _____    ______ ____
ROOT
ATOM      1  C   UNL     1       2.385   7.394  18.912  0.00  0.00    +0.000 A 
ATOM      2  C   UNL     1       1.907   7.780  20.178  0.00  0.00    +0.000 A 
ATOM      3  C   UNL     1       1.098   8.911  20.366  0.00  0.00    +0.000 A 
ATOM      4  C   UNL     1       0.804   9.745  19.290  0.00  0.00    +0.000 A 
ATOM      5  C   UNL     1       1.347   9.449  18.040  0.00  0.00    +0.000 A 
ATOM      6  C   UNL     1       2.105   8.280  17.851  0.00  0.00    +0.000 A 
ENDROOT
BRANCH   1  12
ATOM      7  C   UNL     1       4.632   4.761  17.245  0.00  0.00    +0.000 A 
ATOM      8  C   UNL     1       4.586   3.729  18.179  0.00  0.00    +0.000 A 
ATOM      9  C   UNL     1       3.805   3.840  19.321  0.00  0.00    +0.000 A 
ATOM     10  C   UNL     1       3.043   4.995  19.570  0.00  0.00    +0.000 A 
ATOM     11  C   UNL     1       2.141   4.911  20.773  0.00  0.00    +0.000 C 
ATOM     12  C   UNL     1       3.140   6.117  18.698  0.00  0.00    +0.000 A 
ATOM     13  C   UNL     1       3.964   5.966  17.546  0.00  0.00    +0.000 A 
BRANCH   7  16
ATOM     14  C   UNL     1       6.656   4.916  15.817  0.00  0.00    +0.000 C 
ATOM     15  O   UNL     1       7.436   5.303  16.684  0.00  0.00    +0.000 OA
ATOM     16  N   UNL     1       5.313   4.617  16.011  0.00  0.00    +0.000 N 
ATOM     17  H   UNL     1       4.836   4.095  15.281  0.00  0.00    +0.000 HD
BRANCH  14  19
ATOM     18  C   UNL     1       6.126   3.858  13.614  0.00  0.00    +0.000 C 
ATOM     19  C   UNL     1       7.126   4.706  14.392  0.00  0.00    +0.000 C 
ENDBRANCH  14  19
ENDBRANCH   7  16
ENDBRANCH   1  12
BRANCH   4  20
ATOM     20  C   UNL     1      -0.041  10.961  19.450  0.00  0.00    +0.000 C 
ATOM     21  O   UNL     1      -0.815  11.056  20.395  0.00  0.00    +0.000 OA
ATOM     22  N   UNL     1       0.130  11.946  18.501  0.00  0.00    +0.000 N 
ATOM     23  H   UNL     1       0.869  11.874  17.818  0.00  0.00    +0.000 HD
BRANCH  22  24
ATOM     24  C   UNL     1      -0.651  13.161  18.534  0.00  0.00    +0.000 C 
BRANCH  24  25
ATOM     25  C   UNL     1       0.266  14.338  18.665  0.00  0.00    +0.000 C 
ATOM     26  C   UNL     1       0.691  14.835  20.026  0.00  0.00    +0.000 C 
ATOM     27  C   UNL     1       1.690  14.162  19.126  0.00  0.00    +0.000 C 
ENDBRANCH  24  25
ENDBRANCH  22  24
ENDBRANCH   4  20
TORSDOF 6
ENDMDL
MODEL 6
REMARK VINA RESULT:      -7.7      0.851      1.030
REMARK  Name = 
REMARK  8 active torsions:
REMARK  status: ('A' for Active; 'I' for Inactive)
REMARK    1  A    between atoms: C_1  and  C_2
REMARK    2  A    between atoms: C_2  and  C_3
REMARK    3  A    between atoms: N_5  and  C_6
REMARK    4  A    between atoms: C_9  and  C_10
REMARK    5  A    between atoms: C_11  and  C_12
REMARK    6  A    between atoms: C_15  and  C_16
REMARK    7  A    between atoms: N_18  and  C_19
REMARK    8  A    between atoms: C_19  and  C_20
REMARK                            x       y       z     vdW  Elec       q    Type
REMARK                         _______ _______ _______ _____ _____    ______ ____
ROOT
ATOM      1  C   UNL     1       2.210   7.051  19.107  0.00  0.00    +0.000 A 
ATOM      2  C   UNL     1       1.868   7.284  20.452  0.00  0.00    +0.000 A 
ATOM      3  C   UNL     1       1.280   8.483  20.884  0.00  0.00    +0.000 A 
ATOM      4  C   UNL     1       1.086   9.529  19.985  0.00  0.00    +0.000 A 
ATOM      5  C   UNL     1       1.510   9.370  18.666  0.00  0.00    +0.000 A 
ATOM      6  C   UNL     1       2.040   8.142  18.230  0.00  0.00    +0.000 A 
ENDROOT
BRANCH   1  12
ATOM      7  C   UNL     1       4.145   4.454  17.040  0.00  0.00    +0.000 A 
ATOM      8  C   UNL     1       3.721   3.264  17.628  0.00  0.00    +0.000 A 
ATOM      9  C   UNL     1       2.785   3.273  18.651  0.00  0.00    +0.000 A 
ATOM     10  C   UNL     1       2.239   4.478  19.127  0.00  0.00    +0.000 A 
ATOM     11  C   UNL     1       1.134   4.319  20.138  0.00  0.00    +0.000 C 
ATOM     12  C   UNL     1       2.717   5.724  18.630  0.00  0.00    +0.000 A 
ATOM     13  C   UNL     1       3.690   5.670  17.590  0.00  0.00    +0.000 A 
BRANCH   7  16
ATOM     14  C   UNL     1       6.382   4.527  15.969  0.00  0.00    +0.000 C 
ATOM     15  O   UNL     1       7.053   4.546  16.998  0.00  0.00    +0.000 OA
ATOM     16  N   UNL     1       4.996   4.463  15.907  0.00  0.00    +0.000 N 
ATOM     17  H   UNL     1       4.575   4.224  15.014  0.00  0.00    +0.000 HD
BRANCH  14  19
ATOM     18  C   UNL     1       6.175   3.876  13.563  0.00  0.00    +0.000 C 
ATOM     19  C   UNL     1       7.051   4.557  14.609  0.00  0.00    +0.000 C 
ENDBRANCH  14  19
ENDBRANCH   7  16
ENDBRANCH   1  12
BRANCH   4  20
ATOM     20  C   UNL     1       0.477  10.820  20.406  0.00  0.00    +0.000 C 
ATOM     21  O   UNL     1       0.767  11.317  21.489  0.00  0.00    +0.000 OA
ATOM     22  N   UNL     1      -0.384  11.406  19.504  0.00  0.00    +0.000 N 
ATOM     23  H   UNL     1      -0.491  11.023  18.577  0.00  0.00    +0.000 HD
BRANCH  22  24
ATOM     24  C   UNL     1      -1.058  12.648  19.809  0.00  0.00    +0.000 C 
BRANCH  24  25
ATOM     25  C   UNL     1      -2.422  12.354  20.352  0.00  0.00    +0.000 C 
ATOM     26  C   UNL     1      -2.762  12.662  21.790  0.00  0.00    +0.000 C 
ATOM     27  C   UNL     1      -3.381  13.468  20.682  0.00  0.00    +0.000 C 
ENDBRANCH  24  25
ENDBRANCH  22  24
ENDBRANCH   4  20
TORSDOF 6
ENDMDL
MODEL 7
REMARK VINA RESULT:      -7.7      1.487      2.194
REMARK  Name = 
REMARK  8 active torsions:
REMARK  status: ('A' for Active; 'I' for Inactive)
REMARK    1  A    between atoms: C_1  and  C_2
REMARK    2  A    between atoms: C_2  and  C_3
REMARK    3  A    between atoms: N_5  and  C_6
REMARK    4  A    between atoms: C_9  and  C_10
REMARK    5  A    between atoms: C_11  and  C_12
REMARK    6  A    between atoms: C_15  and  C_16
REMARK    7  A    between atoms: N_18  and  C_19
REMARK    8  A    between atoms: C_19  and  C_20
REMARK                            x       y       z     vdW  Elec       q    Type
REMARK                         _______ _______ _______ _____ _____    ______ ____
ROOT
ATOM      1  C   UNL     1       2.159   7.155  18.995  0.00  0.00    +0.000 A 
ATOM      2  C   UNL     1       1.948   8.172  18.045  0.00  0.00    +0.000 A 
ATOM      3  C   UNL     1       1.522   9.460  18.401  0.00  0.00    +0.000 A 
ATOM      4  C   UNL     1       1.215   9.751  19.728  0.00  0.00    +0.000 A 
ATOM      5  C   UNL     1       1.312   8.738  20.680  0.00  0.00    +0.000 A 
ATOM      6  C   UNL     1       1.799   7.468  20.322  0.00  0.00    +0.000 A 
ENDROOT
BRANCH   1  12
ATOM      7  C   UNL     1       4.219   4.502  17.130  0.00  0.00    +0.000 A 
ATOM      8  C   UNL     1       3.867   3.345  17.822  0.00  0.00    +0.000 A 
ATOM      9  C   UNL     1       2.939   3.388  18.852  0.00  0.00    +0.000 A 
ATOM     10  C   UNL     1       2.331   4.599  19.231  0.00  0.00    +0.000 A 
ATOM     11  C   UNL     1       1.245   4.465  20.266  0.00  0.00    +0.000 C 
ATOM     12  C   UNL     1       2.736   5.822  18.625  0.00  0.00    +0.000 A 
ATOM     13  C   UNL     1       3.702   5.734  17.582  0.00  0.00    +0.000 A 
BRANCH   7  16
ATOM     14  C   UNL     1       6.435   4.651  16.024  0.00  0.00    +0.000 C 
ATOM     15  O   UNL     1       7.108   4.840  17.035  0.00  0.00    +0.000 OA
ATOM     16  N   UNL     1       5.060   4.461  15.990  0.00  0.00    +0.000 N 
ATOM     17  H   UNL     1       4.656   4.091  15.134  0.00  0.00    +0.000 HD
BRANCH  14  19
ATOM     18  C   UNL     1       6.175   3.908  13.651  0.00  0.00    +0.000 C 
ATOM     19  C   UNL     1       7.092   4.591  14.659  0.00  0.00    +0.000 C 
ENDBRANCH  14  19
ENDBRANCH   7  16
ENDBRANCH   1  12
BRANCH   4  20
ATOM     20  C   UNL     1       0.748  11.102  20.145  0.00  0.00    +0.000 C 
ATOM     21  O   UNL     1       1.229  11.645  21.133  0.00  0.00    +0.000 OA
ATOM     22  N   UNL     1      -0.211  11.685  19.346  0.00  0.00    +0.000 N 
ATOM     23  H   UNL     1      -0.481  11.254  18.475  0.00  0.00    +0.000 HD
BRANCH  22  24
ATOM     24  C   UNL     1      -0.762  12.984  19.663  0.00  0.00    +0.000 C 
BRANCH  24  25
ATOM     25  C   UNL     1      -0.260  13.991  18.675  0.00  0.00    +0.000 C 
ATOM     26  C   UNL     1      -0.223  15.459  19.024  0.00  0.00    +0.000 C 
ATOM     27  C   UNL     1       1.059  14.687  18.882  0.00  0.00    +0.000 C 
ENDBRANCH  24  25
ENDBRANCH  22  24
ENDBRANCH   4  20
TORSDOF 6
ENDMDL
MODEL 8
REMARK VINA RESULT:      -7.7      2.552      3.569
REMARK  Name = 
REMARK  8 active torsions:
REMARK  status: ('A' for Active; 'I' for Inactive)
REMARK    1  A    between atoms: C_1  and  C_2
REMARK    2  A    between atoms: C_2  and  C_3
REMARK    3  A    between atoms: N_5  and  C_6
REMARK    4  A    between atoms: C_9  and  C_10
REMARK    5  A    between atoms: C_11  and  C_12
REMARK    6  A    between atoms: C_15  and  C_16
REMARK    7  A    between atoms: N_18  and  C_19
REMARK    8  A    between atoms: C_19  and  C_20
REMARK                            x       y       z     vdW  Elec       q    Type
REMARK                         _______ _______ _______ _____ _____    ______ ____
ROOT
ATOM      1  C   UNL     1       4.231   6.498  17.843  0.00  0.00    +0.000 A 
ATOM      2  C   UNL     1       3.545   6.129  19.014  0.00  0.00    +0.000 A 
ATOM      3  C   UNL     1       2.464   6.868  19.519  0.00  0.00    +0.000 A 
ATOM      4  C   UNL     1       2.082   8.057  18.902  0.00  0.00    +0.000 A 
ATOM      5  C   UNL     1       2.807   8.506  17.799  0.00  0.00    +0.000 A 
ATOM      6  C   UNL     1       3.849   7.726  17.265  0.00  0.00    +0.000 A 
ENDROOT
BRANCH   1  12
ATOM      7  C   UNL     1       6.021   4.159  15.375  0.00  0.00    +0.000 A 
ATOM      8  C   UNL     1       7.243   3.966  16.017  0.00  0.00    +0.000 A 
ATOM      9  C   UNL     1       7.491   4.536  17.258  0.00  0.00    +0.000 A 
ATOM     10  C   UNL     1       6.521   5.326  17.900  0.00  0.00    +0.000 A 
ATOM     11  C   UNL     1       6.880   5.757  19.298  0.00  0.00    +0.000 C 
ATOM     12  C   UNL     1       5.300   5.638  17.238  0.00  0.00    +0.000 A 
ATOM     13  C   UNL     1       5.092   5.044  15.960  0.00  0.00    +0.000 A 
BRANCH   7  16
ATOM     14  C   UNL     1       6.273   3.749  12.941  0.00  0.00    +0.000 C 
ATOM     15  O   UNL     1       7.160   4.573  12.730  0.00  0.00    +0.000 OA
ATOM     16  N   UNL     1       5.696   3.480  14.175  0.00  0.00    +0.000 N 
ATOM     17  H   UNL     1       5.145   2.630  14.263  0.00  0.00    +0.000 HD
BRANCH  14  19
ATOM     18  C   UNL     1       4.281   3.296  11.499  0.00  0.00    +0.000 C 
ATOM     19  C   UNL     1       5.720   2.901  11.813  0.00  0.00    +0.000 C 
ENDBRANCH  14  19
ENDBRANCH   7  16
ENDBRANCH   1  12
BRANCH   4  20
ATOM     20  C   UNL     1       0.948   8.875  19.413  0.00  0.00    +0.000 C 
ATOM     21  O   UNL     1       0.605   8.792  20.586  0.00  0.00    +0.000 OA
ATOM     22  N   UNL     1       0.355   9.723  18.502  0.00  0.00    +0.000 N 
ATOM     23  H   UNL     1       0.755   9.848  17.585  0.00  0.00    +0.000 HD
BRANCH  22  24
ATOM     24  C   UNL     1      -0.772  10.550  18.872  0.00  0.00    +0.000 C 
BRANCH  24  25
ATOM     25  C   UNL     1      -1.713  10.655  17.712  0.00  0.00    +0.000 C 
ATOM     26  C   UNL     1      -2.960   9.807  17.654  0.00  0.00    +0.000 C 
ATOM     27  C   UNL     1      -3.069  11.291  17.872  0.00  0.00    +0.000 C 
ENDBRANCH  24  25
ENDBRANCH  22  24
ENDBRANCH   4  20
TORSDOF 6
ENDMDL
MODEL 9
REMARK VINA RESULT:      -7.7      2.186      9.711
REMARK  Name = 
REMARK  8 active torsions:
REMARK  status: ('A' for Active; 'I' for Inactive)
REMARK    1  A    between atoms: C_1  and  C_2
REMARK    2  A    between atoms: C_2  and  C_3
REMARK    3  A    between atoms: N_5  and  C_6
REMARK    4  A    between atoms: C_9  and  C_10
REMARK    5  A    between atoms: C_11  and  C_12
REMARK    6  A    between atoms: C_15  and  C_16
REMARK    7  A    between atoms: N_18  and  C_19
REMARK    8  A    between atoms: C_19  and  C_20
REMARK                            x       y       z     vdW  Elec       q    Type
REMARK                         _______ _______ _______ _____ _____    ______ ____
ROOT
ATOM      1  C   UNL     1       3.780   5.100  17.571  0.00  0.00    +0.000 A 
ATOM      2  C   UNL     1       4.150   3.868  17.000  0.00  0.00    +0.000 A 
ATOM      3  C   UNL     1       5.117   3.766  15.988  0.00  0.00    +0.000 A 
ATOM      4  C   UNL     1       5.694   4.916  15.455  0.00  0.00    +0.000 A 
ATOM      5  C   UNL     1       5.274   6.159  15.925  0.00  0.00    +0.000 A 
ATOM      6  C   UNL     1       4.350   6.247  16.982  0.00  0.00    +0.000 A 
ENDROOT
BRANCH   1  12
ATOM      7  C   UNL     1       1.795   6.592  20.502  0.00  0.00    +0.000 A 
ATOM      8  C   UNL     1       1.113   5.471  20.971  0.00  0.00    +0.000 A 
ATOM      9  C   UNL     1       1.314   4.226  20.394  0.00  0.00    +0.000 A 
ATOM     10  C   UNL     1       2.204   4.059  19.318  0.00  0.00    +0.000 A 
ATOM     11  C   UNL     1       2.422   2.630  18.891  0.00  0.00    +0.000 C 
ATOM     12  C   UNL     1       2.843   5.191  18.737  0.00  0.00    +0.000 A 
ATOM     13  C   UNL     1       2.598   6.453  19.351  0.00  0.00    +0.000 A 
BRANCH   7  16
ATOM     14  C   UNL     1       0.524   8.417  21.603  0.00  0.00    +0.000 C 
ATOM     15  O   UNL     1      -0.591   7.909  21.523  0.00  0.00    +0.000 OA
ATOM     16  N   UNL     1       1.709   7.844  21.160  0.00  0.00    +0.000 N 
ATOM     17  H   UNL     1       2.581   8.253  21.484  0.00  0.00    +0.000 HD
BRANCH  14  19
ATOM     18  C   UNL     1      -0.530  10.171  23.040  0.00  0.00    +0.000 C 
ATOM     19  C   UNL     1       0.709   9.778  22.244  0.00  0.00    +0.000 C 
ENDBRANCH  14  19
ENDBRANCH   7  16
ENDBRANCH   1  12
BRANCH   4  20
ATOM     20  C   UNL     1       6.714   4.851  14.373  0.00  0.00    +0.000 C 
ATOM     21  O   UNL     1       7.764   5.475  14.475  0.00  0.00    +0.000 OA
ATOM     22  N   UNL     1       6.409   4.041  13.301  0.00  0.00    +0.000 N 
ATOM     23  H   UNL     1       5.591   3.450  13.324  0.00  0.00    +0.000 HD
BRANCH  22  24
ATOM     24  C   UNL     1       7.308   3.916  12.176  0.00  0.00    +0.000 C 
BRANCH  24  25
ATOM     25  C   UNL     1       6.712   2.988  11.163  0.00  0.00    +0.000 C 
ATOM     26  C   UNL     1       7.101   1.530  11.133  0.00  0.00    +0.000 C 
ATOM     27  C   UNL     1       5.720   1.930  11.573  0.00  0.00    +0.000 C 
ENDBRANCH  24  25
ENDBRANCH  22  24
ENDBRANCH   4  20
TORSDOF 6
ENDMDL
