MODEL 1
REMARK VINA RESULT:      -5.4      0.000      0.000
REMARK  Name = 
REMARK  8 active torsions:
REMARK  status: ('A' for Active; 'I' for Inactive)
REMARK    1  A    between atoms: N_1  and  C_2
REMARK    2  A    between atoms: C_2  and  C_3
REMARK    3  A    between atoms: C_2  and  C_11
REMARK    4  A    between atoms: C_3  and  S_4
REMARK    5  A    between atoms: S_4  and  N_7
REMARK    6  A    between atoms: N_7  and  C_8
REMARK    7  A    between atoms: C_8  and  C_9
REMARK    8  A    between atoms: C_11  and  O_13
REMARK                            x       y       z     vdW  Elec       q    Type
REMARK                         _______ _______ _______ _____ _____    ______ ____
ROOT
ATOM      1  C   UNK     1       5.783   5.467  17.328  0.00  0.00    +0.000 C 
ENDROOT
BRANCH   1   2
ATOM      2  S   UNK     1       5.517   5.149  19.062  0.00  0.00    +0.000 S 
ATOM      3  O   UNK     1       6.745   5.486  19.754  0.00  0.00    +0.000 OA
ATOM      4  O   UNK     1       4.250   5.676  19.496  0.00  0.00    +0.000 OA
BRANCH   2   5
ATOM      5  N   UNK     1       5.401   3.464  19.122  0.00  0.00    +0.000 NA
ATOM      6  H   UNK     1       5.803   3.080  19.989  0.00  0.00    +0.000 HD
BRANCH   5   7
ATOM      7  C   UNK     1       3.993   2.995  18.969  0.00  0.00    +0.000 C 
BRANCH   7   8
ATOM      8  C   UNK     1       3.412   2.530  20.298  0.00  0.00    +0.000 C 
ATOM      9 CL   UNK     1       1.638   2.738  20.327  0.00  0.00    +0.000 Cl
ENDBRANCH   7   8
ENDBRANCH   5   7
ENDBRANCH   2   5
ENDBRANCH   1   2
BRANCH   1  10
ATOM     10  C   UNK     1       6.675   4.404  16.687  0.00  0.00    +0.000 C 
BRANCH  10  11
ATOM     11  N   UNK     1       8.017   4.196  17.319  0.00  0.00    +0.000 NA
ATOM     12  H   UNK     1       7.919   3.510  18.074  0.00  0.00    +0.000 HD
ATOM     13  H   UNK     1       8.270   5.053  17.842  0.00  0.00    +0.000 HD
ENDBRANCH  10  11
BRANCH  10  14
ATOM     14  C   UNK     1       6.857   4.640  15.184  0.00  0.00    +0.000 C 
ATOM     15  O   UNK     1       6.299   4.004  14.304  0.00  0.00    +0.000 OA
BRANCH  14  16
ATOM     16  O   UNK     1       7.794   5.593  14.943  0.00  0.00    +0.000 OA
ATOM     17  H   UNK     1       8.452   5.204  14.315  0.00  0.00    +0.000 HD
ENDBRANCH  14  16
ENDBRANCH  10  14
ENDBRANCH   1  10
TORSDOF 8
ENDMDL
MODEL 2
REMARK VINA RESULT:      -5.3      3.235      4.988
REMARK  Name = 
REMARK  8 active torsions:
REMARK  status: ('A' for Active; 'I' for Inactive)
REMARK    1  A    between atoms: N_1  and  C_2
REMARK    2  A    between atoms: C_2  and  C_3
REMARK    3  A    between atoms: C_2  and  C_11
REMARK    4  A    between atoms: C_3  and  S_4
REMARK    5  A    between atoms: S_4  and  N_7
REMARK    6  A    between atoms: N_7  and  C_8
REMARK    7  A    between atoms: C_8  and  C_9
REMARK    8  A    between atoms: C_11  and  O_13
REMARK                            x       y       z     vdW  Elec       q    Type
REMARK                         _______ _______ _______ _____ _____    ______ ____
ROOT
ATOM      1  C   UNK     1       5.382   5.770  17.424  0.00  0.00    +0.000 C 
ENDROOT
BRANCH   1   2
ATOM      2  S   UNK     1       6.997   5.614  16.684  0.00  0.00    +0.000 S 
ATOM      3  O   UNK     1       7.671   6.886  16.852  0.00  0.00    +0.000 OA
ATOM      4  O   UNK     1       7.628   4.381  17.074  0.00  0.00    +0.000 OA
BRANCH   2   5
ATOM      5  N   UNK     1       6.645   5.493  15.035  0.00  0.00    +0.000 NA
ATOM      6  H   UNK     1       7.464   5.706  14.449  0.00  0.00    +0.000 HD
BRANCH   5   7
ATOM      7  C   UNK     1       6.106   4.149  14.677  0.00  0.00    +0.000 C 
BRANCH   7   8
ATOM      8  C   UNK     1       6.394   3.801  13.222  0.00  0.00    +0.000 C 
ATOM      9 CL   UNK     1       4.878   3.531  12.317  0.00  0.00    +0.000 Cl
ENDBRANCH   7   8
ENDBRANCH   5   7
ENDBRANCH   2   5
ENDBRANCH   1   2
BRANCH   1  10
ATOM     10  C   UNK     1       5.411   5.454  18.920  0.00  0.00    +0.000 C 
BRANCH  10  11
ATOM     11  N   UNK     1       6.761   5.437  19.568  0.00  0.00    +0.000 NA
ATOM     12  H   UNK     1       7.108   4.472  19.575  0.00  0.00    +0.000 HD
ATOM     13  H   UNK     1       6.643   5.627  20.579  0.00  0.00    +0.000 HD
ENDBRANCH  10  11
BRANCH  10  14
ATOM     14  C   UNK     1       4.681   4.147  19.243  0.00  0.00    +0.000 C 
ATOM     15  O   UNK     1       3.548   4.071  19.691  0.00  0.00    +0.000 OA
BRANCH  14  16
ATOM     16  O   UNK     1       5.487   3.070  19.055  0.00  0.00    +0.000 OA
ATOM     17  H   UNK     1       5.036   2.478  18.405  0.00  0.00    +0.000 HD
ENDBRANCH  14  16
ENDBRANCH  10  14
ENDBRANCH   1  10
TORSDOF 8
ENDMDL
MODEL 3
REMARK VINA RESULT:      -5.3      1.415      1.591
REMARK  Name = 
REMARK  8 active torsions:
REMARK  status: ('A' for Active; 'I' for Inactive)
REMARK    1  A    between atoms: N_1  and  C_2
REMARK    2  A    between atoms: C_2  and  C_3
REMARK    3  A    between atoms: C_2  and  C_11
REMARK    4  A    between atoms: C_3  and  S_4
REMARK    5  A    between atoms: S_4  and  N_7
REMARK    6  A    between atoms: N_7  and  C_8
REMARK    7  A    between atoms: C_8  and  C_9
REMARK    8  A    between atoms: C_11  and  O_13
REMARK                            x       y       z     vdW  Elec       q    Type
REMARK                         _______ _______ _______ _____ _____    ______ ____
ROOT
ATOM      1  C   UNK     1       5.490   5.081  17.373  0.00  0.00    +0.000 C 
ENDROOT
BRANCH   1   2
ATOM      2  S   UNK     1       5.502   4.758  19.126  0.00  0.00    +0.000 S 
ATOM      3  O   UNK     1       5.175   3.357  19.308  0.00  0.00    +0.000 OA
ATOM      4  O   UNK     1       6.661   5.338  19.751  0.00  0.00    +0.000 OA
BRANCH   2   5
ATOM      5  N   UNK     1       4.156   5.620  19.677  0.00  0.00    +0.000 NA
ATOM      6  H   UNK     1       4.040   6.514  19.180  0.00  0.00    +0.000 HD
BRANCH   5   7
ATOM      7  C   UNK     1       2.900   4.820  19.573  0.00  0.00    +0.000 C 
BRANCH   7   8
ATOM      8  C   UNK     1       2.187   4.722  20.915  0.00  0.00    +0.000 C 
ATOM      9 CL   UNK     1       1.197   3.238  21.006  0.00  0.00    +0.000 Cl
ENDBRANCH   7   8
ENDBRANCH   5   7
ENDBRANCH   2   5
ENDBRANCH   1   2
BRANCH   1  10
ATOM     10  C   UNK     1       6.547   4.256  16.637  0.00  0.00    +0.000 C 
BRANCH  10  11
ATOM     11  N   UNK     1       7.921   4.257  17.232  0.00  0.00    +0.000 NA
ATOM     12  H   UNK     1       8.579   4.617  16.532  0.00  0.00    +0.000 HD
ATOM     13  H   UNK     1       8.235   3.275  17.334  0.00  0.00    +0.000 HD
ENDBRANCH  10  11
BRANCH  10  14
ATOM     14  C   UNK     1       6.639   4.635  15.155  0.00  0.00    +0.000 C 
ATOM     15  O   UNK     1       5.905   4.208  14.278  0.00  0.00    +0.000 OA
BRANCH  14  16
ATOM     16  O   UNK     1       7.704   5.441  14.916  0.00  0.00    +0.000 OA
ATOM     17  H   UNK     1       7.394   6.167  14.321  0.00  0.00    +0.000 HD
ENDBRANCH  14  16
ENDBRANCH  10  14
ENDBRANCH   1  10
TORSDOF 8
ENDMDL
MODEL 4
REMARK VINA RESULT:      -5.2      1.217      1.562
REMARK  Name = 
REMARK  8 active torsions:
REMARK  status: ('A' for Active; 'I' for Inactive)
REMARK    1  A    between atoms: N_1  and  C_2
REMARK    2  A    between atoms: C_2  and  C_3
REMARK    3  A    between atoms: C_2  and  C_11
REMARK    4  A    between atoms: C_3  and  S_4
REMARK    5  A    between atoms: S_4  and  N_7
REMARK    6  A    between atoms: N_7  and  C_8
REMARK    7  A    between atoms: C_8  and  C_9
REMARK    8  A    between atoms: C_11  and  O_13
REMARK                            x       y       z     vdW  Elec       q    Type
REMARK                         _______ _______ _______ _____ _____    ______ ____
ROOT
ATOM      1  C   UNK     1       6.960   4.734  17.335  0.00  0.00    +0.000 C 
ENDROOT
BRANCH   1   2
ATOM      2  S   UNK     1       6.036   5.016  18.834  0.00  0.00    +0.000 S 
ATOM      3  O   UNK     1       6.990   5.371  19.867  0.00  0.00    +0.000 OA
ATOM      4  O   UNK     1       4.876   5.829  18.582  0.00  0.00    +0.000 OA
BRANCH   2   5
ATOM      5  N   UNK     1       5.482   3.468  19.231  0.00  0.00    +0.000 NA
ATOM      6  H   UNK     1       6.019   3.053  20.005  0.00  0.00    +0.000 HD
BRANCH   5   7
ATOM      7  C   UNK     1       4.029   3.466  19.570  0.00  0.00    +0.000 C 
BRANCH   7   8
ATOM      8  C   UNK     1       3.254   2.487  18.698  0.00  0.00    +0.000 C 
ATOM      9 CL   UNK     1       1.687   2.066  19.446  0.00  0.00    +0.000 Cl
ENDBRANCH   7   8
ENDBRANCH   5   7
ENDBRANCH   2   5
ENDBRANCH   1   2
BRANCH   1  10
ATOM     10  C   UNK     1       6.092   4.924  16.090  0.00  0.00    +0.000 C 
BRANCH  10  11
ATOM     11  N   UNK     1       4.805   4.159  16.056  0.00  0.00    +0.000 NA
ATOM     12  H   UNK     1       4.597   3.827  17.004  0.00  0.00    +0.000 HD
ATOM     13  H   UNK     1       4.966   3.270  15.550  0.00  0.00    +0.000 HD
ENDBRANCH  10  11
BRANCH  10  14
ATOM     14  C   UNK     1       6.874   4.654  14.801  0.00  0.00    +0.000 C 
ATOM     15  O   UNK     1       7.744   5.379  14.345  0.00  0.00    +0.000 OA
BRANCH  14  16
ATOM     16  O   UNK     1       6.417   3.542  14.169  0.00  0.00    +0.000 OA
ATOM     17  H   UNK     1       6.938   2.775  14.512  0.00  0.00    +0.000 HD
ENDBRANCH  14  16
ENDBRANCH  10  14
ENDBRANCH   1  10
TORSDOF 8
ENDMDL
MODEL 5
REMARK VINA RESULT:      -5.2      1.119      1.186
REMARK  Name = 
REMARK  8 active torsions:
REMARK  status: ('A' for Active; 'I' for Inactive)
REMARK    1  A    between atoms: N_1  and  C_2
REMARK    2  A    between atoms: C_2  and  C_3
REMARK    3  A    between atoms: C_2  and  C_11
REMARK    4  A    between atoms: C_3  and  S_4
REMARK    5  A    between atoms: S_4  and  N_7
REMARK    6  A    between atoms: N_7  and  C_8
REMARK    7  A    between atoms: C_8  and  C_9
REMARK    8  A    between atoms: C_11  and  O_13
REMARK                            x       y       z     vdW  Elec       q    Type
REMARK                         _______ _______ _______ _____ _____    ______ ____
ROOT
ATOM      1  C   UNK     1       5.457   5.715  17.470  0.00  0.00    +0.000 C 
ENDROOT
BRANCH   1   2
ATOM      2  S   UNK     1       5.366   5.032  19.115  0.00  0.00    +0.000 S 
ATOM      3  O   UNK     1       6.621   5.332  19.775  0.00  0.00    +0.000 OA
ATOM      4  O   UNK     1       4.106   5.344  19.736  0.00  0.00    +0.000 OA
BRANCH   2   5
ATOM      5  N   UNK     1       5.382   3.365  18.831  0.00  0.00    +0.000 NA
ATOM      6  H   UNK     1       6.263   2.930  19.137  0.00  0.00    +0.000 HD
BRANCH   5   7
ATOM      7  C   UNK     1       4.229   2.677  19.484  0.00  0.00    +0.000 C 
BRANCH   7   8
ATOM      8  C   UNK     1       3.386   1.916  18.470  0.00  0.00    +0.000 C 
ATOM      9 CL   UNK     1       1.643   2.169  18.770  0.00  0.00    +0.000 Cl
ENDBRANCH   7   8
ENDBRANCH   5   7
ENDBRANCH   2   5
ENDBRANCH   1   2
BRANCH   1  10
ATOM     10  C   UNK     1       6.862   5.586  16.880  0.00  0.00    +0.000 C 
BRANCH  10  11
ATOM     11  N   UNK     1       7.609   6.866  16.662  0.00  0.00    +0.000 NA
ATOM     12  H   UNK     1       7.350   7.526  17.403  0.00  0.00    +0.000 HD
ATOM     13  H   UNK     1       7.225   7.331  15.820  0.00  0.00    +0.000 HD
ENDBRANCH  10  11
BRANCH  10  14
ATOM     14  C   UNK     1       6.865   4.773  15.582  0.00  0.00    +0.000 C 
ATOM     15  O   UNK     1       6.276   3.716  15.417  0.00  0.00    +0.000 OA
BRANCH  14  16
ATOM     16  O   UNK     1       7.685   5.329  14.652  0.00  0.00    +0.000 OA
ATOM     17  H   UNK     1       8.579   4.926  14.774  0.00  0.00    +0.000 HD
ENDBRANCH  14  16
ENDBRANCH  10  14
ENDBRANCH   1  10
TORSDOF 8
ENDMDL
MODEL 6
REMARK VINA RESULT:      -5.1      3.142      4.734
REMARK  Name = 
REMARK  8 active torsions:
REMARK  status: ('A' for Active; 'I' for Inactive)
REMARK    1  A    between atoms: N_1  and  C_2
REMARK    2  A    between atoms: C_2  and  C_3
REMARK    3  A    between atoms: C_2  and  C_11
REMARK    4  A    between atoms: C_3  and  S_4
REMARK    5  A    between atoms: S_4  and  N_7
REMARK    6  A    between atoms: N_7  and  C_8
REMARK    7  A    between atoms: C_8  and  C_9
REMARK    8  A    between atoms: C_11  and  O_13
REMARK                            x       y       z     vdW  Elec       q    Type
REMARK                         _______ _______ _______ _____ _____    ______ ____
ROOT
ATOM      1  C   UNK     1       5.647   5.752  18.300  0.00  0.00    +0.000 C 
ENDROOT
BRANCH   1   2
ATOM      2  S   UNK     1       7.058   5.130  17.406  0.00  0.00    +0.000 S 
ATOM      3  O   UNK     1       7.527   6.199  16.547  0.00  0.00    +0.000 OA
ATOM      4  O   UNK     1       7.960   4.431  18.283  0.00  0.00    +0.000 OA
BRANCH   2   5
ATOM      5  N   UNK     1       6.374   3.978  16.376  0.00  0.00    +0.000 NA
ATOM      6  H   UNK     1       5.348   3.942  16.464  0.00  0.00    +0.000 HD
BRANCH   5   7
ATOM      7  C   UNK     1       6.749   4.210  14.951  0.00  0.00    +0.000 C 
BRANCH   7   8
ATOM      8  C   UNK     1       5.529   4.176  14.039  0.00  0.00    +0.000 C 
ATOM      9 CL   UNK     1       5.922   3.410  12.474  0.00  0.00    +0.000 Cl
ENDBRANCH   7   8
ENDBRANCH   5   7
ENDBRANCH   2   5
ENDBRANCH   1   2
BRANCH   1  10
ATOM     10  C   UNK     1       4.796   4.619  18.876  0.00  0.00    +0.000 C 
BRANCH  10  11
ATOM     11  N   UNK     1       5.482   3.300  19.055  0.00  0.00    +0.000 NA
ATOM     12  H   UNK     1       6.445   3.472  19.364  0.00  0.00    +0.000 HD
ATOM     13  H   UNK     1       5.631   2.877  18.122  0.00  0.00    +0.000 HD
ENDBRANCH  10  11
BRANCH  10  14
ATOM     14  C   UNK     1       3.505   4.410  18.076  0.00  0.00    +0.000 C 
ATOM     15  O   UNK     1       3.420   3.772  17.039  0.00  0.00    +0.000 OA
BRANCH  14  16
ATOM     16  O   UNK     1       2.471   5.104  18.617  0.00  0.00    +0.000 OA
ATOM     17  H   UNK     1       2.515   4.978  19.597  0.00  0.00    +0.000 HD
ENDBRANCH  14  16
ENDBRANCH  10  14
ENDBRANCH   1  10
TORSDOF 8
ENDMDL
MODEL 7
REMARK VINA RESULT:      -5.1      1.634      1.951
REMARK  Name = 
REMARK  8 active torsions:
REMARK  status: ('A' for Active; 'I' for Inactive)
REMARK    1  A    between atoms: N_1  and  C_2
REMARK    2  A    between atoms: C_2  and  C_3
REMARK    3  A    between atoms: C_2  and  C_11
REMARK    4  A    between atoms: C_3  and  S_4
REMARK    5  A    between atoms: S_4  and  N_7
REMARK    6  A    between atoms: N_7  and  C_8
REMARK    7  A    between atoms: C_8  and  C_9
REMARK    8  A    between atoms: C_11  and  O_13
REMARK                            x       y       z     vdW  Elec       q    Type
REMARK                         _______ _______ _______ _____ _____    ______ ____
ROOT
ATOM      1  C   UNK     1       4.475   5.105  17.466  0.00  0.00    +0.000 C 
ENDROOT
BRANCH   1   2
ATOM      2  S   UNK     1       4.776   4.796  19.196  0.00  0.00    +0.000 S 
ATOM      3  O   UNK     1       5.961   5.544  19.566  0.00  0.00    +0.000 OA
ATOM      4  O   UNK     1       3.561   4.900  19.959  0.00  0.00    +0.000 OA
BRANCH   2   5
ATOM      5  N   UNK     1       5.235   3.168  19.213  0.00  0.00    +0.000 NA
ATOM      6  H   UNK     1       6.057   3.006  19.811  0.00  0.00    +0.000 HD
BRANCH   5   7
ATOM      7  C   UNK     1       4.117   2.278  19.640  0.00  0.00    +0.000 C 
BRANCH   7   8
ATOM      8  C   UNK     1       3.451   1.606  18.447  0.00  0.00    +0.000 C 
ATOM      9 CL   UNK     1       1.851   2.328  18.117  0.00  0.00    +0.000 Cl
ENDBRANCH   7   8
ENDBRANCH   5   7
ENDBRANCH   2   5
ENDBRANCH   1   2
BRANCH   1  10
ATOM     10  C   UNK     1       5.734   5.598  16.751  0.00  0.00    +0.000 C 
BRANCH  10  11
ATOM     11  N   UNK     1       5.518   6.495  15.571  0.00  0.00    +0.000 NA
ATOM     12  H   UNK     1       5.918   6.043  14.741  0.00  0.00    +0.000 HD
ATOM     13  H   UNK     1       6.127   7.326  15.674  0.00  0.00    +0.000 HD
ENDBRANCH  10  11
BRANCH  10  14
ATOM     14  C   UNK     1       6.651   4.440  16.343  0.00  0.00    +0.000 C 
ATOM     15  O   UNK     1       7.857   4.527  16.180  0.00  0.00    +0.000 OA
BRANCH  14  16
ATOM     16  O   UNK     1       5.939   3.311  16.093  0.00  0.00    +0.000 OA
ATOM     17  H   UNK     1       5.084   3.589  15.681  0.00  0.00    +0.000 HD
ENDBRANCH  14  16
ENDBRANCH  10  14
ENDBRANCH   1  10
TORSDOF 8
ENDMDL
MODEL 8
REMARK VINA RESULT:      -5.1      0.971      1.278
REMARK  Name = 
REMARK  8 active torsions:
REMARK  status: ('A' for Active; 'I' for Inactive)
REMARK    1  A    between atoms: N_1  and  C_2
REMARK    2  A    between atoms: C_2  and  C_3
REMARK    3  A    between atoms: C_2  and  C_11
REMARK    4  A    between atoms: C_3  and  S_4
REMARK    5  A    between atoms: S_4  and  N_7
REMARK    6  A    between atoms: N_7  and  C_8
REMARK    7  A    between atoms: C_8  and  C_9
REMARK    8  A    between atoms: C_11  and  O_13
REMARK                            x       y       z     vdW  Elec       q    Type
REMARK                         _______ _______ _______ _____ _____    ______ ____
ROOT
ATOM      1  C   UNK     1       5.563   4.615  17.055  0.00  0.00    +0.000 C 
ENDROOT
BRANCH   1   2
ATOM      2  S   UNK     1       5.534   4.698  18.836  0.00  0.00    +0.000 S 
ATOM      3  O   UNK     1       6.905   4.845  19.281  0.00  0.00    +0.000 OA
ATOM      4  O   UNK     1       4.502   5.589  19.296  0.00  0.00    +0.000 OA
BRANCH   2   5
ATOM      5  N   UNK     1       5.072   3.132  19.277  0.00  0.00    +0.000 NA
ATOM      6  H   UNK     1       4.920   3.046  20.292  0.00  0.00    +0.000 HD
BRANCH   5   7
ATOM      7  C   UNK     1       3.851   2.684  18.546  0.00  0.00    +0.000 C 
BRANCH   7   8
ATOM      8  C   UNK     1       2.699   2.402  19.502  0.00  0.00    +0.000 C 
ATOM      9 CL   UNK     1       1.547   3.766  19.534  0.00  0.00    +0.000 Cl
ENDBRANCH   7   8
ENDBRANCH   5   7
ENDBRANCH   2   5
ENDBRANCH   1   2
BRANCH   1  10
ATOM     10  C   UNK     1       6.938   4.977  16.493  0.00  0.00    +0.000 C 
BRANCH  10  11
ATOM     11  N   UNK     1       7.406   6.378  16.737  0.00  0.00    +0.000 NA
ATOM     12  H   UNK     1       7.355   6.898  15.854  0.00  0.00    +0.000 HD
ATOM     13  H   UNK     1       8.427   6.358  16.912  0.00  0.00    +0.000 HD
ENDBRANCH  10  11
BRANCH  10  14
ATOM     14  C   UNK     1       7.046   4.663  14.997  0.00  0.00    +0.000 C 
ATOM     15  O   UNK     1       7.626   5.357  14.177  0.00  0.00    +0.000 OA
BRANCH  14  16
ATOM     16  O   UNK     1       6.333   3.554  14.672  0.00  0.00    +0.000 OA
ATOM     17  H   UNK     1       5.623   3.836  14.044  0.00  0.00    +0.000 HD
ENDBRANCH  14  16
ENDBRANCH  10  14
ENDBRANCH   1  10
TORSDOF 8
ENDMDL
MODEL 9
REMARK VINA RESULT:      -5.1      1.763      1.851
REMARK  Name = 
REMARK  8 active torsions:
REMARK  status: ('A' for Active; 'I' for Inactive)
REMARK    1  A    between atoms: N_1  and  C_2
REMARK    2  A    between atoms: C_2  and  C_3
REMARK    3  A    between atoms: C_2  and  C_11
REMARK    4  A    between atoms: C_3  and  S_4
REMARK    5  A    between atoms: S_4  and  N_7
REMARK    6  A    between atoms: N_7  and  C_8
REMARK    7  A    between atoms: C_8  and  C_9
REMARK    8  A    between atoms: C_11  and  O_13
REMARK                            x       y       z     vdW  Elec       q    Type
REMARK                         _______ _______ _______ _____ _____    ______ ____
ROOT
ATOM      1  C   UNK     1       5.207   3.962  16.695  0.00  0.00    +0.000 C 
ENDROOT
BRANCH   1   2
ATOM      2  S   UNK     1       4.945   4.654  18.317  0.00  0.00    +0.000 S 
ATOM      3  O   UNK     1       5.492   3.717  19.278  0.00  0.00    +0.000 OA
ATOM      4  O   UNK     1       5.304   6.047  18.349  0.00  0.00    +0.000 OA
BRANCH   2   5
ATOM      5  N   UNK     1       3.266   4.570  18.496  0.00  0.00    +0.000 NA
ATOM      6  H   UNK     1       2.954   3.628  18.772  0.00  0.00    +0.000 HD
BRANCH   5   7
ATOM      7  C   UNK     1       2.758   5.574  19.476  0.00  0.00    +0.000 C 
BRANCH   7   8
ATOM      8  C   UNK     1       2.224   4.906  20.735  0.00  0.00    +0.000 C 
ATOM      9 CL   UNK     1       0.907   3.763  20.344  0.00  0.00    +0.000 Cl
ENDBRANCH   7   8
ENDBRANCH   5   7
ENDBRANCH   2   5
ENDBRANCH   1   2
BRANCH   1  10
ATOM     10  C   UNK     1       6.644   4.167  16.216  0.00  0.00    +0.000 C 
BRANCH  10  11
ATOM     11  N   UNK     1       7.669   4.415  17.280  0.00  0.00    +0.000 NA
ATOM     12  H   UNK     1       8.523   4.768  16.835  0.00  0.00    +0.000 HD
ATOM     13  H   UNK     1       7.985   3.501  17.651  0.00  0.00    +0.000 HD
ENDBRANCH  10  11
BRANCH  10  14
ATOM     14  C   UNK     1       6.742   5.270  15.156  0.00  0.00    +0.000 C 
ATOM     15  O   UNK     1       7.670   5.409  14.376  0.00  0.00    +0.000 OA
BRANCH  14  16
ATOM     16  O   UNK     1       5.703   6.139  15.250  0.00  0.00    +0.000 OA
ATOM     17  H   UNK     1       5.140   6.010  14.447  0.00  0.00    +0.000 HD
ENDBRANCH  14  16
ENDBRANCH  10  14
ENDBRANCH   1  10
TORSDOF 8
ENDMDL
