MODEL 1
REMARK VINA RESULT:      -6.4      0.000      0.000
REMARK  Name = 
REMARK  5 active torsions:
REMARK  status: ('A' for Active; 'I' for Inactive)
REMARK    1  A    between atoms: C_1  and  C_2
REMARK    2  A    between atoms: C_2  and  C_3
REMARK    3  A    between atoms: C_2  and  C_4
REMARK    4  A    between atoms: C_2  and  C_5
REMARK    5  A    between atoms: C_5  and  O_6
REMARK                            x       y       z     vdW  Elec       q    Type
REMARK                         _______ _______ _______ _____ _____    ______ ____
ROOT
ATOM      1  C   UNL     1      -7.023  14.921  21.984  0.00  0.00    +0.000 C 
ATOM      2  C   UNL     1      -7.839  14.012  21.049  0.00  0.00    +0.000 C 
ATOM      3  C   UNL     1      -7.010  13.068  20.181  0.00  0.00    +0.000 C 
ATOM      4  N   UNL     1      -5.592  13.321  20.174  0.00  0.00    +0.000 NA
ATOM      5  C   UNL     1      -4.801  12.483  19.291  0.00  0.00    +0.000 C 
ATOM      6  C   UNL     1      -3.446  12.184  19.967  0.00  0.00    +0.000 C 
ATOM      7  C   UNL     1      -2.435  11.702  18.892  0.00  0.00    +0.000 C 
ATOM      8  C   UNL     1      -0.953  11.756  19.287  0.00  0.00    +0.000 C 
ATOM      9  C   UNL     1      -0.746  11.106  20.631  0.00  0.00    +0.000 A 
ATOM     10  C   UNL     1      -0.228   9.807  20.714  0.00  0.00    +0.000 A 
ATOM     11  C   UNL     1      -0.179   9.151  21.939  0.00  0.00    +0.000 A 
ATOM     12  C   UNL     1      -0.644   9.789  23.088  0.00  0.00    +0.000 A 
ATOM     13  C   UNL     1      -1.137  11.095  23.017  0.00  0.00    +0.000 A 
ATOM     14  C   UNL     1      -1.195  11.775  21.792  0.00  0.00    +0.000 A 
ATOM     15  C   UNL     1      -1.805  13.116  21.680  0.00  0.00    +0.000 A 
ATOM     16  C   UNL     1      -1.290  14.193  22.412  0.00  0.00    +0.000 A 
ATOM     17  C   UNL     1      -1.848  15.463  22.291  0.00  0.00    +0.000 A 
ATOM     18  C   UNL     1      -2.996  15.652  21.522  0.00  0.00    +0.000 A 
ATOM     19  C   UNL     1      -3.611  14.574  20.871  0.00  0.00    +0.000 A 
ATOM     20  C   UNL     1      -2.924  13.336  20.833  0.00  0.00    +0.000 A 
ATOM     21  C   UNL     1      -5.034  14.668  20.293  0.00  0.00    +0.000 C 
ATOM     22  C   UNL     1      -5.970  15.603  21.084  0.00  0.00    +0.000 C 
ENDROOT
BRANCH   1  24
ATOM     23  C   UNL     1      -7.710  14.039  24.328  0.00  0.00    +0.000 C 
ATOM     24  C   UNL     1      -6.525  14.286  23.358  0.00  0.00    +0.000 C 
ATOM     25  C   UNL     1      -5.558  15.259  24.078  0.00  0.00    +0.000 C 
ATOM     26  C   UNL     1      -5.806  12.929  23.260  0.00  0.00    +0.000 C 
ENDBRANCH   1  24
BRANCH   1  27
ATOM     27  O   UNL     1      -7.914  16.014  22.343  0.00  0.00    +0.000 OA
ATOM     28  H   UNL     1      -8.797  15.645  22.509  0.00  0.00    +0.000 HD
ENDBRANCH   1  27
TORSDOF 2
ENDMDL
MODEL 2
REMARK VINA RESULT:      -6.2      4.301      6.537
REMARK  Name = 
REMARK  5 active torsions:
REMARK  status: ('A' for Active; 'I' for Inactive)
REMARK    1  A    between atoms: C_1  and  C_2
REMARK    2  A    between atoms: C_2  and  C_3
REMARK    3  A    between atoms: C_2  and  C_4
REMARK    4  A    between atoms: C_2  and  C_5
REMARK    5  A    between atoms: C_5  and  O_6
REMARK                            x       y       z     vdW  Elec       q    Type
REMARK                         _______ _______ _______ _____ _____    ______ ____
ROOT
ATOM      1  C   UNL     1       1.611  17.063  20.158  0.00  0.00    +0.000 C 
ATOM      2  C   UNL     1       2.702  16.989  19.075  0.00  0.00    +0.000 C 
ATOM      3  C   UNL     1       2.887  15.614  18.439  0.00  0.00    +0.000 C 
ATOM      4  N   UNL     1       2.199  14.531  19.096  0.00  0.00    +0.000 NA
ATOM      5  C   UNL     1       2.431  13.206  18.549  0.00  0.00    +0.000 C 
ATOM      6  C   UNL     1       1.122  12.392  18.641  0.00  0.00    +0.000 C 
ATOM      7  C   UNL     1       1.452  10.881  18.505  0.00  0.00    +0.000 C 
ATOM      8  C   UNL     1       0.363   9.908  18.980  0.00  0.00    +0.000 C 
ATOM      9  C   UNL     1      -0.969  10.283  18.383  0.00  0.00    +0.000 A 
ATOM     10  C   UNL     1      -1.478   9.568  17.290  0.00  0.00    +0.000 A 
ATOM     11  C   UNL     1      -2.630  10.006  16.645  0.00  0.00    +0.000 A 
ATOM     12  C   UNL     1      -3.280  11.155  17.088  0.00  0.00    +0.000 A 
ATOM     13  C   UNL     1      -2.794  11.858  18.193  0.00  0.00    +0.000 A 
ATOM     14  C   UNL     1      -1.634  11.434  18.860  0.00  0.00    +0.000 A 
ATOM     15  C   UNL     1      -1.047  12.218  19.967  0.00  0.00    +0.000 A 
ATOM     16  C   UNL     1      -1.790  12.472  21.127  0.00  0.00    +0.000 A 
ATOM     17  C   UNL     1      -1.232  13.191  22.181  0.00  0.00    +0.000 A 
ATOM     18  C   UNL     1       0.035  13.759  22.047  0.00  0.00    +0.000 A 
ATOM     19  C   UNL     1       0.759  13.629  20.853  0.00  0.00    +0.000 A 
ATOM     20  C   UNL     1       0.274  12.730  19.872  0.00  0.00    +0.000 A 
ATOM     21  C   UNL     1       1.992  14.497  20.543  0.00  0.00    +0.000 C 
ATOM     22  C   UNL     1       1.925  15.915  21.142  0.00  0.00    +0.000 C 
ENDROOT
BRANCH   1  24
ATOM     23  C   UNL     1      -0.144  18.631  19.061  0.00  0.00    +0.000 C 
ATOM     24  C   UNL     1       0.106  17.222  19.659  0.00  0.00    +0.000 C 
ATOM     25  C   UNL     1      -0.871  17.067  20.852  0.00  0.00    +0.000 C 
ATOM     26  C   UNL     1      -0.357  16.241  18.569  0.00  0.00    +0.000 C 
ENDBRANCH   1  24
BRANCH   1  27
ATOM     27  O   UNL     1       1.909  18.258  20.933  0.00  0.00    +0.000 OA
ATOM     28  H   UNL     1       1.901  18.021  21.874  0.00  0.00    +0.000 HD
ENDBRANCH   1  27
TORSDOF 2
ENDMDL
MODEL 3
REMARK VINA RESULT:      -6.2     10.116     13.300
REMARK  Name = 
REMARK  5 active torsions:
REMARK  status: ('A' for Active; 'I' for Inactive)
REMARK    1  A    between atoms: C_1  and  C_2
REMARK    2  A    between atoms: C_2  and  C_3
REMARK    3  A    between atoms: C_2  and  C_4
REMARK    4  A    between atoms: C_2  and  C_5
REMARK    5  A    between atoms: C_5  and  O_6
REMARK                            x       y       z     vdW  Elec       q    Type
REMARK                         _______ _______ _______ _____ _____    ______ ____
ROOT
ATOM      1  C   UNL     1      10.896  12.977  19.817  0.00  0.00    +0.000 C 
ATOM      2  C   UNL     1      10.497  11.874  20.812  0.00  0.00    +0.000 C 
ATOM      3  C   UNL     1       9.159  12.091  21.514  0.00  0.00    +0.000 C 
ATOM      4  N   UNL     1       8.574  13.396  21.337  0.00  0.00    +0.000 NA
ATOM      5  C   UNL     1       7.341  13.643  22.065  0.00  0.00    +0.000 C 
ATOM      6  C   UNL     1       6.417  14.521  21.196  0.00  0.00    +0.000 C 
ATOM      7  C   UNL     1       5.332  15.169  22.099  0.00  0.00    +0.000 C 
ATOM      8  C   UNL     1       4.594  16.377  21.506  0.00  0.00    +0.000 C 
ATOM      9  C   UNL     1       4.100  16.059  20.119  0.00  0.00    +0.000 A 
ATOM     10  C   UNL     1       2.753  15.737  19.906  0.00  0.00    +0.000 A 
ATOM     11  C   UNL     1       2.329  15.297  18.657  0.00  0.00    +0.000 A 
ATOM     12  C   UNL     1       3.244  15.179  17.614  0.00  0.00    +0.000 A 
ATOM     13  C   UNL     1       4.584  15.524  17.811  0.00  0.00    +0.000 A 
ATOM     14  C   UNL     1       5.034  15.971  19.062  0.00  0.00    +0.000 A 
ATOM     15  C   UNL     1       6.464  16.244  19.318  0.00  0.00    +0.000 A 
ATOM     16  C   UNL     1       7.145  17.214  18.572  0.00  0.00    +0.000 A 
ATOM     17  C   UNL     1       8.486  17.490  18.826  0.00  0.00    +0.000 A 
ATOM     18  C   UNL     1       9.193  16.726  19.754  0.00  0.00    +0.000 A 
ATOM     19  C   UNL     1       8.576  15.667  20.434  0.00  0.00    +0.000 A 
ATOM     20  C   UNL     1       7.171  15.528  20.320  0.00  0.00    +0.000 A 
ATOM     21  C   UNL     1       9.382  14.607  21.205  0.00  0.00    +0.000 C 
ATOM     22  C   UNL     1      10.764  14.305  20.593  0.00  0.00    +0.000 C 
ENDROOT
BRANCH   1  24
ATOM     23  C   UNL     1      10.931  11.802  17.501  0.00  0.00    +0.000 C 
ATOM     24  C   UNL     1      10.255  12.902  18.359  0.00  0.00    +0.000 C 
ATOM     25  C   UNL     1      10.469  14.243  17.612  0.00  0.00    +0.000 C 
ATOM     26  C   UNL     1       8.751  12.586  18.294  0.00  0.00    +0.000 C 
ENDBRANCH   1  24
BRANCH   1  27
ATOM     27  O   UNL     1      12.333  12.838  19.633  0.00  0.00    +0.000 OA
ATOM     28  H   UNL     1      12.654  13.613  19.145  0.00  0.00    +0.000 HD
ENDBRANCH   1  27
TORSDOF 2
ENDMDL
MODEL 4
REMARK VINA RESULT:      -6.2      2.517      5.699
REMARK  Name = 
REMARK  5 active torsions:
REMARK  status: ('A' for Active; 'I' for Inactive)
REMARK    1  A    between atoms: C_1  and  C_2
REMARK    2  A    between atoms: C_2  and  C_3
REMARK    3  A    between atoms: C_2  and  C_4
REMARK    4  A    between atoms: C_2  and  C_5
REMARK    5  A    between atoms: C_5  and  O_6
REMARK                            x       y       z     vdW  Elec       q    Type
REMARK                         _______ _______ _______ _____ _____    ______ ____
ROOT
ATOM      1  C   UNL     1      -3.229  14.651  24.543  0.00  0.00    +0.000 C 
ATOM      2  C   UNL     1      -1.827  14.496  23.928  0.00  0.00    +0.000 C 
ATOM      3  C   UNL     1      -1.801  13.895  22.525  0.00  0.00    +0.000 C 
ATOM      4  N   UNL     1      -3.049  13.335  22.070  0.00  0.00    +0.000 NA
ATOM      5  C   UNL     1      -3.018  12.688  20.771  0.00  0.00    +0.000 C 
ATOM      6  C   UNL     1      -4.352  12.962  20.045  0.00  0.00    +0.000 C 
ATOM      7  C   UNL     1      -4.529  11.931  18.897  0.00  0.00    +0.000 C 
ATOM      8  C   UNL     1      -5.952  11.778  18.342  0.00  0.00    +0.000 C 
ATOM      9  C   UNL     1      -6.538  13.129  18.023  0.00  0.00    +0.000 A 
ATOM     10  C   UNL     1      -6.583  13.584  16.699  0.00  0.00    +0.000 A 
ATOM     11  C   UNL     1      -6.982  14.887  16.420  0.00  0.00    +0.000 A 
ATOM     12  C   UNL     1      -7.340  15.741  17.461  0.00  0.00    +0.000 A 
ATOM     13  C   UNL     1      -7.323  15.287  18.782  0.00  0.00    +0.000 A 
ATOM     14  C   UNL     1      -6.925  13.976  19.085  0.00  0.00    +0.000 A 
ATOM     15  C   UNL     1      -6.803  13.508  20.482  0.00  0.00    +0.000 A 
ATOM     16  C   UNL     1      -7.916  13.515  21.332  0.00  0.00    +0.000 A 
ATOM     17  C   UNL     1      -7.811  13.053  22.641  0.00  0.00    +0.000 A 
ATOM     18  C   UNL     1      -6.568  12.681  23.153  0.00  0.00    +0.000 A 
ATOM     19  C   UNL     1      -5.409  12.775  22.369  0.00  0.00    +0.000 A 
ATOM     20  C   UNL     1      -5.558  13.048  20.987  0.00  0.00    +0.000 A 
ATOM     21  C   UNL     1      -3.998  12.693  22.978  0.00  0.00    +0.000 C 
ATOM     22  C   UNL     1      -3.898  13.266  24.405  0.00  0.00    +0.000 C 
ENDROOT
BRANCH   1  24
ATOM     23  C   UNL     1      -3.812  16.301  22.624  0.00  0.00    +0.000 C 
ATOM     24  C   UNL     1      -4.073  15.930  24.108  0.00  0.00    +0.000 C 
ATOM     25  C   UNL     1      -3.654  17.160  24.952  0.00  0.00    +0.000 C 
ATOM     26  C   UNL     1      -5.602  15.807  24.221  0.00  0.00    +0.000 C 
ENDBRANCH   1  24
BRANCH   1  27
ATOM     27  O   UNL     1      -3.015  14.777  25.978  0.00  0.00    +0.000 OA
ATOM     28  H   UNL     1      -2.745  13.911  26.323  0.00  0.00    +0.000 HD
ENDBRANCH   1  27
TORSDOF 2
ENDMDL
MODEL 5
REMARK VINA RESULT:      -6.1      4.419      7.185
REMARK  Name = 
REMARK  5 active torsions:
REMARK  status: ('A' for Active; 'I' for Inactive)
REMARK    1  A    between atoms: C_1  and  C_2
REMARK    2  A    between atoms: C_2  and  C_3
REMARK    3  A    between atoms: C_2  and  C_4
REMARK    4  A    between atoms: C_2  and  C_5
REMARK    5  A    between atoms: C_5  and  O_6
REMARK                            x       y       z     vdW  Elec       q    Type
REMARK                         _______ _______ _______ _____ _____    ______ ____
ROOT
ATOM      1  C   UNL     1       2.883  16.606  19.155  0.00  0.00    +0.000 C 
ATOM      2  C   UNL     1       3.124  17.317  20.497  0.00  0.00    +0.000 C 
ATOM      3  C   UNL     1       2.300  16.785  21.667  0.00  0.00    +0.000 C 
ATOM      4  N   UNL     1       1.246  15.867  21.313  0.00  0.00    +0.000 NA
ATOM      5  C   UNL     1       0.403  15.416  22.405  0.00  0.00    +0.000 C 
ATOM      6  C   UNL     1       0.022  13.940  22.164  0.00  0.00    +0.000 C 
ATOM      7  C   UNL     1      -1.214  13.584  23.034  0.00  0.00    +0.000 C 
ATOM      8  C   UNL     1      -1.982  12.318  22.630  0.00  0.00    +0.000 C 
ATOM      9  C   UNL     1      -1.029  11.164  22.450  0.00  0.00    +0.000 A 
ATOM     10  C   UNL     1      -0.903  10.191  23.449  0.00  0.00    +0.000 A 
ATOM     11  C   UNL     1       0.082   9.213  23.353  0.00  0.00    +0.000 A 
ATOM     12  C   UNL     1       0.942   9.199  22.257  0.00  0.00    +0.000 A 
ATOM     13  C   UNL     1       0.804  10.150  21.242  0.00  0.00    +0.000 A 
ATOM     14  C   UNL     1      -0.182  11.145  21.319  0.00  0.00    +0.000 A 
ATOM     15  C   UNL     1      -0.279  12.219  20.308  0.00  0.00    +0.000 A 
ATOM     16  C   UNL     1      -0.502  11.906  18.961  0.00  0.00    +0.000 A 
ATOM     17  C   UNL     1      -0.616  12.917  18.010  0.00  0.00    +0.000 A 
ATOM     18  C   UNL     1      -0.401  14.246  18.372  0.00  0.00    +0.000 A 
ATOM     19  C   UNL     1      -0.056  14.586  19.688  0.00  0.00    +0.000 A 
ATOM     20  C   UNL     1      -0.144  13.582  20.683  0.00  0.00    +0.000 A 
ATOM     21  C   UNL     1       0.504  15.972  20.057  0.00  0.00    +0.000 C 
ATOM     22  C   UNL     1       1.353  16.619  18.946  0.00  0.00    +0.000 C 
ENDROOT
BRANCH   1  24
ATOM     23  C   UNL     1       5.151  15.470  18.595  0.00  0.00    +0.000 C 
ATOM     24  C   UNL     1       3.653  15.230  18.916  0.00  0.00    +0.000 C 
ATOM     25  C   UNL     1       3.051  14.486  17.698  0.00  0.00    +0.000 C 
ATOM     26  C   UNL     1       3.654  14.239  20.093  0.00  0.00    +0.000 C 
ENDBRANCH   1  24
BRANCH   1  27
ATOM     27  O   UNL     1       3.368  17.522  18.133  0.00  0.00    +0.000 OA
ATOM     28  H   UNL     1       4.077  17.080  17.639  0.00  0.00    +0.000 HD
ENDBRANCH   1  27
TORSDOF 2
ENDMDL
MODEL 6
REMARK VINA RESULT:      -6.1     11.468     14.384
REMARK  Name = 
REMARK  5 active torsions:
REMARK  status: ('A' for Active; 'I' for Inactive)
REMARK    1  A    between atoms: C_1  and  C_2
REMARK    2  A    between atoms: C_2  and  C_3
REMARK    3  A    between atoms: C_2  and  C_4
REMARK    4  A    between atoms: C_2  and  C_5
REMARK    5  A    between atoms: C_5  and  O_6
REMARK                            x       y       z     vdW  Elec       q    Type
REMARK                         _______ _______ _______ _____ _____    ______ ____
ROOT
ATOM      1  C   UNL     1      10.816  14.468  17.786  0.00  0.00    +0.000 C 
ATOM      2  C   UNL     1      12.229  14.896  18.216  0.00  0.00    +0.000 C 
ATOM      3  C   UNL     1      12.332  15.452  19.634  0.00  0.00    +0.000 C 
ATOM      4  N   UNL     1      11.075  15.726  20.282  0.00  0.00    +0.000 NA
ATOM      5  C   UNL     1      11.158  16.331  21.600  0.00  0.00    +0.000 C 
ATOM      6  C   UNL     1      10.025  15.764  22.481  0.00  0.00    +0.000 C 
ATOM      7  C   UNL     1       9.807  16.704  23.698  0.00  0.00    +0.000 C 
ATOM      8  C   UNL     1       8.477  16.542  24.446  0.00  0.00    +0.000 C 
ATOM      9  C   UNL     1       8.229  15.090  24.765  0.00  0.00    +0.000 A 
ATOM     10  C   UNL     1       8.466  14.601  26.056  0.00  0.00    +0.000 A 
ATOM     11  C   UNL     1       8.385  13.236  26.312  0.00  0.00    +0.000 A 
ATOM     12  C   UNL     1       8.064  12.354  25.283  0.00  0.00    +0.000 A 
ATOM     13  C   UNL     1       7.800  12.837  23.999  0.00  0.00    +0.000 A 
ATOM     14  C   UNL     1       7.876  14.210  23.718  0.00  0.00    +0.000 A 
ATOM     15  C   UNL     1       7.700  14.730  22.346  0.00  0.00    +0.000 A 
ATOM     16  C   UNL     1       6.501  14.512  21.653  0.00  0.00    +0.000 A 
ATOM     17  C   UNL     1       6.323  15.021  20.370  0.00  0.00    +0.000 A 
ATOM     18  C   UNL     1       7.379  15.659  19.717  0.00  0.00    +0.000 A 
ATOM     19  C   UNL     1       8.632  15.788  20.333  0.00  0.00    +0.000 A 
ATOM     20  C   UNL     1       8.740  15.453  21.705  0.00  0.00    +0.000 A 
ATOM     21  C   UNL     1       9.895  16.179  19.546  0.00  0.00    +0.000 C 
ATOM     22  C   UNL     1       9.905  15.678  18.089  0.00  0.00    +0.000 C 
ENDROOT
BRANCH   1  24
ATOM     23  C   UNL     1      11.121  11.899  17.562  0.00  0.00    +0.000 C 
ATOM     24  C   UNL     1      10.320  13.029  18.259  0.00  0.00    +0.000 C 
ATOM     25  C   UNL     1       8.834  12.822  17.873  0.00  0.00    +0.000 C 
ATOM     26  C   UNL     1      10.440  12.729  19.763  0.00  0.00    +0.000 C 
ENDBRANCH   1  24
BRANCH   1  27
ATOM     27  O   UNL     1      10.845  14.427  16.331  0.00  0.00    +0.000 OA
ATOM     28  H   UNL     1      11.403  15.157  16.017  0.00  0.00    +0.000 HD
ENDBRANCH   1  27
TORSDOF 2
ENDMDL
MODEL 7
REMARK VINA RESULT:      -5.9      2.965      6.256
REMARK  Name = 
REMARK  5 active torsions:
REMARK  status: ('A' for Active; 'I' for Inactive)
REMARK    1  A    between atoms: C_1  and  C_2
REMARK    2  A    between atoms: C_2  and  C_3
REMARK    3  A    between atoms: C_2  and  C_4
REMARK    4  A    between atoms: C_2  and  C_5
REMARK    5  A    between atoms: C_5  and  O_6
REMARK                            x       y       z     vdW  Elec       q    Type
REMARK                         _______ _______ _______ _____ _____    ______ ____
ROOT
ATOM      1  C   UNL     1       0.826  14.146  21.069  0.00  0.00    +0.000 C 
ATOM      2  C   UNL     1       1.487  13.865  19.708  0.00  0.00    +0.000 C 
ATOM      3  C   UNL     1       0.598  13.151  18.694  0.00  0.00    +0.000 C 
ATOM      4  N   UNL     1      -0.637  12.625  19.218  0.00  0.00    +0.000 NA
ATOM      5  C   UNL     1      -1.455  11.874  18.282  0.00  0.00    +0.000 C 
ATOM      6  C   UNL     1      -2.943  12.161  18.578  0.00  0.00    +0.000 C 
ATOM      7  C   UNL     1      -3.815  11.051  17.929  0.00  0.00    +0.000 C 
ATOM      8  C   UNL     1      -5.252  10.932  18.452  0.00  0.00    +0.000 C 
ATOM      9  C   UNL     1      -5.920  12.282  18.461  0.00  0.00    +0.000 A 
ATOM     10  C   UNL     1      -6.825  12.630  17.450  0.00  0.00    +0.000 A 
ATOM     11  C   UNL     1      -7.323  13.926  17.372  0.00  0.00    +0.000 A 
ATOM     12  C   UNL     1      -6.925  14.880  18.305  0.00  0.00    +0.000 A 
ATOM     13  C   UNL     1      -6.044  14.534  19.334  0.00  0.00    +0.000 A 
ATOM     14  C   UNL     1      -5.529  13.233  19.431  0.00  0.00    +0.000 A 
ATOM     15  C   UNL     1      -4.519  12.874  20.449  0.00  0.00    +0.000 A 
ATOM     16  C   UNL     1      -4.808  13.012  21.813  0.00  0.00    +0.000 A 
ATOM     17  C   UNL     1      -3.867  12.653  22.775  0.00  0.00    +0.000 A 
ATOM     18  C   UNL     1      -2.587  12.256  22.387  0.00  0.00    +0.000 A 
ATOM     19  C   UNL     1      -2.223  12.222  21.034  0.00  0.00    +0.000 A 
ATOM     20  C   UNL     1      -3.241  12.389  20.064  0.00  0.00    +0.000 A 
ATOM     21  C   UNL     1      -0.756  12.112  20.582  0.00  0.00    +0.000 C 
ATOM     22  C   UNL     1       0.245  12.794  21.535  0.00  0.00    +0.000 C 
ENDROOT
BRANCH   1  24
ATOM     23  C   UNL     1       0.716  16.741  21.117  0.00  0.00    +0.000 C 
ATOM     24  C   UNL     1      -0.113  15.431  21.165  0.00  0.00    +0.000 C 
ATOM     25  C   UNL     1      -0.873  15.436  22.516  0.00  0.00    +0.000 C 
ATOM     26  C   UNL     1      -1.167  15.588  20.056  0.00  0.00    +0.000 C 
ENDBRANCH   1  24
BRANCH   1  27
ATOM     27  O   UNL     1       1.923  14.377  21.997  0.00  0.00    +0.000 OA
ATOM     28  H   UNL     1       1.653  14.057  22.873  0.00  0.00    +0.000 HD
ENDBRANCH   1  27
TORSDOF 2
ENDMDL
MODEL 8
REMARK VINA RESULT:      -5.9     10.109     12.198
REMARK  Name = 
REMARK  5 active torsions:
REMARK  status: ('A' for Active; 'I' for Inactive)
REMARK    1  A    between atoms: C_1  and  C_2
REMARK    2  A    between atoms: C_2  and  C_3
REMARK    3  A    between atoms: C_2  and  C_4
REMARK    4  A    between atoms: C_2  and  C_5
REMARK    5  A    between atoms: C_5  and  O_6
REMARK                            x       y       z     vdW  Elec       q    Type
REMARK                         _______ _______ _______ _____ _____    ______ ____
ROOT
ATOM      1  C   UNL     1       5.362  15.144  23.619  0.00  0.00    +0.000 C 
ATOM      2  C   UNL     1       4.223  14.773  22.653  0.00  0.00    +0.000 C 
ATOM      3  C   UNL     1       4.633  14.655  21.187  0.00  0.00    +0.000 C 
ATOM      4  N   UNL     1       5.955  15.137  20.875  0.00  0.00    +0.000 NA
ATOM      5  C   UNL     1       6.327  15.106  19.472  0.00  0.00    +0.000 C 
ATOM      6  C   UNL     1       7.824  14.749  19.361  0.00  0.00    +0.000 C 
ATOM      7  C   UNL     1       8.343  15.155  17.955  0.00  0.00    +0.000 C 
ATOM      8  C   UNL     1       9.866  15.264  17.803  0.00  0.00    +0.000 C 
ATOM      9  C   UNL     1      10.536  14.030  18.350  0.00  0.00    +0.000 A 
ATOM     10  C   UNL     1      11.000  13.035  17.480  0.00  0.00    +0.000 A 
ATOM     11  C   UNL     1      11.479  11.832  17.986  0.00  0.00    +0.000 A 
ATOM     12  C   UNL     1      11.501  11.616  19.362  0.00  0.00    +0.000 A 
ATOM     13  C   UNL     1      11.065  12.615  20.238  0.00  0.00    +0.000 A 
ATOM     14  C   UNL     1      10.578  13.836  19.748  0.00  0.00    +0.000 A 
ATOM     15  C   UNL     1      10.019  14.864  20.652  0.00  0.00    +0.000 A 
ATOM     16  C   UNL     1      10.809  15.424  21.664  0.00  0.00    +0.000 A 
ATOM     17  C   UNL     1      10.293  16.409  22.501  0.00  0.00    +0.000 A 
ATOM     18  C   UNL     1       8.948  16.769  22.411  0.00  0.00    +0.000 A 
ATOM     19  C   UNL     1       8.096  16.143  21.491  0.00  0.00    +0.000 A 
ATOM     20  C   UNL     1       8.674  15.297  20.513  0.00  0.00    +0.000 A 
ATOM     21  C   UNL     1       6.564  16.266  21.577  0.00  0.00    +0.000 C 
ATOM     22  C   UNL     1       6.027  16.400  23.015  0.00  0.00    +0.000 C 
ENDROOT
BRANCH   1  24
ATOM     23  C   UNL     1       5.627  13.093  25.191  0.00  0.00    +0.000 C 
ATOM     24  C   UNL     1       6.313  13.960  24.103  0.00  0.00    +0.000 C 
ATOM     25  C   UNL     1       7.601  14.538  24.744  0.00  0.00    +0.000 C 
ATOM     26  C   UNL     1       6.759  12.960  23.023  0.00  0.00    +0.000 C 
ENDBRANCH   1  24
BRANCH   1  27
ATOM     27  O   UNL     1       4.709  15.653  24.816  0.00  0.00    +0.000 OA
ATOM     28  H   UNL     1       4.188  14.934  25.209  0.00  0.00    +0.000 HD
ENDBRANCH   1  27
TORSDOF 2
ENDMDL
MODEL 9
REMARK VINA RESULT:      -5.9      2.753      6.526
REMARK  Name = 
REMARK  5 active torsions:
REMARK  status: ('A' for Active; 'I' for Inactive)
REMARK    1  A    between atoms: C_1  and  C_2
REMARK    2  A    between atoms: C_2  and  C_3
REMARK    3  A    between atoms: C_2  and  C_4
REMARK    4  A    between atoms: C_2  and  C_5
REMARK    5  A    between atoms: C_5  and  O_6
REMARK                            x       y       z     vdW  Elec       q    Type
REMARK                         _______ _______ _______ _____ _____    ______ ____
ROOT
ATOM      1  C   UNL     1       0.474  11.537  19.786  0.00  0.00    +0.000 C 
ATOM      2  C   UNL     1       0.727  10.318  20.690  0.00  0.00    +0.000 C 
ATOM      3  C   UNL     1      -0.163  10.236  21.927  0.00  0.00    +0.000 C 
ATOM      4  N   UNL     1      -0.939  11.417  22.208  0.00  0.00    +0.000 NA
ATOM      5  C   UNL     1      -1.729  11.383  23.427  0.00  0.00    +0.000 C 
ATOM      6  C   UNL     1      -3.058  12.127  23.181  0.00  0.00    +0.000 C 
ATOM      7  C   UNL     1      -3.694  12.502  24.547  0.00  0.00    +0.000 C 
ATOM      8  C   UNL     1      -4.779  13.586  24.512  0.00  0.00    +0.000 C 
ATOM      9  C   UNL     1      -5.800  13.270  23.449  0.00  0.00    +0.000 A 
ATOM     10  C   UNL     1      -7.037  12.716  23.802  0.00  0.00    +0.000 A 
ATOM     11  C   UNL     1      -7.916  12.283  22.814  0.00  0.00    +0.000 A 
ATOM     12  C   UNL     1      -7.567  12.405  21.471  0.00  0.00    +0.000 A 
ATOM     13  C   UNL     1      -6.346  12.982  21.111  0.00  0.00    +0.000 A 
ATOM     14  C   UNL     1      -5.445  13.425  22.091  0.00  0.00    +0.000 A 
ATOM     15  C   UNL     1      -4.107  13.943  21.733  0.00  0.00    +0.000 A 
ATOM     16  C   UNL     1      -3.981  15.069  20.908  0.00  0.00    +0.000 A 
ATOM     17  C   UNL     1      -2.723  15.574  20.589  0.00  0.00    +0.000 A 
ATOM     18  C   UNL     1      -1.574  14.899  20.998  0.00  0.00    +0.000 A 
ATOM     19  C   UNL     1      -1.662  13.702  21.723  0.00  0.00    +0.000 A 
ATOM     20  C   UNL     1      -2.931  13.310  22.215  0.00  0.00    +0.000 A 
ATOM     21  C   UNL     1      -0.455  12.765  21.908  0.00  0.00    +0.000 C 
ATOM     22  C   UNL     1       0.526  12.765  20.720  0.00  0.00    +0.000 C 
ENDROOT
BRANCH   1  24
ATOM     23  C   UNL     1      -0.592  10.206  17.826  0.00  0.00    +0.000 C 
ATOM     24  C   UNL     1      -0.742  11.436  18.759  0.00  0.00    +0.000 C 
ATOM     25  C   UNL     1      -0.773  12.686  17.844  0.00  0.00    +0.000 C 
ATOM     26  C   UNL     1      -2.143  11.296  19.376  0.00  0.00    +0.000 C 
ENDBRANCH   1  24
BRANCH   1  27
ATOM     27  O   UNL     1       1.675  11.681  18.977  0.00  0.00    +0.000 OA
ATOM     28  H   UNL     1       2.434  11.785  19.574  0.00  0.00    +0.000 HD
ENDBRANCH   1  27
TORSDOF 2
ENDMDL
