MODEL 1
REMARK VINA RESULT:      -8.8      0.000      0.000
REMARK  Name = 
REMARK  9 active torsions:
REMARK  status: ('A' for Active; 'I' for Inactive)
REMARK    1  A    between atoms: O_1  and  C_2
REMARK    2  A    between atoms: C_7  and  O_8
REMARK    3  A    between atoms: N_10  and  C_11
REMARK    4  A    between atoms: C_11  and  C_12
REMARK    5  A    between atoms: C_12  and  C_13
REMARK    6  A    between atoms: C_13  and  O_14
REMARK    7  A    between atoms: C_13  and  C_25
REMARK    8  A    between atoms: O_14  and  C_15
REMARK    9  A    between atoms: C_20  and  C_21
REMARK                            x       y       z     vdW  Elec       q    Type
REMARK                         _______ _______ _______ _____ _____    ______ ____
ROOT
ATOM      1  C   UNL     1       4.117   6.288  18.116  0.00  0.00    +0.000 C 
ENDROOT
BRANCH   1   2
ATOM      2  C   UNL     1       5.160   5.593  17.250  0.00  0.00    +0.000 A 
ATOM      3  C   UNL     1       6.358   5.142  17.827  0.00  0.00    +0.000 A 
ATOM      4  C   UNL     1       7.349   4.553  17.042  0.00  0.00    +0.000 A 
ATOM      5  C   UNL     1       7.154   4.398  15.672  0.00  0.00    +0.000 A 
ATOM      6  C   UNL     1       5.966   4.830  15.085  0.00  0.00    +0.000 A 
ATOM      7  C   UNL     1       4.977   5.428  15.867  0.00  0.00    +0.000 A 
ENDBRANCH   1   2
BRANCH   1   8
ATOM      8  C   UNL     1       3.779   7.692  17.565  0.00  0.00    +0.000 C 
BRANCH   8   9
ATOM      9  C   UNL     1       2.268   8.011  17.458  0.00  0.00    +0.000 C 
BRANCH   9  17
ATOM     10  C   UNL     1      -0.814  10.799  22.498  0.00  0.00    +0.000 A 
ATOM     11  C   UNL     1      -0.774  11.164  21.155  0.00  0.00    +0.000 A 
ATOM     12  C   UNL     1       0.068  10.473  20.268  0.00  0.00    +0.000 A 
ATOM     13  C   UNL     1       0.901   9.440  20.727  0.00  0.00    +0.000 A 
ATOM     14  C   UNL     1       0.864   9.100  22.092  0.00  0.00    +0.000 A 
ATOM     15  C   UNL     1       0.005   9.771  22.964  0.00  0.00    +0.000 A 
ATOM     16  C   UNL     1       1.773   8.639  19.766  0.00  0.00    +0.000 C 
ATOM     17  N   UNL     1       1.794   9.098  18.352  0.00  0.00    +0.000 NA
ATOM     18  C   UNL     1       0.503   9.660  17.946  0.00  0.00    +0.000 C 
ATOM     19  C   UNL     1       0.120  10.857  18.818  0.00  0.00    +0.000 C 
BRANCH  10  20
ATOM     20  O   UNL     1      -1.657  11.439  23.362  0.00  0.00    +0.000 OA
ATOM     21  H   UNL     1      -2.496  10.955  23.402  0.00  0.00    +0.000 HD
ENDBRANCH  10  20
BRANCH  15  22
ATOM     22  O   UNL     1      -0.054   9.428  24.287  0.00  0.00    +0.000 OA
ATOM     23  H   UNL     1      -0.981   9.393  24.565  0.00  0.00    +0.000 HD
ENDBRANCH  15  22
ENDBRANCH   9  17
ENDBRANCH   8   9
ENDBRANCH   1   8
BRANCH   1  24
ATOM     24  O   UNL     1       2.930   5.461  18.120  0.00  0.00    +0.000 OA
BRANCH  24  25
ATOM     25  C   UNL     1       2.619   4.649  19.174  0.00  0.00    +0.000 A 
ATOM     26  C   UNL     1       2.364   5.106  20.472  0.00  0.00    +0.000 A 
ATOM     27  C   UNL     1       2.027   4.215  21.499  0.00  0.00    +0.000 A 
ATOM     28  C   UNL     1       1.905   2.856  21.239  0.00  0.00    +0.000 A 
ATOM     29  C   UNL     1       2.149   2.386  19.954  0.00  0.00    +0.000 A 
ATOM     30  C   UNL     1       2.525   3.267  18.912  0.00  0.00    +0.000 A 
BRANCH  30  31
ATOM     31  C   UNL     1       2.862   2.635  17.583  0.00  0.00    +0.000 C 
ATOM     32  F   UNL     1       2.369   1.390  17.355  0.00  0.00    +0.000 F 
ATOM     33  F   UNL     1       2.421   3.403  16.541  0.00  0.00    +0.000 F 
ATOM     34  F   UNL     1       4.212   2.531  17.396  0.00  0.00    +0.000 F 
ENDBRANCH  30  31
ENDBRANCH  24  25
ENDBRANCH   1  24
TORSDOF 9
ENDMDL
MODEL 2
REMARK VINA RESULT:      -8.8      1.592      4.084
REMARK  Name = 
REMARK  9 active torsions:
REMARK  status: ('A' for Active; 'I' for Inactive)
REMARK    1  A    between atoms: O_1  and  C_2
REMARK    2  A    between atoms: C_7  and  O_8
REMARK    3  A    between atoms: N_10  and  C_11
REMARK    4  A    between atoms: C_11  and  C_12
REMARK    5  A    between atoms: C_12  and  C_13
REMARK    6  A    between atoms: C_13  and  O_14
REMARK    7  A    between atoms: C_13  and  C_25
REMARK    8  A    between atoms: O_14  and  C_15
REMARK    9  A    between atoms: C_20  and  C_21
REMARK                            x       y       z     vdW  Elec       q    Type
REMARK                         _______ _______ _______ _____ _____    ______ ____
ROOT
ATOM      1  C   UNL     1       2.967   5.139  17.873  0.00  0.00    +0.000 C 
ENDROOT
BRANCH   1   2
ATOM      2  C   UNL     1       2.320   4.347  19.002  0.00  0.00    +0.000 A 
ATOM      3  C   UNL     1       1.359   3.367  18.703  0.00  0.00    +0.000 A 
ATOM      4  C   UNL     1       0.714   2.668  19.724  0.00  0.00    +0.000 A 
ATOM      5  C   UNL     1       1.026   2.931  21.055  0.00  0.00    +0.000 A 
ATOM      6  C   UNL     1       1.985   3.892  21.368  0.00  0.00    +0.000 A 
ATOM      7  C   UNL     1       2.625   4.599  20.349  0.00  0.00    +0.000 A 
ENDBRANCH   1   2
BRANCH   1   8
ATOM      8  C   UNL     1       3.215   6.607  18.293  0.00  0.00    +0.000 C 
BRANCH   8   9
ATOM      9  C   UNL     1       2.356   7.658  17.549  0.00  0.00    +0.000 C 
BRANCH   9  17
ATOM     10  C   UNL     1      -0.738  10.783  22.379  0.00  0.00    +0.000 A 
ATOM     11  C   UNL     1      -0.647  11.088  21.023  0.00  0.00    +0.000 A 
ATOM     12  C   UNL     1       0.188  10.326  20.190  0.00  0.00    +0.000 A 
ATOM     13  C   UNL     1       0.964   9.280  20.716  0.00  0.00    +0.000 A 
ATOM     14  C   UNL     1       0.876   9.001  22.092  0.00  0.00    +0.000 A 
ATOM     15  C   UNL     1       0.023   9.743  22.910  0.00  0.00    +0.000 A 
ATOM     16  C   UNL     1       1.827   8.404  19.814  0.00  0.00    +0.000 C 
ATOM     17  N   UNL     1       1.905   8.801  18.384  0.00  0.00    +0.000 NA
ATOM     18  C   UNL     1       0.649   9.397  17.918  0.00  0.00    +0.000 C 
ATOM     19  C   UNL     1       0.294  10.645  18.728  0.00  0.00    +0.000 C 
BRANCH  10  20
ATOM     20  O   UNL     1      -1.577  11.494  23.192  0.00  0.00    +0.000 OA
ATOM     21  H   UNL     1      -1.848  12.304  22.734  0.00  0.00    +0.000 HD
ENDBRANCH  10  20
BRANCH  15  22
ATOM     22  O   UNL     1      -0.085   9.460  24.245  0.00  0.00    +0.000 OA
ATOM     23  H   UNL     1      -0.857   9.921  24.605  0.00  0.00    +0.000 HD
ENDBRANCH  15  22
ENDBRANCH   9  17
ENDBRANCH   8   9
ENDBRANCH   1   8
BRANCH   1  24
ATOM     24  O   UNL     1       4.225   4.499  17.555  0.00  0.00    +0.000 OA
BRANCH  24  25
ATOM     25  C   UNL     1       5.426   5.078  17.856  0.00  0.00    +0.000 A 
ATOM     26  C   UNL     1       5.949   5.178  19.150  0.00  0.00    +0.000 A 
ATOM     27  C   UNL     1       7.201   5.764  19.381  0.00  0.00    +0.000 A 
ATOM     28  C   UNL     1       7.965   6.230  18.319  0.00  0.00    +0.000 A 
ATOM     29  C   UNL     1       7.463   6.133  17.027  0.00  0.00    +0.000 A 
ATOM     30  C   UNL     1       6.186   5.577  16.778  0.00  0.00    +0.000 A 
BRANCH  30  31
ATOM     31  C   UNL     1       5.700   5.613  15.349  0.00  0.00    +0.000 C 
ATOM     32  F   UNL     1       4.904   4.588  14.947  0.00  0.00    +0.000 F 
ATOM     33  F   UNL     1       4.991   6.754  15.093  0.00  0.00    +0.000 F 
ATOM     34  F   UNL     1       6.737   5.637  14.459  0.00  0.00    +0.000 F 
ENDBRANCH  30  31
ENDBRANCH  24  25
ENDBRANCH   1  24
TORSDOF 9
ENDMDL
MODEL 3
REMARK VINA RESULT:      -8.8      1.520      3.949
REMARK  Name = 
REMARK  9 active torsions:
REMARK  status: ('A' for Active; 'I' for Inactive)
REMARK    1  A    between atoms: O_1  and  C_2
REMARK    2  A    between atoms: C_7  and  O_8
REMARK    3  A    between atoms: N_10  and  C_11
REMARK    4  A    between atoms: C_11  and  C_12
REMARK    5  A    between atoms: C_12  and  C_13
REMARK    6  A    between atoms: C_13  and  O_14
REMARK    7  A    between atoms: C_13  and  C_25
REMARK    8  A    between atoms: O_14  and  C_15
REMARK    9  A    between atoms: C_20  and  C_21
REMARK                            x       y       z     vdW  Elec       q    Type
REMARK                         _______ _______ _______ _____ _____    ______ ____
ROOT
ATOM      1  C   UNL     1       2.642   5.383  17.740  0.00  0.00    +0.000 C 
ENDROOT
BRANCH   1   2
ATOM      2  C   UNL     1       2.083   4.513  18.858  0.00  0.00    +0.000 A 
ATOM      3  C   UNL     1       2.183   4.943  20.191  0.00  0.00    +0.000 A 
ATOM      4  C   UNL     1       1.726   4.138  21.236  0.00  0.00    +0.000 A 
ATOM      5  C   UNL     1       1.155   2.898  20.962  0.00  0.00    +0.000 A 
ATOM      6  C   UNL     1       1.038   2.461  19.643  0.00  0.00    +0.000 A 
ATOM      7  C   UNL     1       1.502   3.261  18.599  0.00  0.00    +0.000 A 
ENDBRANCH   1   2
BRANCH   1   8
ATOM      8  C   UNL     1       3.026   6.787  18.264  0.00  0.00    +0.000 C 
BRANCH   8   9
ATOM      9  C   UNL     1       2.370   7.971  17.512  0.00  0.00    +0.000 C 
BRANCH   9  17
ATOM     10  C   UNL     1      -0.842  10.783  22.456  0.00  0.00    +0.000 A 
ATOM     11  C   UNL     1      -0.779  11.133  21.109  0.00  0.00    +0.000 A 
ATOM     12  C   UNL     1       0.088  10.441  20.248  0.00  0.00    +0.000 A 
ATOM     13  C   UNL     1       0.921   9.422  20.736  0.00  0.00    +0.000 A 
ATOM     14  C   UNL     1       0.860   9.097  22.104  0.00  0.00    +0.000 A 
ATOM     15  C   UNL     1      -0.023   9.769  22.950  0.00  0.00    +0.000 A 
ATOM     16  C   UNL     1       1.822   8.620  19.802  0.00  0.00    +0.000 C 
ATOM     17  N   UNL     1       1.867   9.063  18.384  0.00  0.00    +0.000 NA
ATOM     18  C   UNL     1       0.578   9.606  17.945  0.00  0.00    +0.000 C 
ATOM     19  C   UNL     1       0.165  10.809  18.796  0.00  0.00    +0.000 C 
BRANCH  10  20
ATOM     20  O   UNL     1      -1.710  11.425  23.295  0.00  0.00    +0.000 OA
ATOM     21  H   UNL     1      -1.682  12.375  23.112  0.00  0.00    +0.000 HD
ENDBRANCH  10  20
BRANCH  15  22
ATOM     22  O   UNL     1      -0.105   9.441  24.276  0.00  0.00    +0.000 OA
ATOM     23  H   UNL     1      -0.909   8.922  24.424  0.00  0.00    +0.000 HD
ENDBRANCH  15  22
ENDBRANCH   9  17
ENDBRANCH   8   9
ENDBRANCH   1   8
BRANCH   1  24
ATOM     24  O   UNL     1       3.813   4.718  17.212  0.00  0.00    +0.000 OA
BRANCH  24  25
ATOM     25  C   UNL     1       5.073   5.023  17.644  0.00  0.00    +0.000 A 
ATOM     26  C   UNL     1       5.453   5.074  18.991  0.00  0.00    +0.000 A 
ATOM     27  C   UNL     1       6.772   5.370  19.359  0.00  0.00    +0.000 A 
ATOM     28  C   UNL     1       7.741   5.588  18.389  0.00  0.00    +0.000 A 
ATOM     29  C   UNL     1       7.382   5.536  17.048  0.00  0.00    +0.000 A 
ATOM     30  C   UNL     1       6.048   5.273  16.657  0.00  0.00    +0.000 A 
BRANCH  30  31
ATOM     31  C   UNL     1       5.752   5.338  15.177  0.00  0.00    +0.000 C 
ATOM     32  F   UNL     1       5.023   6.401  14.746  0.00  0.00    +0.000 F 
ATOM     33  F   UNL     1       6.903   5.357  14.440  0.00  0.00    +0.000 F 
ATOM     34  F   UNL     1       5.074   4.234  14.744  0.00  0.00    +0.000 F 
ENDBRANCH  30  31
ENDBRANCH  24  25
ENDBRANCH   1  24
TORSDOF 9
ENDMDL
MODEL 4
REMARK VINA RESULT:      -8.6      2.304      3.264
REMARK  Name = 
REMARK  9 active torsions:
REMARK  status: ('A' for Active; 'I' for Inactive)
REMARK    1  A    between atoms: O_1  and  C_2
REMARK    2  A    between atoms: C_7  and  O_8
REMARK    3  A    between atoms: N_10  and  C_11
REMARK    4  A    between atoms: C_11  and  C_12
REMARK    5  A    between atoms: C_12  and  C_13
REMARK    6  A    between atoms: C_13  and  O_14
REMARK    7  A    between atoms: C_13  and  C_25
REMARK    8  A    between atoms: O_14  and  C_15
REMARK    9  A    between atoms: C_20  and  C_21
REMARK                            x       y       z     vdW  Elec       q    Type
REMARK                         _______ _______ _______ _____ _____    ______ ____
ROOT
ATOM      1  C   UNL     1       3.086   6.672  18.389  0.00  0.00    +0.000 C 
ENDROOT
BRANCH   1   2
ATOM      2  C   UNL     1       4.467   6.337  17.841  0.00  0.00    +0.000 A 
ATOM      3  C   UNL     1       4.698   6.387  16.457  0.00  0.00    +0.000 A 
ATOM      4  C   UNL     1       5.941   6.032  15.929  0.00  0.00    +0.000 A 
ATOM      5  C   UNL     1       6.970   5.632  16.777  0.00  0.00    +0.000 A 
ATOM      6  C   UNL     1       6.761   5.589  18.155  0.00  0.00    +0.000 A 
ATOM      7  C   UNL     1       5.517   5.934  18.683  0.00  0.00    +0.000 A 
ENDBRANCH   1   2
BRANCH   1   8
ATOM      8  C   UNL     1       2.412   7.789  17.558  0.00  0.00    +0.000 C 
BRANCH   8   9
ATOM      9  C   UNL     1       2.339   9.172  18.252  0.00  0.00    +0.000 C 
BRANCH   9  17
ATOM     10  C   UNL     1      -3.664  11.744  18.137  0.00  0.00    +0.000 A 
ATOM     11  C   UNL     1      -2.669  11.826  19.108  0.00  0.00    +0.000 A 
ATOM     12  C   UNL     1      -1.490  11.076  18.964  0.00  0.00    +0.000 A 
ATOM     13  C   UNL     1      -1.316  10.216  17.868  0.00  0.00    +0.000 A 
ATOM     14  C   UNL     1      -2.342  10.129  16.908  0.00  0.00    +0.000 A 
ATOM     15  C   UNL     1      -3.500  10.897  17.042  0.00  0.00    +0.000 A 
ATOM     16  C   UNL     1      -0.017   9.444  17.665  0.00  0.00    +0.000 C 
ATOM     17  N   UNL     1       0.992   9.550  18.752  0.00  0.00    +0.000 NA
ATOM     18  C   UNL     1       0.962  10.867  19.393  0.00  0.00    +0.000 C 
ATOM     19  C   UNL     1      -0.411  11.155  20.003  0.00  0.00    +0.000 C 
BRANCH  10  20
ATOM     20  O   UNL     1      -4.799  12.498  18.248  0.00  0.00    +0.000 OA
ATOM     21  H   UNL     1      -4.590  13.418  18.027  0.00  0.00    +0.000 HD
ENDBRANCH  10  20
BRANCH  15  22
ATOM     22  O   UNL     1      -4.490  10.837  16.099  0.00  0.00    +0.000 OA
ATOM     23  H   UNL     1      -5.348  10.957  16.532  0.00  0.00    +0.000 HD
ENDBRANCH  15  22
ENDBRANCH   9  17
ENDBRANCH   8   9
ENDBRANCH   1   8
BRANCH   1  24
ATOM     24  O   UNL     1       2.288   5.467  18.331  0.00  0.00    +0.000 OA
BRANCH  24  25
ATOM     25  C   UNL     1       2.277   4.558  19.353  0.00  0.00    +0.000 A 
ATOM     26  C   UNL     1       1.905   4.857  20.669  0.00  0.00    +0.000 A 
ATOM     27  C   UNL     1       1.895   3.867  21.660  0.00  0.00    +0.000 A 
ATOM     28  C   UNL     1       2.223   2.555  21.346  0.00  0.00    +0.000 A 
ATOM     29  C   UNL     1       2.590   2.240  20.043  0.00  0.00    +0.000 A 
ATOM     30  C   UNL     1       2.640   3.233  19.036  0.00  0.00    +0.000 A 
BRANCH  30  31
ATOM     31  C   UNL     1       3.147   2.798  17.682  0.00  0.00    +0.000 C 
ATOM     32  F   UNL     1       4.413   3.166  17.356  0.00  0.00    +0.000 F 
ATOM     33  F   UNL     1       3.113   1.437  17.552  0.00  0.00    +0.000 F 
ATOM     34  F   UNL     1       2.360   3.268  16.669  0.00  0.00    +0.000 F 
ENDBRANCH  30  31
ENDBRANCH  24  25
ENDBRANCH   1  24
TORSDOF 9
ENDMDL
MODEL 5
REMARK VINA RESULT:      -8.6      1.930      4.474
REMARK  Name = 
REMARK  9 active torsions:
REMARK  status: ('A' for Active; 'I' for Inactive)
REMARK    1  A    between atoms: O_1  and  C_2
REMARK    2  A    between atoms: C_7  and  O_8
REMARK    3  A    between atoms: N_10  and  C_11
REMARK    4  A    between atoms: C_11  and  C_12
REMARK    5  A    between atoms: C_12  and  C_13
REMARK    6  A    between atoms: C_13  and  O_14
REMARK    7  A    between atoms: C_13  and  C_25
REMARK    8  A    between atoms: O_14  and  C_15
REMARK    9  A    between atoms: C_20  and  C_21
REMARK                            x       y       z     vdW  Elec       q    Type
REMARK                         _______ _______ _______ _____ _____    ______ ____
ROOT
ATOM      1  C   UNL     1       3.289   5.408  17.804  0.00  0.00    +0.000 C 
ENDROOT
BRANCH   1   2
ATOM      2  C   UNL     1       2.457   4.642  18.824  0.00  0.00    +0.000 A 
ATOM      3  C   UNL     1       2.692   4.828  20.196  0.00  0.00    +0.000 A 
ATOM      4  C   UNL     1       1.978   4.096  21.146  0.00  0.00    +0.000 A 
ATOM      5  C   UNL     1       1.015   3.176  20.740  0.00  0.00    +0.000 A 
ATOM      6  C   UNL     1       0.762   2.988  19.382  0.00  0.00    +0.000 A 
ATOM      7  C   UNL     1       1.481   3.712  18.431  0.00  0.00    +0.000 A 
ENDBRANCH   1   2
BRANCH   1   8
ATOM      8  C   UNL     1       3.366   6.911  18.164  0.00  0.00    +0.000 C 
BRANCH   8   9
ATOM      9  C   UNL     1       2.257   7.794  17.540  0.00  0.00    +0.000 C 
BRANCH   9  17
ATOM     10  C   UNL     1      -0.826  10.781  22.464  0.00  0.00    +0.000 A 
ATOM     11  C   UNL     1      -0.764  11.107  21.112  0.00  0.00    +0.000 A 
ATOM     12  C   UNL     1       0.075  10.376  20.254  0.00  0.00    +0.000 A 
ATOM     13  C   UNL     1       0.882   9.340  20.752  0.00  0.00    +0.000 A 
ATOM     14  C   UNL     1       0.823   9.039  22.126  0.00  0.00    +0.000 A 
ATOM     15  C   UNL     1      -0.033   9.751  22.968  0.00  0.00    +0.000 A 
ATOM     16  C   UNL     1       1.749   8.496  19.824  0.00  0.00    +0.000 C 
ATOM     17  N   UNL     1       1.795   8.915  18.398  0.00  0.00    +0.000 NA
ATOM     18  C   UNL     1       0.519   9.489  17.962  0.00  0.00    +0.000 C 
ATOM     19  C   UNL     1       0.150  10.718  18.796  0.00  0.00    +0.000 C 
BRANCH  10  20
ATOM     20  O   UNL     1      -1.666  11.461  23.300  0.00  0.00    +0.000 OA
ATOM     21  H   UNL     1      -1.141  12.036  23.877  0.00  0.00    +0.000 HD
ENDBRANCH  10  20
BRANCH  15  22
ATOM     22  O   UNL     1      -0.113   9.447  24.300  0.00  0.00    +0.000 OA
ATOM     23  H   UNL     1      -0.355   8.514  24.398  0.00  0.00    +0.000 HD
ENDBRANCH  15  22
ENDBRANCH   9  17
ENDBRANCH   8   9
ENDBRANCH   1   8
BRANCH   1  24
ATOM     24  O   UNL     1       4.617   4.834  17.802  0.00  0.00    +0.000 OA
BRANCH  24  25
ATOM     25  C   UNL     1       5.358   4.734  16.658  0.00  0.00    +0.000 A 
ATOM     26  C   UNL     1       5.087   3.834  15.620  0.00  0.00    +0.000 A 
ATOM     27  C   UNL     1       5.877   3.804  14.464  0.00  0.00    +0.000 A 
ATOM     28  C   UNL     1       6.930   4.696  14.309  0.00  0.00    +0.000 A 
ATOM     29  C   UNL     1       7.210   5.599  15.327  0.00  0.00    +0.000 A 
ATOM     30  C   UNL     1       6.445   5.621  16.517  0.00  0.00    +0.000 A 
BRANCH  30  31
ATOM     31  C   UNL     1       6.899   6.575  17.596  0.00  0.00    +0.000 C 
ATOM     32  F   UNL     1       8.198   6.971  17.555  0.00  0.00    +0.000 F 
ATOM     33  F   UNL     1       6.162   7.727  17.583  0.00  0.00    +0.000 F 
ATOM     34  F   UNL     1       6.717   6.055  18.846  0.00  0.00    +0.000 F 
ENDBRANCH  30  31
ENDBRANCH  24  25
ENDBRANCH   1  24
TORSDOF 9
ENDMDL
MODEL 6
REMARK VINA RESULT:      -8.5      2.836      5.186
REMARK  Name = 
REMARK  9 active torsions:
REMARK  status: ('A' for Active; 'I' for Inactive)
REMARK    1  A    between atoms: O_1  and  C_2
REMARK    2  A    between atoms: C_7  and  O_8
REMARK    3  A    between atoms: N_10  and  C_11
REMARK    4  A    between atoms: C_11  and  C_12
REMARK    5  A    between atoms: C_12  and  C_13
REMARK    6  A    between atoms: C_13  and  O_14
REMARK    7  A    between atoms: C_13  and  C_25
REMARK    8  A    between atoms: O_14  and  C_15
REMARK    9  A    between atoms: C_20  and  C_21
REMARK                            x       y       z     vdW  Elec       q    Type
REMARK                         _______ _______ _______ _____ _____    ______ ____
ROOT
ATOM      1  C   UNL     1       3.184   6.778  17.843  0.00  0.00    +0.000 C 
ENDROOT
BRANCH   1   2
ATOM      2  C   UNL     1       2.488   5.641  18.580  0.00  0.00    +0.000 A 
ATOM      3  C   UNL     1       1.913   4.588  17.851  0.00  0.00    +0.000 A 
ATOM      4  C   UNL     1       1.223   3.565  18.502  0.00  0.00    +0.000 A 
ATOM      5  C   UNL     1       1.108   3.575  19.890  0.00  0.00    +0.000 A 
ATOM      6  C   UNL     1       1.683   4.607  20.629  0.00  0.00    +0.000 A 
ATOM      7  C   UNL     1       2.365   5.636  19.979  0.00  0.00    +0.000 A 
ENDBRANCH   1   2
BRANCH   1   8
ATOM      8  C   UNL     1       2.815   8.149  18.456  0.00  0.00    +0.000 C 
BRANCH   8   9
ATOM      9  C   UNL     1       1.825   8.998  17.622  0.00  0.00    +0.000 C 
BRANCH   9  17
ATOM     10  C   UNL     1      -3.872  12.031  18.629  0.00  0.00    +0.000 A 
ATOM     11  C   UNL     1      -2.694  12.061  19.371  0.00  0.00    +0.000 A 
ATOM     12  C   UNL     1      -1.626  11.217  19.021  0.00  0.00    +0.000 A 
ATOM     13  C   UNL     1      -1.746  10.316  17.951  0.00  0.00    +0.000 A 
ATOM     14  C   UNL     1      -2.953  10.284  17.227  0.00  0.00    +0.000 A 
ATOM     15  C   UNL     1      -4.000  11.144  17.562  0.00  0.00    +0.000 A 
ATOM     16  C   UNL     1      -0.576   9.439  17.519  0.00  0.00    +0.000 C 
ATOM     17  N   UNL     1       0.642   9.495  18.370  0.00  0.00    +0.000 NA
ATOM     18  C   UNL     1       0.840  10.828  18.946  0.00  0.00    +0.000 C 
ATOM     19  C   UNL     1      -0.352  11.240  19.812  0.00  0.00    +0.000 C 
BRANCH  10  20
ATOM     20  O   UNL     1      -4.903  12.875  18.938  0.00  0.00    +0.000 OA
ATOM     21  H   UNL     1      -4.937  12.992  19.899  0.00  0.00    +0.000 HD
ENDBRANCH  10  20
BRANCH  15  22
ATOM     22  O   UNL     1      -5.166  11.135  16.846  0.00  0.00    +0.000 OA
ATOM     23  H   UNL     1      -5.345  10.233  16.543  0.00  0.00    +0.000 HD
ENDBRANCH  15  22
ENDBRANCH   9  17
ENDBRANCH   8   9
ENDBRANCH   1   8
BRANCH   1  24
ATOM     24  O   UNL     1       4.611   6.561  17.948  0.00  0.00    +0.000 OA
BRANCH  24  25
ATOM     25  C   UNL     1       5.303   5.845  17.012  0.00  0.00    +0.000 A 
ATOM     26  C   UNL     1       4.793   5.487  15.759  0.00  0.00    +0.000 A 
ATOM     27  C   UNL     1       5.571   4.771  14.839  0.00  0.00    +0.000 A 
ATOM     28  C   UNL     1       6.882   4.431  15.143  0.00  0.00    +0.000 A 
ATOM     29  C   UNL     1       7.406   4.783  16.381  0.00  0.00    +0.000 A 
ATOM     30  C   UNL     1       6.624   5.475  17.336  0.00  0.00    +0.000 A 
BRANCH  30  31
ATOM     31  C   UNL     1       7.263   5.718  18.683  0.00  0.00    +0.000 C 
ATOM     32  F   UNL     1       6.468   5.560  19.774  0.00  0.00    +0.000 F 
ATOM     33  F   UNL     1       8.333   4.892  18.883  0.00  0.00    +0.000 F 
ATOM     34  F   UNL     1       7.771   6.983  18.784  0.00  0.00    +0.000 F 
ENDBRANCH  30  31
ENDBRANCH  24  25
ENDBRANCH   1  24
TORSDOF 9
ENDMDL
MODEL 7
REMARK VINA RESULT:      -8.4      1.869      4.379
REMARK  Name = 
REMARK  9 active torsions:
REMARK  status: ('A' for Active; 'I' for Inactive)
REMARK    1  A    between atoms: O_1  and  C_2
REMARK    2  A    between atoms: C_7  and  O_8
REMARK    3  A    between atoms: N_10  and  C_11
REMARK    4  A    between atoms: C_11  and  C_12
REMARK    5  A    between atoms: C_12  and  C_13
REMARK    6  A    between atoms: C_13  and  O_14
REMARK    7  A    between atoms: C_13  and  C_25
REMARK    8  A    between atoms: O_14  and  C_15
REMARK    9  A    between atoms: C_20  and  C_21
REMARK                            x       y       z     vdW  Elec       q    Type
REMARK                         _______ _______ _______ _____ _____    ______ ____
ROOT
ATOM      1  C   UNL     1       2.914   4.903  18.035  0.00  0.00    +0.000 C 
ENDROOT
BRANCH   1   2
ATOM      2  C   UNL     1       2.775   4.049  19.289  0.00  0.00    +0.000 A 
ATOM      3  C   UNL     1       1.659   4.215  20.125  0.00  0.00    +0.000 A 
ATOM      4  C   UNL     1       1.540   3.483  21.307  0.00  0.00    +0.000 A 
ATOM      5  C   UNL     1       2.527   2.569  21.664  0.00  0.00    +0.000 A 
ATOM      6  C   UNL     1       3.636   2.384  20.840  0.00  0.00    +0.000 A 
ATOM      7  C   UNL     1       3.762   3.122  19.663  0.00  0.00    +0.000 A 
ENDBRANCH   1   2
BRANCH   1   8
ATOM      8  C   UNL     1       1.928   6.094  18.059  0.00  0.00    +0.000 C 
BRANCH   8   9
ATOM      9  C   UNL     1       2.510   7.441  17.565  0.00  0.00    +0.000 C 
BRANCH   9  17
ATOM     10  C   UNL     1      -0.321  10.868  22.352  0.00  0.00    +0.000 A 
ATOM     11  C   UNL     1      -0.049  11.221  21.032  0.00  0.00    +0.000 A 
ATOM     12  C   UNL     1       0.689  10.350  20.214  0.00  0.00    +0.000 A 
ATOM     13  C   UNL     1       1.190   9.140  20.722  0.00  0.00    +0.000 A 
ATOM     14  C   UNL     1       0.924   8.811  22.065  0.00  0.00    +0.000 A 
ATOM     15  C   UNL     1       0.167   9.667  22.865  0.00  0.00    +0.000 A 
ATOM     16  C   UNL     1       1.939   8.156  19.830  0.00  0.00    +0.000 C 
ATOM     17  N   UNL     1       2.223   8.605  18.442  0.00  0.00    +0.000 NA
ATOM     18  C   UNL     1       1.159   9.470  17.924  0.00  0.00    +0.000 C 
ATOM     19  C   UNL     1       0.989  10.719  18.791  0.00  0.00    +0.000 C 
BRANCH  10  20
ATOM     20  O   UNL     1      -1.071  11.691  23.145  0.00  0.00    +0.000 OA
ATOM     21  H   UNL     1      -0.707  11.681  24.043  0.00  0.00    +0.000 HD
ENDBRANCH  10  20
BRANCH  15  22
ATOM     22  O   UNL     1      -0.116   9.341  24.164  0.00  0.00    +0.000 OA
ATOM     23  H   UNL     1      -0.596  10.073  24.577  0.00  0.00    +0.000 HD
ENDBRANCH  15  22
ENDBRANCH   9  17
ENDBRANCH   8   9
ENDBRANCH   1   8
BRANCH   1  24
ATOM     24  O   UNL     1       4.275   5.391  17.985  0.00  0.00    +0.000 OA
BRANCH  24  25
ATOM     25  C   UNL     1       5.118   5.074  16.958  0.00  0.00    +0.000 A 
ATOM     26  C   UNL     1       4.696   4.612  15.706  0.00  0.00    +0.000 A 
ATOM     27  C   UNL     1       5.619   4.330  14.690  0.00  0.00    +0.000 A 
ATOM     28  C   UNL     1       6.976   4.537  14.896  0.00  0.00    +0.000 A 
ATOM     29  C   UNL     1       7.412   5.001  16.132  0.00  0.00    +0.000 A 
ATOM     30  C   UNL     1       6.498   5.258  17.181  0.00  0.00    +0.000 A 
BRANCH  30  31
ATOM     31  C   UNL     1       7.091   5.663  18.509  0.00  0.00    +0.000 C 
ATOM     32  F   UNL     1       6.285   5.554  19.598  0.00  0.00    +0.000 F 
ATOM     33  F   UNL     1       8.207   4.929  18.801  0.00  0.00    +0.000 F 
ATOM     34  F   UNL     1       7.516   6.962  18.502  0.00  0.00    +0.000 F 
ENDBRANCH  30  31
ENDBRANCH  24  25
ENDBRANCH   1  24
TORSDOF 9
ENDMDL
MODEL 8
REMARK VINA RESULT:      -8.4      1.863      4.789
REMARK  Name = 
REMARK  9 active torsions:
REMARK  status: ('A' for Active; 'I' for Inactive)
REMARK    1  A    between atoms: O_1  and  C_2
REMARK    2  A    between atoms: C_7  and  O_8
REMARK    3  A    between atoms: N_10  and  C_11
REMARK    4  A    between atoms: C_11  and  C_12
REMARK    5  A    between atoms: C_12  and  C_13
REMARK    6  A    between atoms: C_13  and  O_14
REMARK    7  A    between atoms: C_13  and  C_25
REMARK    8  A    between atoms: O_14  and  C_15
REMARK    9  A    between atoms: C_20  and  C_21
REMARK                            x       y       z     vdW  Elec       q    Type
REMARK                         _______ _______ _______ _____ _____    ______ ____
ROOT
ATOM      1  C   UNL     1       3.459   4.969  17.789  0.00  0.00    +0.000 C 
ENDROOT
BRANCH   1   2
ATOM      2  C   UNL     1       2.657   4.251  18.867  0.00  0.00    +0.000 A 
ATOM      3  C   UNL     1       1.465   3.592  18.526  0.00  0.00    +0.000 A 
ATOM      4  C   UNL     1       0.687   2.974  19.507  0.00  0.00    +0.000 A 
ATOM      5  C   UNL     1       1.095   2.999  20.838  0.00  0.00    +0.000 A 
ATOM      6  C   UNL     1       2.281   3.639  21.192  0.00  0.00    +0.000 A 
ATOM      7  C   UNL     1       3.055   4.265  20.214  0.00  0.00    +0.000 A 
ENDBRANCH   1   2
BRANCH   1   8
ATOM      8  C   UNL     1       3.858   6.392  18.246  0.00  0.00    +0.000 C 
BRANCH   8   9
ATOM      9  C   UNL     1       2.898   7.521  17.796  0.00  0.00    +0.000 C 
BRANCH   9  17
ATOM     10  C   UNL     1      -0.413  11.165  22.088  0.00  0.00    +0.000 A 
ATOM     11  C   UNL     1      -0.007   9.835  22.162  0.00  0.00    +0.000 A 
ATOM     12  C   UNL     1       0.593   9.225  21.048  0.00  0.00    +0.000 A 
ATOM     13  C   UNL     1       0.755   9.931  19.845  0.00  0.00    +0.000 A 
ATOM     14  C   UNL     1       0.318  11.267  19.782  0.00  0.00    +0.000 A 
ATOM     15  C   UNL     1      -0.252  11.876  20.901  0.00  0.00    +0.000 A 
ATOM     16  C   UNL     1       1.461   9.303  18.647  0.00  0.00    +0.000 C 
ATOM     17  N   UNL     1       1.842   7.872  18.779  0.00  0.00    +0.000 NA
ATOM     18  C   UNL     1       2.200   7.532  20.159  0.00  0.00    +0.000 C 
ATOM     19  C   UNL     1       1.034   7.793  21.115  0.00  0.00    +0.000 C 
BRANCH  10  20
ATOM     20  O   UNL     1      -0.963  11.780  23.179  0.00  0.00    +0.000 OA
ATOM     21  H   UNL     1      -1.737  12.289  22.896  0.00  0.00    +0.000 HD
ENDBRANCH  10  20
BRANCH  15  22
ATOM     22  O   UNL     1      -0.656  13.183  20.853  0.00  0.00    +0.000 OA
ATOM     23  H   UNL     1       0.111  13.757  20.994  0.00  0.00    +0.000 HD
ENDBRANCH  15  22
ENDBRANCH   9  17
ENDBRANCH   8   9
ENDBRANCH   1   8
BRANCH   1  24
ATOM     24  O   UNL     1       4.646   4.184  17.530  0.00  0.00    +0.000 OA
BRANCH  24  25
ATOM     25  C   UNL     1       5.358   4.313  16.371  0.00  0.00    +0.000 A 
ATOM     26  C   UNL     1       4.833   4.079  15.094  0.00  0.00    +0.000 A 
ATOM     27  C   UNL     1       5.617   4.255  13.947  0.00  0.00    +0.000 A 
ATOM     28  C   UNL     1       6.928   4.701  14.053  0.00  0.00    +0.000 A 
ATOM     29  C   UNL     1       7.463   4.943  15.312  0.00  0.00    +0.000 A 
ATOM     30  C   UNL     1       6.698   4.737  16.484  0.00  0.00    +0.000 A 
BRANCH  30  31
ATOM     31  C   UNL     1       7.411   4.937  17.800  0.00  0.00    +0.000 C 
ATOM     32  F   UNL     1       8.516   4.177  18.019  0.00  0.00    +0.000 F 
ATOM     33  F   UNL     1       7.818   6.233  17.954  0.00  0.00    +0.000 F 
ATOM     34  F   UNL     1       6.590   4.697  18.866  0.00  0.00    +0.000 F 
ENDBRANCH  30  31
ENDBRANCH  24  25
ENDBRANCH   1  24
TORSDOF 9
ENDMDL
MODEL 9
REMARK VINA RESULT:      -8.3      2.627      4.960
REMARK  Name = 
REMARK  9 active torsions:
REMARK  status: ('A' for Active; 'I' for Inactive)
REMARK    1  A    between atoms: O_1  and  C_2
REMARK    2  A    between atoms: C_7  and  O_8
REMARK    3  A    between atoms: N_10  and  C_11
REMARK    4  A    between atoms: C_11  and  C_12
REMARK    5  A    between atoms: C_12  and  C_13
REMARK    6  A    between atoms: C_13  and  O_14
REMARK    7  A    between atoms: C_13  and  C_25
REMARK    8  A    between atoms: O_14  and  C_15
REMARK    9  A    between atoms: C_20  and  C_21
REMARK                            x       y       z     vdW  Elec       q    Type
REMARK                         _______ _______ _______ _____ _____    ______ ____
ROOT
ATOM      1  C   UNL     1       3.228   6.831  17.728  0.00  0.00    +0.000 C 
ENDROOT
BRANCH   1   2
ATOM      2  C   UNL     1       2.491   5.753  18.513  0.00  0.00    +0.000 A 
ATOM      3  C   UNL     1       2.437   5.826  19.914  0.00  0.00    +0.000 A 
ATOM      4  C   UNL     1       1.814   4.821  20.655  0.00  0.00    +0.000 A 
ATOM      5  C   UNL     1       1.230   3.735  20.007  0.00  0.00    +0.000 A 
ATOM      6  C   UNL     1       1.266   3.654  18.616  0.00  0.00    +0.000 A 
ATOM      7  C   UNL     1       1.896   4.653  17.874  0.00  0.00    +0.000 A 
ENDBRANCH   1   2
BRANCH   1   8
ATOM      8  C   UNL     1       2.881   8.242  18.258  0.00  0.00    +0.000 C 
BRANCH   8   9
ATOM      9  C   UNL     1       1.655   8.912  17.592  0.00  0.00    +0.000 C 
BRANCH   9  17
ATOM     10  C   UNL     1      -3.299  12.606  19.710  0.00  0.00    +0.000 A 
ATOM     11  C   UNL     1      -2.077  12.311  20.309  0.00  0.00    +0.000 A 
ATOM     12  C   UNL     1      -1.212  11.380  19.710  0.00  0.00    +0.000 A 
ATOM     13  C   UNL     1      -1.581  10.715  18.530  0.00  0.00    +0.000 A 
ATOM     14  C   UNL     1      -2.830  11.009  17.951  0.00  0.00    +0.000 A 
ATOM     15  C   UNL     1      -3.673  11.955  18.536  0.00  0.00    +0.000 A 
ATOM     16  C   UNL     1      -0.628   9.750  17.834  0.00  0.00    +0.000 C 
ATOM     17  N   UNL     1       0.647   9.454  18.539  0.00  0.00    +0.000 NA
ATOM     18  C   UNL     1       1.129  10.614  19.295  0.00  0.00    +0.000 C 
ATOM     19  C   UNL     1       0.107  11.055  20.345  0.00  0.00    +0.000 C 
BRANCH  10  20
ATOM     20  O   UNL     1      -4.132  13.538  20.265  0.00  0.00    +0.000 OA
ATOM     21  H   UNL     1      -4.863  13.083  20.708  0.00  0.00    +0.000 HD
ENDBRANCH  10  20
BRANCH  15  22
ATOM     22  O   UNL     1      -4.878  12.263  17.964  0.00  0.00    +0.000 OA
ATOM     23  H   UNL     1      -5.517  12.468  18.663  0.00  0.00    +0.000 HD
ENDBRANCH  15  22
ENDBRANCH   9  17
ENDBRANCH   8   9
ENDBRANCH   1   8
BRANCH   1  24
ATOM     24  O   UNL     1       4.646   6.586  17.872  0.00  0.00    +0.000 OA
BRANCH  24  25
ATOM     25  C   UNL     1       5.346   5.838  16.967  0.00  0.00    +0.000 A 
ATOM     26  C   UNL     1       4.850   5.447  15.718  0.00  0.00    +0.000 A 
ATOM     27  C   UNL     1       5.634   4.699  14.831  0.00  0.00    +0.000 A 
ATOM     28  C   UNL     1       6.939   4.357  15.162  0.00  0.00    +0.000 A 
ATOM     29  C   UNL     1       7.448   4.742  16.396  0.00  0.00    +0.000 A 
ATOM     30  C   UNL     1       6.659   5.468  17.320  0.00  0.00    +0.000 A 
BRANCH  30  31
ATOM     31  C   UNL     1       7.281   5.746  18.667  0.00  0.00    +0.000 C 
ATOM     32  F   UNL     1       6.474   5.616  19.752  0.00  0.00    +0.000 F 
ATOM     33  F   UNL     1       8.349   4.925  18.901  0.00  0.00    +0.000 F 
ATOM     34  F   UNL     1       7.788   7.013  18.742  0.00  0.00    +0.000 F 
ENDBRANCH  30  31
ENDBRANCH  24  25
ENDBRANCH   1  24
TORSDOF 9
ENDMDL
