MODEL 1
REMARK VINA RESULT:      -7.5      0.000      0.000
REMARK  Name = 
REMARK  4 active torsions:
REMARK  status: ('A' for Active; 'I' for Inactive)
REMARK    1  A    between atoms: C_1  and  C_2
REMARK    2  A    between atoms: C_5  and  C_6
REMARK    3  A    between atoms: C_9  and  C_10
REMARK    4  A    between atoms: C_10  and  C_12
REMARK                            x       y       z     vdW  Elec       q    Type
REMARK                         _______ _______ _______ _____ _____    ______ ____
ROOT
ATOM      1  C   UNL     1      -0.390   8.290  21.735  0.00  0.00    +0.000 C 
ATOM      2  C   UNL     1       0.644   7.584  20.902  0.00  0.00    +0.000 A 
ATOM      3  C   UNL     1       0.978   6.315  21.175  0.00  0.00    +0.000 A 
ATOM      4  C   UNL     1       1.948   5.618  20.414  0.00  0.00    +0.000 A 
ATOM      5  C   UNL     1       2.406   4.327  20.539  0.00  0.00    +0.000 A 
ATOM      6  C   UNL     1       3.351   4.126  19.530  0.00  0.00    +0.000 A 
ATOM      7  C   UNL     1       3.513   5.308  18.808  0.00  0.00    +0.000 A 
ATOM      8  N   UNL     1       2.600   6.246  19.343  0.00  0.00    +0.000 N 
ATOM      9  C   UNL     1       2.301   7.616  19.005  0.00  0.00    +0.000 A 
ATOM     10  C   UNL     1       2.928   8.317  17.971  0.00  0.00    +0.000 A 
ATOM     11  C   UNL     1       2.563   9.639  17.677  0.00  0.00    +0.000 A 
ATOM     12  C   UNL     1       1.588  10.284  18.425  0.00  0.00    +0.000 A 
ATOM     13  C   UNL     1       0.970   9.610  19.473  0.00  0.00    +0.000 A 
ATOM     14  C   UNL     1       1.310   8.277  19.778  0.00  0.00    +0.000 A 
ENDROOT
BRANCH   5  15
ATOM     15  C   UNL     1       1.987   3.368  21.509  0.00  0.00    +0.000 C 
ATOM     16  N   UNL     1       1.638   2.602  22.310  0.00  0.00    +0.000 NA
ENDBRANCH   5  15
BRANCH   7  17
ATOM     17  C   UNL     1       4.423   5.411  17.672  0.00  0.00    +0.000 C 
ATOM     18  O   UNL     1       4.205   4.891  16.579  0.00  0.00    +0.000 OA
BRANCH  17  19
ATOM     19  C   UNL     1       5.770   6.063  17.864  0.00  0.00    +0.000 A 
ATOM     20  C   UNL     1       6.193   7.163  17.101  0.00  0.00    +0.000 A 
ATOM     21  C   UNL     1       7.445   7.746  17.329  0.00  0.00    +0.000 A 
ATOM     22  C   UNL     1       8.293   7.225  18.305  0.00  0.00    +0.000 A 
ATOM     23  C   UNL     1       7.889   6.128  19.062  0.00  0.00    +0.000 A 
ATOM     24  C   UNL     1       6.634   5.549  18.844  0.00  0.00    +0.000 A 
ENDBRANCH  17  19
ENDBRANCH   7  17
TORSDOF 3
ENDMDL
MODEL 2
REMARK VINA RESULT:      -6.9      1.910      4.359
REMARK  Name = 
REMARK  4 active torsions:
REMARK  status: ('A' for Active; 'I' for Inactive)
REMARK    1  A    between atoms: C_1  and  C_2
REMARK    2  A    between atoms: C_5  and  C_6
REMARK    3  A    between atoms: C_9  and  C_10
REMARK    4  A    between atoms: C_10  and  C_12
REMARK                            x       y       z     vdW  Elec       q    Type
REMARK                         _______ _______ _______ _____ _____    ______ ____
ROOT
ATOM      1  C   UNL     1       1.109   2.713  21.637  0.00  0.00    +0.000 C 
ATOM      2  C   UNL     1       1.691   3.732  20.697  0.00  0.00    +0.000 A 
ATOM      3  C   UNL     1       1.504   5.040  20.921  0.00  0.00    +0.000 A 
ATOM      4  C   UNL     1       2.035   6.029  20.057  0.00  0.00    +0.000 A 
ATOM      5  C   UNL     1       1.955   7.400  20.131  0.00  0.00    +0.000 A 
ATOM      6  C   UNL     1       2.663   7.914  19.041  0.00  0.00    +0.000 A 
ATOM      7  C   UNL     1       3.143   6.858  18.265  0.00  0.00    +0.000 A 
ATOM      8  N   UNL     1       2.777   5.663  18.924  0.00  0.00    +0.000 N 
ATOM      9  C   UNL     1       3.002   4.272  18.615  0.00  0.00    +0.000 A 
ATOM     10  C   UNL     1       3.706   3.828  17.491  0.00  0.00    +0.000 A 
ATOM     11  C   UNL     1       3.915   2.459  17.270  0.00  0.00    +0.000 A 
ATOM     12  C   UNL     1       3.404   1.517  18.153  0.00  0.00    +0.000 A 
ATOM     13  C   UNL     1       2.681   1.939  19.263  0.00  0.00    +0.000 A 
ATOM     14  C   UNL     1       2.470   3.309  19.513  0.00  0.00    +0.000 A 
ENDROOT
BRANCH   5  15
ATOM     15  C   UNL     1       1.285   8.158  21.138  0.00  0.00    +0.000 C 
ATOM     16  N   UNL     1       0.744   8.791  21.947  0.00  0.00    +0.000 NA
ENDBRANCH   5  15
BRANCH   7  17
ATOM     17  C   UNL     1       3.940   7.074  17.062  0.00  0.00    +0.000 C 
ATOM     18  O   UNL     1       3.574   7.780  16.124  0.00  0.00    +0.000 OA
BRANCH  17  19
ATOM     19  C   UNL     1       5.218   6.295  16.875  0.00  0.00    +0.000 A 
ATOM     20  C   UNL     1       6.165   6.137  17.899  0.00  0.00    +0.000 A 
ATOM     21  C   UNL     1       7.327   5.388  17.682  0.00  0.00    +0.000 A 
ATOM     22  C   UNL     1       7.564   4.807  16.438  0.00  0.00    +0.000 A 
ATOM     23  C   UNL     1       6.637   4.963  15.410  0.00  0.00    +0.000 A 
ATOM     24  C   UNL     1       5.469   5.703  15.627  0.00  0.00    +0.000 A 
ENDBRANCH  17  19
ENDBRANCH   7  17
TORSDOF 3
ENDMDL
MODEL 3
REMARK VINA RESULT:      -6.9      5.801      8.805
REMARK  Name = 
REMARK  4 active torsions:
REMARK  status: ('A' for Active; 'I' for Inactive)
REMARK    1  A    between atoms: C_1  and  C_2
REMARK    2  A    between atoms: C_5  and  C_6
REMARK    3  A    between atoms: C_9  and  C_10
REMARK    4  A    between atoms: C_10  and  C_12
REMARK                            x       y       z     vdW  Elec       q    Type
REMARK                         _______ _______ _______ _____ _____    ______ ____
ROOT
ATOM      1  C   UNL     1      -7.352  12.389  18.037  0.00  0.00    +0.000 C 
ATOM      2  C   UNL     1      -5.884  12.247  18.333  0.00  0.00    +0.000 A 
ATOM      3  C   UNL     1      -5.064  11.699  17.426  0.00  0.00    +0.000 A 
ATOM      4  C   UNL     1      -3.677  11.547  17.668  0.00  0.00    +0.000 A 
ATOM      5  C   UNL     1      -2.692  11.024  16.863  0.00  0.00    +0.000 A 
ATOM      6  C   UNL     1      -1.489  11.120  17.567  0.00  0.00    +0.000 A 
ATOM      7  C   UNL     1      -1.736  11.661  18.829  0.00  0.00    +0.000 A 
ATOM      8  N   UNL     1      -3.115  11.965  18.884  0.00  0.00    +0.000 N 
ATOM      9  C   UNL     1      -3.944  12.548  19.911  0.00  0.00    +0.000 A 
ATOM     10  C   UNL     1      -3.464  12.962  21.157  0.00  0.00    +0.000 A 
ATOM     11  C   UNL     1      -4.322  13.551  22.096  0.00  0.00    +0.000 A 
ATOM     12  C   UNL     1      -5.672  13.711  21.815  0.00  0.00    +0.000 A 
ATOM     13  C   UNL     1      -6.172  13.283  20.590  0.00  0.00    +0.000 A 
ATOM     14  C   UNL     1      -5.326  12.701  19.625  0.00  0.00    +0.000 A 
ENDROOT
BRANCH   5  15
ATOM     15  C   UNL     1      -2.864  10.493  15.550  0.00  0.00    +0.000 C 
ATOM     16  N   UNL     1      -3.000  10.043  14.487  0.00  0.00    +0.000 NA
ENDBRANCH   5  15
BRANCH   7  17
ATOM     17  C   UNL     1      -0.671  11.903  19.796  0.00  0.00    +0.000 C 
ATOM     18  O   UNL     1      -0.057  12.966  19.877  0.00  0.00    +0.000 OA
BRANCH  17  19
ATOM     19  C   UNL     1      -0.184  10.765  20.658  0.00  0.00    +0.000 A 
ATOM     20  C   UNL     1       0.615   9.724  20.157  0.00  0.00    +0.000 A 
ATOM     21  C   UNL     1       1.057   8.699  21.001  0.00  0.00    +0.000 A 
ATOM     22  C   UNL     1       0.690   8.691  22.346  0.00  0.00    +0.000 A 
ATOM     23  C   UNL     1      -0.110   9.712  22.853  0.00  0.00    +0.000 A 
ATOM     24  C   UNL     1      -0.545  10.745  22.014  0.00  0.00    +0.000 A 
ENDBRANCH  17  19
ENDBRANCH   7  17
TORSDOF 3
ENDMDL
MODEL 4
REMARK VINA RESULT:      -6.8      1.405      1.832
REMARK  Name = 
REMARK  4 active torsions:
REMARK  status: ('A' for Active; 'I' for Inactive)
REMARK    1  A    between atoms: C_1  and  C_2
REMARK    2  A    between atoms: C_5  and  C_6
REMARK    3  A    between atoms: C_9  and  C_10
REMARK    4  A    between atoms: C_10  and  C_12
REMARK                            x       y       z     vdW  Elec       q    Type
REMARK                         _______ _______ _______ _____ _____    ______ ____
ROOT
ATOM      1  C   UNL     1      -0.477   8.923  22.348  0.00  0.00    +0.000 C 
ATOM      2  C   UNL     1       0.470   8.389  21.308  0.00  0.00    +0.000 A 
ATOM      3  C   UNL     1       0.919   7.130  21.389  0.00  0.00    +0.000 A 
ATOM      4  C   UNL     1       1.813   6.592  20.431  0.00  0.00    +0.000 A 
ATOM      5  C   UNL     1       2.365   5.335  20.347  0.00  0.00    +0.000 A 
ATOM      6  C   UNL     1       3.167   5.313  19.202  0.00  0.00    +0.000 A 
ATOM      7  C   UNL     1       3.148   6.572  18.602  0.00  0.00    +0.000 A 
ATOM      8  N   UNL     1       2.264   7.375  19.358  0.00  0.00    +0.000 N 
ATOM      9  C   UNL     1       1.833   8.745  19.219  0.00  0.00    +0.000 A 
ATOM     10  C   UNL     1       2.259   9.596  18.195  0.00  0.00    +0.000 A 
ATOM     11  C   UNL     1       1.772  10.908  18.104  0.00  0.00    +0.000 A 
ATOM     12  C   UNL     1       0.875  11.394  19.045  0.00  0.00    +0.000 A 
ATOM     13  C   UNL     1       0.458  10.570  20.084  0.00  0.00    +0.000 A 
ATOM     14  C   UNL     1       0.923   9.244  20.189  0.00  0.00    +0.000 A 
ENDROOT
BRANCH   5  15
ATOM     15  C   UNL     1       2.152   4.253  21.252  0.00  0.00    +0.000 C 
ATOM     16  N   UNL     1       1.975   3.384  22.002  0.00  0.00    +0.000 NA
ENDBRANCH   5  15
BRANCH   7  17
ATOM     17  C   UNL     1       3.878   6.861  17.373  0.00  0.00    +0.000 C 
ATOM     18  O   UNL     1       3.482   7.653  16.519  0.00  0.00    +0.000 OA
BRANCH  17  19
ATOM     19  C   UNL     1       5.113   6.060  17.043  0.00  0.00    +0.000 A 
ATOM     20  C   UNL     1       6.327   6.226  17.729  0.00  0.00    +0.000 A 
ATOM     21  C   UNL     1       7.441   5.445  17.398  0.00  0.00    +0.000 A 
ATOM     22  C   UNL     1       7.359   4.507  16.370  0.00  0.00    +0.000 A 
ATOM     23  C   UNL     1       6.163   4.340  15.677  0.00  0.00    +0.000 A 
ATOM     24  C   UNL     1       5.045   5.112  16.011  0.00  0.00    +0.000 A 
ENDBRANCH  17  19
ENDBRANCH   7  17
TORSDOF 3
ENDMDL
MODEL 5
REMARK VINA RESULT:      -6.8      5.717      8.625
REMARK  Name = 
REMARK  4 active torsions:
REMARK  status: ('A' for Active; 'I' for Inactive)
REMARK    1  A    between atoms: C_1  and  C_2
REMARK    2  A    between atoms: C_5  and  C_6
REMARK    3  A    between atoms: C_9  and  C_10
REMARK    4  A    between atoms: C_10  and  C_12
REMARK                            x       y       z     vdW  Elec       q    Type
REMARK                         _______ _______ _______ _____ _____    ______ ____
ROOT
ATOM      1  C   UNL     1      -7.405  12.483  18.526  0.00  0.00    +0.000 C 
ATOM      2  C   UNL     1      -5.918  12.275  18.614  0.00  0.00    +0.000 A 
ATOM      3  C   UNL     1      -5.248  11.753  17.578  0.00  0.00    +0.000 A 
ATOM      4  C   UNL     1      -3.849  11.541  17.624  0.00  0.00    +0.000 A 
ATOM      5  C   UNL     1      -3.001  11.032  16.668  0.00  0.00    +0.000 A 
ATOM      6  C   UNL     1      -1.713  11.048  17.208  0.00  0.00    +0.000 A 
ATOM      7  C   UNL     1      -1.768  11.524  18.518  0.00  0.00    +0.000 A 
ATOM      8  N   UNL     1      -3.115  11.870  18.773  0.00  0.00    +0.000 N 
ATOM      9  C   UNL     1      -3.776  12.421  19.931  0.00  0.00    +0.000 A 
ATOM     10  C   UNL     1      -3.118  12.749  21.121  0.00  0.00    +0.000 A 
ATOM     11  C   UNL     1      -3.820  13.311  22.196  0.00  0.00    +0.000 A 
ATOM     12  C   UNL     1      -5.188  13.532  22.107  0.00  0.00    +0.000 A 
ATOM     13  C   UNL     1      -5.863  13.191  20.941  0.00  0.00    +0.000 A 
ATOM     14  C   UNL     1      -5.177  12.636  19.842  0.00  0.00    +0.000 A 
ENDROOT
BRANCH   5  15
ATOM     15  C   UNL     1      -3.367  10.581  15.364  0.00  0.00    +0.000 C 
ATOM     16  N   UNL     1      -3.651  10.202  14.303  0.00  0.00    +0.000 NA
ENDBRANCH   5  15
BRANCH   7  17
ATOM     17  C   UNL     1      -0.575  11.676  19.344  0.00  0.00    +0.000 C 
ATOM     18  O   UNL     1       0.079  12.715  19.406  0.00  0.00    +0.000 OA
BRANCH  17  19
ATOM     19  C   UNL     1      -0.017  10.471  20.060  0.00  0.00    +0.000 A 
ATOM     20  C   UNL     1      -0.413  10.112  21.358  0.00  0.00    +0.000 A 
ATOM     21  C   UNL     1       0.121   8.973  21.973  0.00  0.00    +0.000 A 
ATOM     22  C   UNL     1       1.067   8.196  21.308  0.00  0.00    +0.000 A 
ATOM     23  C   UNL     1       1.475   8.547  20.023  0.00  0.00    +0.000 A 
ATOM     24  C   UNL     1       0.936   9.679  19.401  0.00  0.00    +0.000 A 
ENDBRANCH  17  19
ENDBRANCH   7  17
TORSDOF 3
ENDMDL
MODEL 6
REMARK VINA RESULT:      -6.7      6.375      9.398
REMARK  Name = 
REMARK  4 active torsions:
REMARK  status: ('A' for Active; 'I' for Inactive)
REMARK    1  A    between atoms: C_1  and  C_2
REMARK    2  A    between atoms: C_5  and  C_6
REMARK    3  A    between atoms: C_9  and  C_10
REMARK    4  A    between atoms: C_10  and  C_12
REMARK                            x       y       z     vdW  Elec       q    Type
REMARK                         _______ _______ _______ _____ _____    ______ ____
ROOT
ATOM      1  C   UNL     1      -7.129  11.706  18.212  0.00  0.00    +0.000 C 
ATOM      2  C   UNL     1      -5.936  11.976  19.088  0.00  0.00    +0.000 A 
ATOM      3  C   UNL     1      -6.108  12.369  20.357  0.00  0.00    +0.000 A 
ATOM      4  C   UNL     1      -5.010  12.634  21.213  0.00  0.00    +0.000 A 
ATOM      5  C   UNL     1      -4.992  13.032  22.529  0.00  0.00    +0.000 A 
ATOM      6  C   UNL     1      -3.652  13.138  22.910  0.00  0.00    +0.000 A 
ATOM      7  C   UNL     1      -2.838  12.850  21.814  0.00  0.00    +0.000 A 
ATOM      8  N   UNL     1      -3.694  12.497  20.746  0.00  0.00    +0.000 N 
ATOM      9  C   UNL     1      -3.437  12.093  19.385  0.00  0.00    +0.000 A 
ATOM     10  C   UNL     1      -2.157  11.961  18.840  0.00  0.00    +0.000 A 
ATOM     11  C   UNL     1      -1.981  11.533  17.517  0.00  0.00    +0.000 A 
ATOM     12  C   UNL     1      -3.080  11.254  16.715  0.00  0.00    +0.000 A 
ATOM     13  C   UNL     1      -4.362  11.403  17.232  0.00  0.00    +0.000 A 
ATOM     14  C   UNL     1      -4.562  11.819  18.563  0.00  0.00    +0.000 A 
ENDROOT
BRANCH   5  15
ATOM     15  C   UNL     1      -6.129  13.279  23.355  0.00  0.00    +0.000 C 
ATOM     16  N   UNL     1      -7.058  13.497  24.019  0.00  0.00    +0.000 NA
ENDBRANCH   5  15
BRANCH   7  17
ATOM     17  C   UNL     1      -1.381  12.860  21.901  0.00  0.00    +0.000 C 
ATOM     18  O   UNL     1      -0.698  13.867  21.726  0.00  0.00    +0.000 OA
BRANCH  17  19
ATOM     19  C   UNL     1      -0.645  11.555  22.076  0.00  0.00    +0.000 A 
ATOM     20  C   UNL     1      -0.944  10.650  23.107  0.00  0.00    +0.000 A 
ATOM     21  C   UNL     1      -0.244   9.443  23.217  0.00  0.00    +0.000 A 
ATOM     22  C   UNL     1       0.771   9.136  22.312  0.00  0.00    +0.000 A 
ATOM     23  C   UNL     1       1.083  10.029  21.290  0.00  0.00    +0.000 A 
ATOM     24  C   UNL     1       0.379  11.233  21.171  0.00  0.00    +0.000 A 
ENDBRANCH  17  19
ENDBRANCH   7  17
TORSDOF 3
ENDMDL
MODEL 7
REMARK VINA RESULT:      -6.6      6.000      8.886
REMARK  Name = 
REMARK  4 active torsions:
REMARK  status: ('A' for Active; 'I' for Inactive)
REMARK    1  A    between atoms: C_1  and  C_2
REMARK    2  A    between atoms: C_5  and  C_6
REMARK    3  A    between atoms: C_9  and  C_10
REMARK    4  A    between atoms: C_10  and  C_12
REMARK                            x       y       z     vdW  Elec       q    Type
REMARK                         _______ _______ _______ _____ _____    ______ ____
ROOT
ATOM      1  C   UNL     1      -7.128  12.023  18.089  0.00  0.00    +0.000 C 
ATOM      2  C   UNL     1      -5.775  12.124  18.737  0.00  0.00    +0.000 A 
ATOM      3  C   UNL     1      -5.659  12.603  19.983  0.00  0.00    +0.000 A 
ATOM      4  C   UNL     1      -4.402  12.715  20.627  0.00  0.00    +0.000 A 
ATOM      5  C   UNL     1      -4.094  13.168  21.888  0.00  0.00    +0.000 A 
ATOM      6  C   UNL     1      -2.709  13.058  22.039  0.00  0.00    +0.000 A 
ATOM      7  C   UNL     1      -2.153  12.580  20.852  0.00  0.00    +0.000 A 
ATOM      8  N   UNL     1      -3.226  12.329  19.967  0.00  0.00    +0.000 N 
ATOM      9  C   UNL     1      -3.277  11.821  18.618  0.00  0.00    +0.000 A 
ATOM     10  C   UNL     1      -2.147  11.442  17.886  0.00  0.00    +0.000 A 
ATOM     11  C   UNL     1      -2.274  10.925  16.588  0.00  0.00    +0.000 A 
ATOM     12  C   UNL     1      -3.525  10.802  15.998  0.00  0.00    +0.000 A 
ATOM     13  C   UNL     1      -4.657  11.196  16.702  0.00  0.00    +0.000 A 
ATOM     14  C   UNL     1      -4.555  11.705  18.011  0.00  0.00    +0.000 A 
ENDROOT
BRANCH   5  15
ATOM     15  C   UNL     1      -5.016  13.649  22.866  0.00  0.00    +0.000 C 
ATOM     16  N   UNL     1      -5.761  14.059  23.657  0.00  0.00    +0.000 NA
ENDBRANCH   5  15
BRANCH   7  17
ATOM     17  C   UNL     1      -0.722  12.341  20.702  0.00  0.00    +0.000 C 
ATOM     18  O   UNL     1       0.056  13.162  20.220  0.00  0.00    +0.000 OA
BRANCH  17  19
ATOM     19  C   UNL     1      -0.165  10.975  21.018  0.00  0.00    +0.000 A 
ATOM     20  C   UNL     1      -0.385  10.335  22.249  0.00  0.00    +0.000 A 
ATOM     21  C   UNL     1       0.137   9.059  22.488  0.00  0.00    +0.000 A 
ATOM     22  C   UNL     1       0.897   8.418  21.511  0.00  0.00    +0.000 A 
ATOM     23  C   UNL     1       1.129   9.045  20.289  0.00  0.00    +0.000 A 
ATOM     24  C   UNL     1       0.601  10.317  20.043  0.00  0.00    +0.000 A 
ENDBRANCH  17  19
ENDBRANCH   7  17
TORSDOF 3
ENDMDL
MODEL 8
REMARK VINA RESULT:      -6.6      3.025      5.500
REMARK  Name = 
REMARK  4 active torsions:
REMARK  status: ('A' for Active; 'I' for Inactive)
REMARK    1  A    between atoms: C_1  and  C_2
REMARK    2  A    between atoms: C_5  and  C_6
REMARK    3  A    between atoms: C_9  and  C_10
REMARK    4  A    between atoms: C_10  and  C_12
REMARK                            x       y       z     vdW  Elec       q    Type
REMARK                         _______ _______ _______ _____ _____    ______ ____
ROOT
ATOM      1  C   UNL     1       0.561   4.163  19.963  0.00  0.00    +0.000 C 
ATOM      2  C   UNL     1       1.782   4.481  19.146  0.00  0.00    +0.000 A 
ATOM      3  C   UNL     1       2.017   5.737  18.745  0.00  0.00    +0.000 A 
ATOM      4  C   UNL     1       3.156   6.075  17.973  0.00  0.00    +0.000 A 
ATOM      5  C   UNL     1       3.561   7.296  17.486  0.00  0.00    +0.000 A 
ATOM      6  C   UNL     1       4.761   7.088  16.801  0.00  0.00    +0.000 A 
ATOM      7  C   UNL     1       5.075   5.729  16.824  0.00  0.00    +0.000 A 
ATOM      8  N   UNL     1       4.079   5.089  17.595  0.00  0.00    +0.000 N 
ATOM      9  C   UNL     1       3.878   3.713  17.978  0.00  0.00    +0.000 A 
ATOM     10  C   UNL     1       4.737   2.671  17.616  0.00  0.00    +0.000 A 
ATOM     11  C   UNL     1       4.497   1.360  18.052  0.00  0.00    +0.000 A 
ATOM     12  C   UNL     1       3.386   1.068  18.832  0.00  0.00    +0.000 A 
ATOM     13  C   UNL     1       2.508   2.088  19.181  0.00  0.00    +0.000 A 
ATOM     14  C   UNL     1       2.736   3.415  18.767  0.00  0.00    +0.000 A 
ENDROOT
BRANCH   5  15
ATOM     15  C   UNL     1       2.890   8.543  17.658  0.00  0.00    +0.000 C 
ATOM     16  N   UNL     1       2.332   9.551  17.811  0.00  0.00    +0.000 NA
ENDBRANCH   5  15
BRANCH   7  17
ATOM     17  C   UNL     1       6.285   5.198  16.204  0.00  0.00    +0.000 C 
ATOM     18  O   UNL     1       7.393   5.241  16.735  0.00  0.00    +0.000 OA
BRANCH  17  19
ATOM     19  C   UNL     1       6.224   4.691  14.785  0.00  0.00    +0.000 A 
ATOM     20  C   UNL     1       5.129   3.968  14.286  0.00  0.00    +0.000 A 
ATOM     21  C   UNL     1       5.111   3.534  12.956  0.00  0.00    +0.000 A 
ATOM     22  C   UNL     1       6.192   3.800  12.117  0.00  0.00    +0.000 A 
ATOM     23  C   UNL     1       7.289   4.509  12.602  0.00  0.00    +0.000 A 
ATOM     24  C   UNL     1       7.306   4.952  13.929  0.00  0.00    +0.000 A 
ENDBRANCH  17  19
ENDBRANCH   7  17
TORSDOF 3
ENDMDL
MODEL 9
REMARK VINA RESULT:      -6.6      4.823      7.469
REMARK  Name = 
REMARK  4 active torsions:
REMARK  status: ('A' for Active; 'I' for Inactive)
REMARK    1  A    between atoms: C_1  and  C_2
REMARK    2  A    between atoms: C_5  and  C_6
REMARK    3  A    between atoms: C_9  and  C_10
REMARK    4  A    between atoms: C_10  and  C_12
REMARK                            x       y       z     vdW  Elec       q    Type
REMARK                         _______ _______ _______ _____ _____    ______ ____
ROOT
ATOM      1  C   UNL     1      -5.846  13.044  20.517  0.00  0.00    +0.000 C 
ATOM      2  C   UNL     1      -4.470  12.560  20.149  0.00  0.00    +0.000 A 
ATOM      3  C   UNL     1      -4.243  12.034  18.938  0.00  0.00    +0.000 A 
ATOM      4  C   UNL     1      -2.962  11.566  18.555  0.00  0.00    +0.000 A 
ATOM      5  C   UNL     1      -2.543  11.012  17.368  0.00  0.00    +0.000 A 
ATOM      6  C   UNL     1      -1.179  10.736  17.500  0.00  0.00    +0.000 A 
ATOM      7  C   UNL     1      -0.763  11.077  18.787  0.00  0.00    +0.000 A 
ATOM      8  N   UNL     1      -1.882  11.635  19.447  0.00  0.00    +0.000 N 
ATOM      9  C   UNL     1      -2.060  12.175  20.773  0.00  0.00    +0.000 A 
ATOM     10  C   UNL     1      -1.041  12.252  21.726  0.00  0.00    +0.000 A 
ATOM     11  C   UNL     1      -1.279  12.820  22.986  0.00  0.00    +0.000 A 
ATOM     12  C   UNL     1      -2.540  13.295  23.319  0.00  0.00    +0.000 A 
ATOM     13  C   UNL     1      -3.572  13.205  22.392  0.00  0.00    +0.000 A 
ATOM     14  C   UNL     1      -3.354  12.651  21.115  0.00  0.00    +0.000 A 
ENDROOT
BRANCH   5  15
ATOM     15  C   UNL     1      -3.347  10.773  16.213  0.00  0.00    +0.000 C 
ATOM     16  N   UNL     1      -4.013  10.594  15.278  0.00  0.00    +0.000 NA
ENDBRANCH   5  15
BRANCH   7  17
ATOM     17  C   UNL     1       0.619  10.922  19.226  0.00  0.00    +0.000 C 
ATOM     18  O   UNL     1       1.388  11.867  19.393  0.00  0.00    +0.000 OA
BRANCH  17  19
ATOM     19  C   UNL     1       1.200   9.536  19.355  0.00  0.00    +0.000 A 
ATOM     20  C   UNL     1       1.871   8.896  18.301  0.00  0.00    +0.000 A 
ATOM     21  C   UNL     1       2.409   7.615  18.475  0.00  0.00    +0.000 A 
ATOM     22  C   UNL     1       2.267   6.956  19.695  0.00  0.00    +0.000 A 
ATOM     23  C   UNL     1       1.596   7.576  20.746  0.00  0.00    +0.000 A 
ATOM     24  C   UNL     1       1.065   8.860  20.578  0.00  0.00    +0.000 A 
ENDBRANCH  17  19
ENDBRANCH   7  17
TORSDOF 3
ENDMDL
