MODEL 1
REMARK VINA RESULT:      -7.4      0.000      0.000
REMARK  Name = 
REMARK  14 active torsions:
REMARK  status: ('A' for Active; 'I' for Inactive)
REMARK    1  A    between atoms: C_1  and  C_2
REMARK    2  A    between atoms: C_2  and  O_3
REMARK    3  A    between atoms: O_3  and  C_4
REMARK    4  A    between atoms: C_4  and  C_6
REMARK    5  A    between atoms: C_8  and  C_9
REMARK    6  A    between atoms: C_12  and  O_13
REMARK    7  A    between atoms: O_13  and  C_14
REMARK    8  A    between atoms: N_17  and  C_18
REMARK    9  A    between atoms: C_18  and  C_19
REMARK   10  A    between atoms: C_19  and  C_20
REMARK   11  A    between atoms: N_22  and  C_23
REMARK   12  A    between atoms: C_28  and  O_29
REMARK   13  A    between atoms: O_29  and  C_30
REMARK   14  A    between atoms: C_31  and  C_32
REMARK                            x       y       z     vdW  Elec       q    Type
REMARK                         _______ _______ _______ _____ _____    ______ ____
ROOT
ATOM      1  C   UNL     1       2.844   4.213  20.235  0.00  0.00    +0.000 A 
ATOM      2  C   UNL     1       3.842   3.921  19.277  0.00  0.00    +0.000 A 
ATOM      3  C   UNL     1       4.129   5.055  18.527  0.00  0.00    +0.000 A 
ATOM      4  N   UNL     1       3.308   6.075  19.052  0.00  0.00    +0.000 N 
ATOM      5  C   UNL     1       2.511   5.556  20.069  0.00  0.00    +0.000 A 
ATOM      6  C   UNL     1       1.487   6.247  20.922  0.00  0.00    +0.000 C 
ENDROOT
BRANCH   3   7
ATOM      7  C   UNL     1       5.069   5.146  17.378  0.00  0.00    +0.000 A 
ATOM      8  C   UNL     1       6.381   5.603  17.589  0.00  0.00    +0.000 A 
ATOM      9  C   UNL     1       7.307   5.692  16.536  0.00  0.00    +0.000 A 
ATOM     10  C   UNL     1       6.958   5.298  15.246  0.00  0.00    +0.000 A 
ATOM     11  C   UNL     1       5.658   4.880  15.005  0.00  0.00    +0.000 A 
ATOM     12  C   UNL     1       4.724   4.836  16.055  0.00  0.00    +0.000 A 
BRANCH  10  13
ATOM     13  O   UNL     1       7.940   5.416  14.300  0.00  0.00    +0.000 OA
ATOM     14  C   UNL     1       7.597   4.956  12.996  0.00  0.00    +0.000 C 
ENDBRANCH  10  13
ENDBRANCH   3   7
BRANCH   1  15
ATOM     15  C   UNL     1       2.279   3.340  21.271  0.00  0.00    +0.000 C 
ATOM     16  O   UNL     1       2.507   3.476  22.468  0.00  0.00    +0.000 OA
BRANCH  15  17
ATOM     17  O   UNL     1       1.560   2.305  20.751  0.00  0.00    +0.000 OA
BRANCH  17  19
ATOM     18  C   UNL     1       0.716   2.179  18.529  0.00  0.00    +0.000 C 
ATOM     19  C   UNL     1       0.474   2.735  19.922  0.00  0.00    +0.000 C 
ENDBRANCH  17  19
ENDBRANCH  15  17
ENDBRANCH   1  15
BRANCH   4  20
ATOM     20  C   UNL     1       3.347   7.439  18.538  0.00  0.00    +0.000 C 
BRANCH  20  21
ATOM     21  C   UNL     1       2.187   7.946  17.715  0.00  0.00    +0.000 C 
BRANCH  21  22
ATOM     22  C   UNL     1       1.761   9.330  18.100  0.00  0.00    +0.000 C 
ATOM     23  O   UNL     1       2.247  10.342  17.610  0.00  0.00    +0.000 OA
ATOM     24  N   UNL     1       0.766   9.280  19.061  0.00  0.00    +0.000 N 
ATOM     25  H   UNL     1       0.709   8.462  19.653  0.00  0.00    +0.000 HD
BRANCH  24  26
ATOM     26  C   UNL     1       0.100  10.425  19.516  0.00  0.00    +0.000 A 
ATOM     27  C   UNL     1      -0.831  11.034  18.663  0.00  0.00    +0.000 A 
ATOM     28  C   UNL     1      -1.608  12.098  19.112  0.00  0.00    +0.000 A 
ATOM     29  C   UNL     1      -1.438  12.575  20.406  0.00  0.00    +0.000 A 
ATOM     30  C   UNL     1      -0.508  11.972  21.259  0.00  0.00    +0.000 A 
ATOM     31  C   UNL     1       0.262  10.887  20.827  0.00  0.00    +0.000 A 
BRANCH  31  32
ATOM     32  O   UNL     1       1.095  10.357  21.779  0.00  0.00    +0.000 OA
ATOM     33  C   UNL     1       0.520   9.421  22.687  0.00  0.00    +0.000 C 
ENDBRANCH  31  32
ENDBRANCH  24  26
ENDBRANCH  21  22
ENDBRANCH  20  21
ENDBRANCH   4  20
TORSDOF 10
ENDMDL
MODEL 2
REMARK VINA RESULT:      -7.1      2.601      6.439
REMARK  Name = 
REMARK  14 active torsions:
REMARK  status: ('A' for Active; 'I' for Inactive)
REMARK    1  A    between atoms: C_1  and  C_2
REMARK    2  A    between atoms: C_2  and  O_3
REMARK    3  A    between atoms: O_3  and  C_4
REMARK    4  A    between atoms: C_4  and  C_6
REMARK    5  A    between atoms: C_8  and  C_9
REMARK    6  A    between atoms: C_12  and  O_13
REMARK    7  A    between atoms: O_13  and  C_14
REMARK    8  A    between atoms: N_17  and  C_18
REMARK    9  A    between atoms: C_18  and  C_19
REMARK   10  A    between atoms: C_19  and  C_20
REMARK   11  A    between atoms: N_22  and  C_23
REMARK   12  A    between atoms: C_28  and  O_29
REMARK   13  A    between atoms: O_29  and  C_30
REMARK   14  A    between atoms: C_31  and  C_32
REMARK                            x       y       z     vdW  Elec       q    Type
REMARK                         _______ _______ _______ _____ _____    ______ ____
ROOT
ATOM      1  C   UNL     1       2.493   6.740  18.355  0.00  0.00    +0.000 A 
ATOM      2  C   UNL     1       2.124   8.020  17.880  0.00  0.00    +0.000 A 
ATOM      3  C   UNL     1       1.633   8.792  18.925  0.00  0.00    +0.000 A 
ATOM      4  N   UNL     1       1.726   7.979  20.074  0.00  0.00    +0.000 N 
ATOM      5  C   UNL     1       2.223   6.727  19.722  0.00  0.00    +0.000 A 
ATOM      6  C   UNL     1       2.498   5.534  20.590  0.00  0.00    +0.000 C 
ENDROOT
BRANCH   3   7
ATOM      7  C   UNL     1       1.078  10.169  18.828  0.00  0.00    +0.000 A 
ATOM      8  C   UNL     1      -0.296  10.349  18.591  0.00  0.00    +0.000 A 
ATOM      9  C   UNL     1      -0.865  11.630  18.505  0.00  0.00    +0.000 A 
ATOM     10  C   UNL     1      -0.084  12.770  18.683  0.00  0.00    +0.000 A 
ATOM     11  C   UNL     1       1.281  12.619  18.880  0.00  0.00    +0.000 A 
ATOM     12  C   UNL     1       1.851  11.335  18.920  0.00  0.00    +0.000 A 
BRANCH  10  13
ATOM     13  O   UNL     1      -0.743  13.966  18.590  0.00  0.00    +0.000 OA
ATOM     14  C   UNL     1       0.058  15.128  18.786  0.00  0.00    +0.000 C 
ENDBRANCH  10  13
ENDBRANCH   3   7
BRANCH   1  15
ATOM     15  C   UNL     1       3.109   5.628  17.620  0.00  0.00    +0.000 C 
ATOM     16  O   UNL     1       2.620   4.505  17.558  0.00  0.00    +0.000 OA
BRANCH  15  17
ATOM     17  O   UNL     1       4.328   5.953  17.102  0.00  0.00    +0.000 OA
BRANCH  17  19
ATOM     18  C   UNL     1       5.621   4.688  15.556  0.00  0.00    +0.000 C 
ATOM     19  C   UNL     1       5.218   4.835  17.013  0.00  0.00    +0.000 C 
ENDBRANCH  17  19
ENDBRANCH  15  17
ENDBRANCH   1  15
BRANCH   4  20
ATOM     20  C   UNL     1       1.329   8.458  21.393  0.00  0.00    +0.000 C 
BRANCH  20  21
ATOM     21  C   UNL     1      -0.113   8.837  21.632  0.00  0.00    +0.000 C 
BRANCH  21  22
ATOM     22  C   UNL     1      -0.261  10.022  22.538  0.00  0.00    +0.000 C 
ATOM     23  O   UNL     1       0.086  10.015  23.713  0.00  0.00    +0.000 OA
ATOM     24  N   UNL     1      -0.829  11.084  21.857  0.00  0.00    +0.000 N 
ATOM     25  H   UNL     1      -1.407  10.885  21.050  0.00  0.00    +0.000 HD
BRANCH  24  26
ATOM     26  C   UNL     1      -0.973  12.355  22.427  0.00  0.00    +0.000 A 
ATOM     27  C   UNL     1      -0.044  13.347  22.082  0.00  0.00    +0.000 A 
ATOM     28  C   UNL     1      -0.214  14.655  22.523  0.00  0.00    +0.000 A 
ATOM     29  C   UNL     1      -1.298  14.973  23.334  0.00  0.00    +0.000 A 
ATOM     30  C   UNL     1      -2.225  13.985  23.682  0.00  0.00    +0.000 A 
ATOM     31  C   UNL     1      -2.078  12.671  23.226  0.00  0.00    +0.000 A 
BRANCH  31  32
ATOM     32  O   UNL     1      -3.085  11.817  23.597  0.00  0.00    +0.000 OA
ATOM     33  C   UNL     1      -4.064  12.330  24.497  0.00  0.00    +0.000 C 
ENDBRANCH  31  32
ENDBRANCH  24  26
ENDBRANCH  21  22
ENDBRANCH  20  21
ENDBRANCH   4  20
TORSDOF 10
ENDMDL
MODEL 3
REMARK VINA RESULT:      -7.0      1.126      1.651
REMARK  Name = 
REMARK  14 active torsions:
REMARK  status: ('A' for Active; 'I' for Inactive)
REMARK    1  A    between atoms: C_1  and  C_2
REMARK    2  A    between atoms: C_2  and  O_3
REMARK    3  A    between atoms: O_3  and  C_4
REMARK    4  A    between atoms: C_4  and  C_6
REMARK    5  A    between atoms: C_8  and  C_9
REMARK    6  A    between atoms: C_12  and  O_13
REMARK    7  A    between atoms: O_13  and  C_14
REMARK    8  A    between atoms: N_17  and  C_18
REMARK    9  A    between atoms: C_18  and  C_19
REMARK   10  A    between atoms: C_19  and  C_20
REMARK   11  A    between atoms: N_22  and  C_23
REMARK   12  A    between atoms: C_28  and  O_29
REMARK   13  A    between atoms: O_29  and  C_30
REMARK   14  A    between atoms: C_31  and  C_32
REMARK                            x       y       z     vdW  Elec       q    Type
REMARK                         _______ _______ _______ _____ _____    ______ ____
ROOT
ATOM      1  C   UNL     1       3.020   3.760  20.134  0.00  0.00    +0.000 A 
ATOM      2  C   UNL     1       4.002   3.565  19.135  0.00  0.00    +0.000 A 
ATOM      3  C   UNL     1       4.252   4.760  18.473  0.00  0.00    +0.000 A 
ATOM      4  N   UNL     1       3.427   5.720  19.096  0.00  0.00    +0.000 N 
ATOM      5  C   UNL     1       2.662   5.106  20.084  0.00  0.00    +0.000 A 
ATOM      6  C   UNL     1       1.646   5.707  21.011  0.00  0.00    +0.000 C 
ENDROOT
BRANCH   3   7
ATOM      7  C   UNL     1       5.165   4.960  17.315  0.00  0.00    +0.000 A 
ATOM      8  C   UNL     1       6.356   5.687  17.487  0.00  0.00    +0.000 A 
ATOM      9  C   UNL     1       7.254   5.888  16.426  0.00  0.00    +0.000 A 
ATOM     10  C   UNL     1       7.003   5.345  15.168  0.00  0.00    +0.000 A 
ATOM     11  C   UNL     1       5.817   4.657  14.964  0.00  0.00    +0.000 A 
ATOM     12  C   UNL     1       4.901   4.497  16.018  0.00  0.00    +0.000 A 
BRANCH  10  13
ATOM     13  O   UNL     1       7.949   5.593  14.211  0.00  0.00    +0.000 OA
ATOM     14  C   UNL     1       7.685   5.040  12.925  0.00  0.00    +0.000 C 
ENDBRANCH  10  13
ENDBRANCH   3   7
BRANCH   1  15
ATOM     15  C   UNL     1       2.494   2.797  21.108  0.00  0.00    +0.000 C 
ATOM     16  O   UNL     1       3.115   2.429  22.100  0.00  0.00    +0.000 OA
BRANCH  15  17
ATOM     17  O   UNL     1       1.287   2.281  20.737  0.00  0.00    +0.000 OA
BRANCH  17  19
ATOM     18  C   UNL     1       0.344   2.647  18.583  0.00  0.00    +0.000 C 
ATOM     19  C   UNL     1       1.280   1.771  19.399  0.00  0.00    +0.000 C 
ENDBRANCH  17  19
ENDBRANCH  15  17
ENDBRANCH   1  15
BRANCH   4  20
ATOM     20  C   UNL     1       3.432   7.121  18.692  0.00  0.00    +0.000 C 
BRANCH  20  21
ATOM     21  C   UNL     1       2.394   7.604  17.708  0.00  0.00    +0.000 C 
BRANCH  21  22
ATOM     22  C   UNL     1       1.466   8.624  18.295  0.00  0.00    +0.000 C 
ATOM     23  O   UNL     1       0.627   9.225  17.636  0.00  0.00    +0.000 OA
ATOM     24  N   UNL     1       1.701   8.770  19.651  0.00  0.00    +0.000 N 
ATOM     25  H   UNL     1       2.619   8.536  20.008  0.00  0.00    +0.000 HD
BRANCH  24  26
ATOM     26  C   UNL     1       0.899   9.570  20.474  0.00  0.00    +0.000 A 
ATOM     27  C   UNL     1       0.164   8.948  21.492  0.00  0.00    +0.000 A 
ATOM     28  C   UNL     1      -0.550   9.709  22.413  0.00  0.00    +0.000 A 
ATOM     29  C   UNL     1      -0.555  11.095  22.303  0.00  0.00    +0.000 A 
ATOM     30  C   UNL     1       0.175  11.719  21.286  0.00  0.00    +0.000 A 
ATOM     31  C   UNL     1       0.916  10.966  20.369  0.00  0.00    +0.000 A 
BRANCH  31  32
ATOM     32  O   UNL     1       1.627  11.704  19.459  0.00  0.00    +0.000 OA
ATOM     33  C   UNL     1       0.910  12.709  18.746  0.00  0.00    +0.000 C 
ENDBRANCH  31  32
ENDBRANCH  24  26
ENDBRANCH  21  22
ENDBRANCH  20  21
ENDBRANCH   4  20
TORSDOF 10
ENDMDL
MODEL 4
REMARK VINA RESULT:      -7.0      2.890      6.449
REMARK  Name = 
REMARK  14 active torsions:
REMARK  status: ('A' for Active; 'I' for Inactive)
REMARK    1  A    between atoms: C_1  and  C_2
REMARK    2  A    between atoms: C_2  and  O_3
REMARK    3  A    between atoms: O_3  and  C_4
REMARK    4  A    between atoms: C_4  and  C_6
REMARK    5  A    between atoms: C_8  and  C_9
REMARK    6  A    between atoms: C_12  and  O_13
REMARK    7  A    between atoms: O_13  and  C_14
REMARK    8  A    between atoms: N_17  and  C_18
REMARK    9  A    between atoms: C_18  and  C_19
REMARK   10  A    between atoms: C_19  and  C_20
REMARK   11  A    between atoms: N_22  and  C_23
REMARK   12  A    between atoms: C_28  and  O_29
REMARK   13  A    between atoms: O_29  and  C_30
REMARK   14  A    between atoms: C_31  and  C_32
REMARK                            x       y       z     vdW  Elec       q    Type
REMARK                         _______ _______ _______ _____ _____    ______ ____
ROOT
ATOM      1  C   UNL     1       2.411   6.947  18.678  0.00  0.00    +0.000 A 
ATOM      2  C   UNL     1       2.035   8.220  18.190  0.00  0.00    +0.000 A 
ATOM      3  C   UNL     1       1.451   8.966  19.206  0.00  0.00    +0.000 A 
ATOM      4  N   UNL     1       1.493   8.146  20.352  0.00  0.00    +0.000 N 
ATOM      5  C   UNL     1       2.051   6.913  20.024  0.00  0.00    +0.000 A 
ATOM      6  C   UNL     1       2.304   5.720  20.899  0.00  0.00    +0.000 C 
ENDROOT
BRANCH   3   7
ATOM      7  C   UNL     1       0.862  10.327  19.082  0.00  0.00    +0.000 A 
ATOM      8  C   UNL     1       1.562  11.436  19.587  0.00  0.00    +0.000 A 
ATOM      9  C   UNL     1       1.049  12.739  19.480  0.00  0.00    +0.000 A 
ATOM     10  C   UNL     1      -0.164  12.977  18.839  0.00  0.00    +0.000 A 
ATOM     11  C   UNL     1      -0.892  11.895  18.366  0.00  0.00    +0.000 A 
ATOM     12  C   UNL     1      -0.395  10.589  18.517  0.00  0.00    +0.000 A 
BRANCH  10  13
ATOM     13  O   UNL     1      -0.563  14.285  18.781  0.00  0.00    +0.000 OA
ATOM     14  C   UNL     1       0.460  15.252  18.999  0.00  0.00    +0.000 C 
ENDBRANCH  10  13
ENDBRANCH   3   7
BRANCH   1  15
ATOM     15  C   UNL     1       3.109   5.863  17.978  0.00  0.00    +0.000 C 
ATOM     16  O   UNL     1       4.186   6.007  17.409  0.00  0.00    +0.000 OA
BRANCH  15  17
ATOM     17  O   UNL     1       2.385   4.708  17.944  0.00  0.00    +0.000 OA
BRANCH  17  19
ATOM     18  C   UNL     1       2.652   2.346  18.052  0.00  0.00    +0.000 C 
ATOM     19  C   UNL     1       3.092   3.617  17.345  0.00  0.00    +0.000 C 
ENDBRANCH  17  19
ENDBRANCH  15  17
ENDBRANCH   1  15
BRANCH   4  20
ATOM     20  C   UNL     1       0.993   8.599  21.645  0.00  0.00    +0.000 C 
BRANCH  20  21
ATOM     21  C   UNL     1      -0.437   9.067  21.755  0.00  0.00    +0.000 C 
BRANCH  21  22
ATOM     22  C   UNL     1      -0.604  10.208  22.713  0.00  0.00    +0.000 C 
ATOM     23  O   UNL     1      -0.136  10.206  23.845  0.00  0.00    +0.000 OA
ATOM     24  N   UNL     1      -1.343  11.224  22.133  0.00  0.00    +0.000 N 
ATOM     25  H   UNL     1      -1.981  10.988  21.384  0.00  0.00    +0.000 HD
BRANCH  24  26
ATOM     26  C   UNL     1      -1.550  12.458  22.760  0.00  0.00    +0.000 A 
ATOM     27  C   UNL     1      -0.621  13.483  22.532  0.00  0.00    +0.000 A 
ATOM     28  C   UNL     1      -0.846  14.762  23.031  0.00  0.00    +0.000 A 
ATOM     29  C   UNL     1      -1.987  15.017  23.784  0.00  0.00    +0.000 A 
ATOM     30  C   UNL     1      -2.915  13.996  24.016  0.00  0.00    +0.000 A 
ATOM     31  C   UNL     1      -2.712  12.712  23.500  0.00  0.00    +0.000 A 
BRANCH  31  32
ATOM     32  O   UNL     1      -3.723  11.822  23.756  0.00  0.00    +0.000 OA
ATOM     33  C   UNL     1      -4.746  12.251  24.651  0.00  0.00    +0.000 C 
ENDBRANCH  31  32
ENDBRANCH  24  26
ENDBRANCH  21  22
ENDBRANCH  20  21
ENDBRANCH   4  20
TORSDOF 10
ENDMDL
MODEL 5
REMARK VINA RESULT:      -6.9      2.738      6.282
REMARK  Name = 
REMARK  14 active torsions:
REMARK  status: ('A' for Active; 'I' for Inactive)
REMARK    1  A    between atoms: C_1  and  C_2
REMARK    2  A    between atoms: C_2  and  O_3
REMARK    3  A    between atoms: O_3  and  C_4
REMARK    4  A    between atoms: C_4  and  C_6
REMARK    5  A    between atoms: C_8  and  C_9
REMARK    6  A    between atoms: C_12  and  O_13
REMARK    7  A    between atoms: O_13  and  C_14
REMARK    8  A    between atoms: N_17  and  C_18
REMARK    9  A    between atoms: C_18  and  C_19
REMARK   10  A    between atoms: C_19  and  C_20
REMARK   11  A    between atoms: N_22  and  C_23
REMARK   12  A    between atoms: C_28  and  O_29
REMARK   13  A    between atoms: O_29  and  C_30
REMARK   14  A    between atoms: C_31  and  C_32
REMARK                            x       y       z     vdW  Elec       q    Type
REMARK                         _______ _______ _______ _____ _____    ______ ____
ROOT
ATOM      1  C   UNL     1       2.899   6.866  18.310  0.00  0.00    +0.000 A 
ATOM      2  C   UNL     1       2.550   8.171  17.893  0.00  0.00    +0.000 A 
ATOM      3  C   UNL     1       1.766   8.786  18.861  0.00  0.00    +0.000 A 
ATOM      4  N   UNL     1       1.652   7.850  19.910  0.00  0.00    +0.000 N 
ATOM      5  C   UNL     1       2.318   6.677  19.562  0.00  0.00    +0.000 A 
ATOM      6  C   UNL     1       2.476   5.406  20.345  0.00  0.00    +0.000 C 
ENDROOT
BRANCH   3   7
ATOM      7  C   UNL     1       1.140  10.133  18.773  0.00  0.00    +0.000 A 
ATOM      8  C   UNL     1      -0.239  10.243  18.525  0.00  0.00    +0.000 A 
ATOM      9  C   UNL     1      -0.874  11.494  18.448  0.00  0.00    +0.000 A 
ATOM     10  C   UNL     1      -0.156  12.671  18.644  0.00  0.00    +0.000 A 
ATOM     11  C   UNL     1       1.213  12.590  18.852  0.00  0.00    +0.000 A 
ATOM     12  C   UNL     1       1.850  11.337  18.884  0.00  0.00    +0.000 A 
BRANCH  10  13
ATOM     13  O   UNL     1      -0.876  13.832  18.558  0.00  0.00    +0.000 OA
ATOM     14  C   UNL     1      -0.126  15.034  18.703  0.00  0.00    +0.000 C 
ENDBRANCH  10  13
ENDBRANCH   3   7
BRANCH   1  15
ATOM     15  C   UNL     1       3.758   5.884  17.637  0.00  0.00    +0.000 C 
ATOM     16  O   UNL     1       4.930   6.096  17.348  0.00  0.00    +0.000 OA
BRANCH  15  17
ATOM     17  O   UNL     1       3.083   4.753  17.281  0.00  0.00    +0.000 OA
BRANCH  17  19
ATOM     18  C   UNL     1       4.010   2.863  18.391  0.00  0.00    +0.000 C 
ATOM     19  C   UNL     1       3.942   3.626  17.078  0.00  0.00    +0.000 C 
ENDBRANCH  17  19
ENDBRANCH  15  17
ENDBRANCH   1  15
BRANCH   4  20
ATOM     20  C   UNL     1       0.919   8.148  21.135  0.00  0.00    +0.000 C 
BRANCH  20  21
ATOM     21  C   UNL     1       1.495   9.145  22.110  0.00  0.00    +0.000 C 
BRANCH  21  22
ATOM     22  C   UNL     1       0.443   9.971  22.787  0.00  0.00    +0.000 C 
ATOM     23  O   UNL     1       0.019   9.726  23.910  0.00  0.00    +0.000 OA
ATOM     24  N   UNL     1       0.047  11.015  21.970  0.00  0.00    +0.000 N 
ATOM     25  H   UNL     1       0.160  10.913  20.970  0.00  0.00    +0.000 HD
BRANCH  24  26
ATOM     26  C   UNL     1      -0.837  12.013  22.397  0.00  0.00    +0.000 A 
ATOM     27  C   UNL     1      -2.116  11.628  22.824  0.00  0.00    +0.000 A 
ATOM     28  C   UNL     1      -2.988  12.564  23.372  0.00  0.00    +0.000 A 
ATOM     29  C   UNL     1      -2.595  13.894  23.472  0.00  0.00    +0.000 A 
ATOM     30  C   UNL     1      -1.321  14.282  23.046  0.00  0.00    +0.000 A 
ATOM     31  C   UNL     1      -0.427  13.346  22.514  0.00  0.00    +0.000 A 
BRANCH  31  32
ATOM     32  O   UNL     1       0.806  13.849  22.185  0.00  0.00    +0.000 OA
ATOM     33  C   UNL     1       0.935  15.269  22.163  0.00  0.00    +0.000 C 
ENDBRANCH  31  32
ENDBRANCH  24  26
ENDBRANCH  21  22
ENDBRANCH  20  21
ENDBRANCH   4  20
TORSDOF 10
ENDMDL
MODEL 6
REMARK VINA RESULT:      -6.9      1.043      1.720
REMARK  Name = 
REMARK  14 active torsions:
REMARK  status: ('A' for Active; 'I' for Inactive)
REMARK    1  A    between atoms: C_1  and  C_2
REMARK    2  A    between atoms: C_2  and  O_3
REMARK    3  A    between atoms: O_3  and  C_4
REMARK    4  A    between atoms: C_4  and  C_6
REMARK    5  A    between atoms: C_8  and  C_9
REMARK    6  A    between atoms: C_12  and  O_13
REMARK    7  A    between atoms: O_13  and  C_14
REMARK    8  A    between atoms: N_17  and  C_18
REMARK    9  A    between atoms: C_18  and  C_19
REMARK   10  A    between atoms: C_19  and  C_20
REMARK   11  A    between atoms: N_22  and  C_23
REMARK   12  A    between atoms: C_28  and  O_29
REMARK   13  A    between atoms: O_29  and  C_30
REMARK   14  A    between atoms: C_31  and  C_32
REMARK                            x       y       z     vdW  Elec       q    Type
REMARK                         _______ _______ _______ _____ _____    ______ ____
ROOT
ATOM      1  C   UNL     1       2.580   4.343  20.243  0.00  0.00    +0.000 A 
ATOM      2  C   UNL     1       3.591   4.034  19.304  0.00  0.00    +0.000 A 
ATOM      3  C   UNL     1       3.934   5.170  18.581  0.00  0.00    +0.000 A 
ATOM      4  N   UNL     1       3.135   6.208  19.105  0.00  0.00    +0.000 N 
ATOM      5  C   UNL     1       2.296   5.699  20.094  0.00  0.00    +0.000 A 
ATOM      6  C   UNL     1       1.276   6.409  20.933  0.00  0.00    +0.000 C 
ENDROOT
BRANCH   3   7
ATOM      7  C   UNL     1       4.905   5.248  17.457  0.00  0.00    +0.000 A 
ATOM      8  C   UNL     1       6.154   4.615  17.573  0.00  0.00    +0.000 A 
ATOM      9  C   UNL     1       7.095   4.652  16.531  0.00  0.00    +0.000 A 
ATOM     10  C   UNL     1       6.806   5.296  15.331  0.00  0.00    +0.000 A 
ATOM     11  C   UNL     1       5.595   5.961  15.207  0.00  0.00    +0.000 A 
ATOM     12  C   UNL     1       4.675   5.959  16.270  0.00  0.00    +0.000 A 
BRANCH  10  13
ATOM     13  O   UNL     1       7.790   5.261  14.380  0.00  0.00    +0.000 OA
ATOM     14  C   UNL     1       7.429   4.655  13.142  0.00  0.00    +0.000 C 
ENDBRANCH  10  13
ENDBRANCH   3   7
BRANCH   1  15
ATOM     15  C   UNL     1       1.962   3.472  21.250  0.00  0.00    +0.000 C 
ATOM     16  O   UNL     1       2.461   3.246  22.347  0.00  0.00    +0.000 OA
BRANCH  15  17
ATOM     17  O   UNL     1       0.829   2.865  20.794  0.00  0.00    +0.000 OA
BRANCH  17  19
ATOM     18  C   UNL     1       0.793   1.763  18.685  0.00  0.00    +0.000 C 
ATOM     19  C   UNL     1       0.592   3.088  19.400  0.00  0.00    +0.000 C 
ENDBRANCH  17  19
ENDBRANCH  15  17
ENDBRANCH   1  15
BRANCH   4  20
ATOM     20  C   UNL     1       3.232   7.578  18.616  0.00  0.00    +0.000 C 
BRANCH  20  21
ATOM     21  C   UNL     1       2.160   8.105  17.692  0.00  0.00    +0.000 C 
BRANCH  21  22
ATOM     22  C   UNL     1       1.700   9.483  18.060  0.00  0.00    +0.000 C 
ATOM     23  O   UNL     1       2.206  10.502  17.606  0.00  0.00    +0.000 OA
ATOM     24  N   UNL     1       0.650   9.418  18.959  0.00  0.00    +0.000 N 
ATOM     25  H   UNL     1       0.564   8.595  19.542  0.00  0.00    +0.000 HD
BRANCH  24  26
ATOM     26  C   UNL     1      -0.052  10.554  19.381  0.00  0.00    +0.000 A 
ATOM     27  C   UNL     1       0.396  11.224  20.528  0.00  0.00    +0.000 A 
ATOM     28  C   UNL     1      -0.189  12.425  20.917  0.00  0.00    +0.000 A 
ATOM     29  C   UNL     1      -1.244  12.948  20.178  0.00  0.00    +0.000 A 
ATOM     30  C   UNL     1      -1.696  12.281  19.034  0.00  0.00    +0.000 A 
ATOM     31  C   UNL     1      -1.100  11.085  18.619  0.00  0.00    +0.000 A 
BRANCH  31  32
ATOM     32  O   UNL     1      -1.603  10.565  17.455  0.00  0.00    +0.000 OA
ATOM     33  C   UNL     1      -2.809   9.811  17.556  0.00  0.00    +0.000 C 
ENDBRANCH  31  32
ENDBRANCH  24  26
ENDBRANCH  21  22
ENDBRANCH  20  21
ENDBRANCH   4  20
TORSDOF 10
ENDMDL
MODEL 7
REMARK VINA RESULT:      -6.9      1.272      1.661
REMARK  Name = 
REMARK  14 active torsions:
REMARK  status: ('A' for Active; 'I' for Inactive)
REMARK    1  A    between atoms: C_1  and  C_2
REMARK    2  A    between atoms: C_2  and  O_3
REMARK    3  A    between atoms: O_3  and  C_4
REMARK    4  A    between atoms: C_4  and  C_6
REMARK    5  A    between atoms: C_8  and  C_9
REMARK    6  A    between atoms: C_12  and  O_13
REMARK    7  A    between atoms: O_13  and  C_14
REMARK    8  A    between atoms: N_17  and  C_18
REMARK    9  A    between atoms: C_18  and  C_19
REMARK   10  A    between atoms: C_19  and  C_20
REMARK   11  A    between atoms: N_22  and  C_23
REMARK   12  A    between atoms: C_28  and  O_29
REMARK   13  A    between atoms: O_29  and  C_30
REMARK   14  A    between atoms: C_31  and  C_32
REMARK                            x       y       z     vdW  Elec       q    Type
REMARK                         _______ _______ _______ _____ _____    ______ ____
ROOT
ATOM      1  C   UNL     1       3.119   3.706  20.085  0.00  0.00    +0.000 A 
ATOM      2  C   UNL     1       4.107   3.509  19.093  0.00  0.00    +0.000 A 
ATOM      3  C   UNL     1       4.360   4.703  18.429  0.00  0.00    +0.000 A 
ATOM      4  N   UNL     1       3.529   5.663  19.042  0.00  0.00    +0.000 N 
ATOM      5  C   UNL     1       2.758   5.051  20.028  0.00  0.00    +0.000 A 
ATOM      6  C   UNL     1       1.735   5.654  20.946  0.00  0.00    +0.000 C 
ENDROOT
BRANCH   3   7
ATOM      7  C   UNL     1       5.281   4.900  17.277  0.00  0.00    +0.000 A 
ATOM      8  C   UNL     1       6.670   4.898  17.489  0.00  0.00    +0.000 A 
ATOM      9  C   UNL     1       7.576   5.066  16.429  0.00  0.00    +0.000 A 
ATOM     10  C   UNL     1       7.122   5.213  15.121  0.00  0.00    +0.000 A 
ATOM     11  C   UNL     1       5.755   5.258  14.890  0.00  0.00    +0.000 A 
ATOM     12  C   UNL     1       4.853   5.133  15.962  0.00  0.00    +0.000 A 
BRANCH  10  13
ATOM     13  O   UNL     1       8.090   5.359  14.165  0.00  0.00    +0.000 OA
ATOM     14  C   UNL     1       7.717   4.976  12.845  0.00  0.00    +0.000 C 
ENDBRANCH  10  13
ENDBRANCH   3   7
BRANCH   1  15
ATOM     15  C   UNL     1       2.588   2.745  21.059  0.00  0.00    +0.000 C 
ATOM     16  O   UNL     1       3.197   2.392  22.062  0.00  0.00    +0.000 OA
BRANCH  15  17
ATOM     17  O   UNL     1       1.392   2.215  20.674  0.00  0.00    +0.000 OA
BRANCH  17  19
ATOM     18  C   UNL     1       0.349   2.643  18.578  0.00  0.00    +0.000 C 
ATOM     19  C   UNL     1       1.376   1.793  19.306  0.00  0.00    +0.000 C 
ENDBRANCH  17  19
ENDBRANCH  15  17
ENDBRANCH   1  15
BRANCH   4  20
ATOM     20  C   UNL     1       3.534   7.063  18.634  0.00  0.00    +0.000 C 
BRANCH  20  21
ATOM     21  C   UNL     1       2.332   7.619  17.910  0.00  0.00    +0.000 C 
BRANCH  21  22
ATOM     22  C   UNL     1       1.603   8.659  18.707  0.00  0.00    +0.000 C 
ATOM     23  O   UNL     1       1.622   8.700  19.931  0.00  0.00    +0.000 OA
ATOM     24  N   UNL     1       0.934   9.532  17.867  0.00  0.00    +0.000 N 
ATOM     25  H   UNL     1       0.672   9.207  16.945  0.00  0.00    +0.000 HD
BRANCH  24  26
ATOM     26  C   UNL     1       0.269  10.670  18.338  0.00  0.00    +0.000 A 
ATOM     27  C   UNL     1      -1.085  10.553  18.683  0.00  0.00    +0.000 A 
ATOM     28  C   UNL     1      -1.757  11.620  19.270  0.00  0.00    +0.000 A 
ATOM     29  C   UNL     1      -1.088  12.818  19.490  0.00  0.00    +0.000 A 
ATOM     30  C   UNL     1       0.262  12.940  19.145  0.00  0.00    +0.000 A 
ATOM     31  C   UNL     1       0.956  11.867  18.575  0.00  0.00    +0.000 A 
BRANCH  31  32
ATOM     32  O   UNL     1       2.285  12.103  18.335  0.00  0.00    +0.000 OA
ATOM     33  C   UNL     1       2.779  13.398  18.670  0.00  0.00    +0.000 C 
ENDBRANCH  31  32
ENDBRANCH  24  26
ENDBRANCH  21  22
ENDBRANCH  20  21
ENDBRANCH   4  20
TORSDOF 10
ENDMDL
MODEL 8
REMARK VINA RESULT:      -6.7      1.604      7.839
REMARK  Name = 
REMARK  14 active torsions:
REMARK  status: ('A' for Active; 'I' for Inactive)
REMARK    1  A    between atoms: C_1  and  C_2
REMARK    2  A    between atoms: C_2  and  O_3
REMARK    3  A    between atoms: O_3  and  C_4
REMARK    4  A    between atoms: C_4  and  C_6
REMARK    5  A    between atoms: C_8  and  C_9
REMARK    6  A    between atoms: C_12  and  O_13
REMARK    7  A    between atoms: O_13  and  C_14
REMARK    8  A    between atoms: N_17  and  C_18
REMARK    9  A    between atoms: C_18  and  C_19
REMARK   10  A    between atoms: C_19  and  C_20
REMARK   11  A    between atoms: N_22  and  C_23
REMARK   12  A    between atoms: C_28  and  O_29
REMARK   13  A    between atoms: O_29  and  C_30
REMARK   14  A    between atoms: C_31  and  C_32
REMARK                            x       y       z     vdW  Elec       q    Type
REMARK                         _______ _______ _______ _____ _____    ______ ____
ROOT
ATOM      1  C   UNL     1       2.693   4.123  20.347  0.00  0.00    +0.000 A 
ATOM      2  C   UNL     1       1.962   5.333  20.398  0.00  0.00    +0.000 A 
ATOM      3  C   UNL     1       2.503   6.254  19.510  0.00  0.00    +0.000 A 
ATOM      4  N   UNL     1       3.573   5.588  18.877  0.00  0.00    +0.000 N 
ATOM      5  C   UNL     1       3.703   4.306  19.405  0.00  0.00    +0.000 A 
ATOM      6  C   UNL     1       4.688   3.229  19.055  0.00  0.00    +0.000 C 
ENDROOT
BRANCH   3   7
ATOM      7  C   UNL     1       2.066   7.663  19.315  0.00  0.00    +0.000 A 
ATOM      8  C   UNL     1       2.259   8.284  18.069  0.00  0.00    +0.000 A 
ATOM      9  C   UNL     1       1.849   9.608  17.837  0.00  0.00    +0.000 A 
ATOM     10  C   UNL     1       1.208  10.340  18.833  0.00  0.00    +0.000 A 
ATOM     11  C   UNL     1       1.040   9.762  20.082  0.00  0.00    +0.000 A 
ATOM     12  C   UNL     1       1.493   8.453  20.322  0.00  0.00    +0.000 A 
BRANCH  10  13
ATOM     13  O   UNL     1       0.842  11.615  18.495  0.00  0.00    +0.000 OA
ATOM     14  C   UNL     1      -0.551  11.900  18.583  0.00  0.00    +0.000 C 
ENDBRANCH  10  13
ENDBRANCH   3   7
BRANCH   1  15
ATOM     15  C   UNL     1       2.444   2.867  21.064  0.00  0.00    +0.000 C 
ATOM     16  O   UNL     1       2.884   2.628  22.183  0.00  0.00    +0.000 OA
BRANCH  15  17
ATOM     17  O   UNL     1       1.758   1.960  20.311  0.00  0.00    +0.000 OA
BRANCH  17  19
ATOM     18  C   UNL     1       0.980   2.429  18.111  0.00  0.00    +0.000 C 
ATOM     19  C   UNL     1       0.662   2.539  19.593  0.00  0.00    +0.000 C 
ENDBRANCH  17  19
ENDBRANCH  15  17
ENDBRANCH   1  15
BRANCH   4  20
ATOM     20  C   UNL     1       4.377   6.228  17.842  0.00  0.00    +0.000 C 
BRANCH  20  21
ATOM     21  C   UNL     1       5.879   6.089  17.889  0.00  0.00    +0.000 C 
BRANCH  21  22
ATOM     22  C   UNL     1       6.417   5.216  16.796  0.00  0.00    +0.000 C 
ATOM     23  O   UNL     1       7.273   4.360  16.982  0.00  0.00    +0.000 OA
ATOM     24  N   UNL     1       5.811   5.521  15.590  0.00  0.00    +0.000 N 
ATOM     25  H   UNL     1       5.427   6.449  15.465  0.00  0.00    +0.000 HD
BRANCH  24  26
ATOM     26  C   UNL     1       6.038   4.780  14.424  0.00  0.00    +0.000 A 
ATOM     27  C   UNL     1       5.000   3.971  13.939  0.00  0.00    +0.000 A 
ATOM     28  C   UNL     1       5.130   3.313  12.720  0.00  0.00    +0.000 A 
ATOM     29  C   UNL     1       6.309   3.437  11.994  0.00  0.00    +0.000 A 
ATOM     30  C   UNL     1       7.347   4.240  12.476  0.00  0.00    +0.000 A 
ATOM     31  C   UNL     1       7.219   4.927  13.688  0.00  0.00    +0.000 A 
BRANCH  31  32
ATOM     32  O   UNL     1       8.289   5.720  14.016  0.00  0.00    +0.000 OA
ATOM     33  C   UNL     1       9.233   5.986  12.982  0.00  0.00    +0.000 C 
ENDBRANCH  31  32
ENDBRANCH  24  26
ENDBRANCH  21  22
ENDBRANCH  20  21
ENDBRANCH   4  20
TORSDOF 10
ENDMDL
MODEL 9
REMARK VINA RESULT:      -6.6      1.224      1.509
REMARK  Name = 
REMARK  14 active torsions:
REMARK  status: ('A' for Active; 'I' for Inactive)
REMARK    1  A    between atoms: C_1  and  C_2
REMARK    2  A    between atoms: C_2  and  O_3
REMARK    3  A    between atoms: O_3  and  C_4
REMARK    4  A    between atoms: C_4  and  C_6
REMARK    5  A    between atoms: C_8  and  C_9
REMARK    6  A    between atoms: C_12  and  O_13
REMARK    7  A    between atoms: O_13  and  C_14
REMARK    8  A    between atoms: N_17  and  C_18
REMARK    9  A    between atoms: C_18  and  C_19
REMARK   10  A    between atoms: C_19  and  C_20
REMARK   11  A    between atoms: N_22  and  C_23
REMARK   12  A    between atoms: C_28  and  O_29
REMARK   13  A    between atoms: O_29  and  C_30
REMARK   14  A    between atoms: C_31  and  C_32
REMARK                            x       y       z     vdW  Elec       q    Type
REMARK                         _______ _______ _______ _____ _____    ______ ____
ROOT
ATOM      1  C   UNL     1       3.108   3.660  20.003  0.00  0.00    +0.000 A 
ATOM      2  C   UNL     1       4.156   3.480  19.071  0.00  0.00    +0.000 A 
ATOM      3  C   UNL     1       4.295   4.616  18.284  0.00  0.00    +0.000 A 
ATOM      4  N   UNL     1       3.329   5.527  18.760  0.00  0.00    +0.000 N 
ATOM      5  C   UNL     1       2.593   4.936  19.783  0.00  0.00    +0.000 A 
ATOM      6  C   UNL     1       1.466   5.504  20.595  0.00  0.00    +0.000 C 
ENDROOT
BRANCH   3   7
ATOM      7  C   UNL     1       5.236   4.800  17.146  0.00  0.00    +0.000 A 
ATOM      8  C   UNL     1       6.326   5.675  17.282  0.00  0.00    +0.000 A 
ATOM      9  C   UNL     1       7.247   5.868  16.238  0.00  0.00    +0.000 A 
ATOM     10  C   UNL     1       7.123   5.170  15.040  0.00  0.00    +0.000 A 
ATOM     11  C   UNL     1       6.033   4.330  14.868  0.00  0.00    +0.000 A 
ATOM     12  C   UNL     1       5.090   4.175  15.899  0.00  0.00    +0.000 A 
BRANCH  10  13
ATOM     13  O   UNL     1       8.081   5.426  14.097  0.00  0.00    +0.000 OA
ATOM     14  C   UNL     1       7.687   5.215  12.744  0.00  0.00    +0.000 C 
ENDBRANCH  10  13
ENDBRANCH   3   7
BRANCH   1  15
ATOM     15  C   UNL     1       2.651   2.752  21.062  0.00  0.00    +0.000 C 
ATOM     16  O   UNL     1       3.348   2.419  22.014  0.00  0.00    +0.000 OA
BRANCH  15  17
ATOM     17  O   UNL     1       1.411   2.242  20.818  0.00  0.00    +0.000 OA
BRANCH  17  19
ATOM     18  C   UNL     1       0.333   2.508  18.712  0.00  0.00    +0.000 C 
ATOM     19  C   UNL     1       1.291   1.649  19.520  0.00  0.00    +0.000 C 
ENDBRANCH  17  19
ENDBRANCH  15  17
ENDBRANCH   1  15
BRANCH   4  20
ATOM     20  C   UNL     1       3.186   6.865  18.196  0.00  0.00    +0.000 C 
BRANCH  20  21
ATOM     21  C   UNL     1       2.672   7.980  19.075  0.00  0.00    +0.000 C 
BRANCH  21  22
ATOM     22  C   UNL     1       1.864   8.991  18.319  0.00  0.00    +0.000 C 
ATOM     23  O   UNL     1       2.176   9.403  17.209  0.00  0.00    +0.000 OA
ATOM     24  N   UNL     1       0.751   9.366  19.051  0.00  0.00    +0.000 N 
ATOM     25  H   UNL     1       0.784   9.274  20.058  0.00  0.00    +0.000 HD
BRANCH  24  26
ATOM     26  C   UNL     1      -0.241  10.209  18.535  0.00  0.00    +0.000 A 
ATOM     27  C   UNL     1      -1.146   9.678  17.606  0.00  0.00    +0.000 A 
ATOM     28  C   UNL     1      -2.223  10.436  17.158  0.00  0.00    +0.000 A 
ATOM     29  C   UNL     1      -2.384  11.739  17.615  0.00  0.00    +0.000 A 
ATOM     30  C   UNL     1      -1.482  12.274  18.540  0.00  0.00    +0.000 A 
ATOM     31  C   UNL     1      -0.408  11.513  19.016  0.00  0.00    +0.000 A 
BRANCH  31  32
ATOM     32  O   UNL     1       0.368  12.138  19.958  0.00  0.00    +0.000 OA
ATOM     33  C   UNL     1      -0.195  13.281  20.599  0.00  0.00    +0.000 C 
ENDBRANCH  31  32
ENDBRANCH  24  26
ENDBRANCH  21  22
ENDBRANCH  20  21
ENDBRANCH   4  20
TORSDOF 10
ENDMDL
