MODEL 1
REMARK VINA RESULT:      -7.6      0.000      0.000
REMARK  Name = 
REMARK  7 active torsions:
REMARK  status: ('A' for Active; 'I' for Inactive)
REMARK    1  A    between atoms: C_1  and  C_2
REMARK    2  A    between atoms: C_3  and  C_4
REMARK    3  A    between atoms: C_4  and  O_6
REMARK    4  A    between atoms: C_8  and  C_9
REMARK    5  A    between atoms: N_16  and  C_17
REMARK    6  A    between atoms: C_20  and  S_21
REMARK    7  A    between atoms: S_21  and  N_22
REMARK                            x       y       z     vdW  Elec       q    Type
REMARK                         _______ _______ _______ _____ _____    ______ ____
ROOT
ATOM      1  C   UNL     1       4.994   7.167  15.848  0.00  0.00    +0.000 C 
ATOM      2  C   UNL     1       4.709   5.847  16.507  0.00  0.00    +0.000 A 
ATOM      3  C   UNL     1       5.278   4.607  16.212  0.00  0.00    +0.000 A 
ATOM      4  C   UNL     1       4.769   3.711  17.191  0.00  0.00    +0.000 A 
ATOM      5  C   UNL     1       3.883   4.370  18.032  0.00  0.00    +0.000 A 
ATOM      6  N   UNL     1       3.858   5.714  17.614  0.00  0.00    +0.000 N 
ENDROOT
BRANCH   5   7
ATOM      7  C   UNL     1       3.080   3.740  19.109  0.00  0.00    +0.000 A 
ATOM      8  C   UNL     1       3.722   3.209  20.241  0.00  0.00    +0.000 A 
ATOM      9  C   UNL     1       2.988   2.664  21.303  0.00  0.00    +0.000 A 
ATOM     10  C   UNL     1       1.598   2.667  21.255  0.00  0.00    +0.000 A 
ATOM     11 CL   UNL     1       0.691   2.070  22.589  0.00  0.00    +0.000 Cl
ATOM     12  C   UNL     1       0.941   3.151  20.130  0.00  0.00    +0.000 A 
ATOM     13  C   UNL     1       1.682   3.638  19.048  0.00  0.00    +0.000 A 
ENDBRANCH   5   7
BRANCH   6  14
ATOM     14  C   UNL     1       3.104   6.775  18.218  0.00  0.00    +0.000 A 
ATOM     15  C   UNL     1       2.788   6.733  19.585  0.00  0.00    +0.000 A 
ATOM     16  C   UNL     1       1.938   7.690  20.144  0.00  0.00    +0.000 A 
ATOM     17  C   UNL     1       1.463   8.735  19.350  0.00  0.00    +0.000 A 
ATOM     18  C   UNL     1       1.799   8.813  17.998  0.00  0.00    +0.000 A 
ATOM     19  C   UNL     1       2.606   7.825  17.431  0.00  0.00    +0.000 A 
BRANCH  17  20
ATOM     20  S   UNL     1       0.402   9.954  20.064  0.00  0.00    +0.000 S 
ATOM     21  O   UNL     1       1.186  11.107  20.443  0.00  0.00    +0.000 OA
ATOM     22  O   UNL     1      -0.802  10.057  19.273  0.00  0.00    +0.000 OA
BRANCH  20  23
ATOM     23  N   UNL     1      -0.036   9.200  21.496  0.00  0.00    +0.000 NA
ATOM     24  H   UNL     1      -0.777   9.727  21.959  0.00  0.00    +0.000 HD
ATOM     25  H   UNL     1      -0.263   8.220  21.323  0.00  0.00    +0.000 HD
ENDBRANCH  20  23
ENDBRANCH  17  20
ENDBRANCH   6  14
BRANCH   3  26
ATOM     26  C   UNL     1       6.215   4.327  15.116  0.00  0.00    +0.000 C 
ATOM     27  O   UNL     1       5.899   3.811  14.047  0.00  0.00    +0.000 OA
BRANCH  26  28
ATOM     28  O   UNL     1       7.509   4.673  15.347  0.00  0.00    +0.000 OA
ATOM     29  H   UNL     1       8.055   3.941  15.676  0.00  0.00    +0.000 HD
ENDBRANCH  26  28
ENDBRANCH   3  26
TORSDOF 6
ENDMDL
MODEL 2
REMARK VINA RESULT:      -7.5      0.393      1.029
REMARK  Name = 
REMARK  7 active torsions:
REMARK  status: ('A' for Active; 'I' for Inactive)
REMARK    1  A    between atoms: C_1  and  C_2
REMARK    2  A    between atoms: C_3  and  C_4
REMARK    3  A    between atoms: C_4  and  O_6
REMARK    4  A    between atoms: C_8  and  C_9
REMARK    5  A    between atoms: N_16  and  C_17
REMARK    6  A    between atoms: C_20  and  S_21
REMARK    7  A    between atoms: S_21  and  N_22
REMARK                            x       y       z     vdW  Elec       q    Type
REMARK                         _______ _______ _______ _____ _____    ______ ____
ROOT
ATOM      1  C   UNL     1       4.908   7.136  15.895  0.00  0.00    +0.000 C 
ATOM      2  C   UNL     1       4.661   5.822  16.583  0.00  0.00    +0.000 A 
ATOM      3  C   UNL     1       5.291   4.601  16.339  0.00  0.00    +0.000 A 
ATOM      4  C   UNL     1       4.793   3.710  17.328  0.00  0.00    +0.000 A 
ATOM      5  C   UNL     1       3.855   4.352  18.124  0.00  0.00    +0.000 A 
ATOM      6  N   UNL     1       3.784   5.682  17.669  0.00  0.00    +0.000 N 
ENDROOT
BRANCH   5   7
ATOM      7  C   UNL     1       3.047   3.716  19.196  0.00  0.00    +0.000 A 
ATOM      8  C   UNL     1       3.684   3.194  20.335  0.00  0.00    +0.000 A 
ATOM      9  C   UNL     1       2.946   2.644  21.390  0.00  0.00    +0.000 A 
ATOM     10  C   UNL     1       1.557   2.634  21.330  0.00  0.00    +0.000 A 
ATOM     11 CL   UNL     1       0.643   2.032  22.657  0.00  0.00    +0.000 Cl
ATOM     12  C   UNL     1       0.905   3.110  20.199  0.00  0.00    +0.000 A 
ATOM     13  C   UNL     1       1.651   3.602  19.122  0.00  0.00    +0.000 A 
ENDBRANCH   5   7
BRANCH   6  14
ATOM     14  C   UNL     1       2.968   6.725  18.221  0.00  0.00    +0.000 A 
ATOM     15  C   UNL     1       2.515   7.777  17.409  0.00  0.00    +0.000 A 
ATOM     16  C   UNL     1       1.841   8.864  17.972  0.00  0.00    +0.000 A 
ATOM     17  C   UNL     1       1.553   8.861  19.337  0.00  0.00    +0.000 A 
ATOM     18  C   UNL     1       1.962   7.805  20.151  0.00  0.00    +0.000 A 
ATOM     19  C   UNL     1       2.681   6.746  19.594  0.00  0.00    +0.000 A 
BRANCH  17  20
ATOM     20  S   UNL     1       0.684  10.229  20.042  0.00  0.00    +0.000 S 
ATOM     21  O   UNL     1       1.275  11.463  19.577  0.00  0.00    +0.000 OA
ATOM     22  O   UNL     1      -0.737   9.973  19.977  0.00  0.00    +0.000 OA
BRANCH  20  23
ATOM     23  N   UNL     1       1.116  10.087  21.656  0.00  0.00    +0.000 NA
ATOM     24  H   UNL     1       0.418   9.541  22.160  0.00  0.00    +0.000 HD
ATOM     25  H   UNL     1       2.068   9.729  21.736  0.00  0.00    +0.000 HD
ENDBRANCH  20  23
ENDBRANCH  17  20
ENDBRANCH   6  14
BRANCH   3  26
ATOM     26  C   UNL     1       6.271   4.333  15.278  0.00  0.00    +0.000 C 
ATOM     27  O   UNL     1       6.005   3.793  14.207  0.00  0.00    +0.000 OA
BRANCH  26  28
ATOM     28  O   UNL     1       7.547   4.718  15.547  0.00  0.00    +0.000 OA
ATOM     29  H   UNL     1       8.180   3.982  15.562  0.00  0.00    +0.000 HD
ENDBRANCH  26  28
ENDBRANCH   3  26
TORSDOF 6
ENDMDL
MODEL 3
REMARK VINA RESULT:      -7.4      3.382      4.875
REMARK  Name = 
REMARK  7 active torsions:
REMARK  status: ('A' for Active; 'I' for Inactive)
REMARK    1  A    between atoms: C_1  and  C_2
REMARK    2  A    between atoms: C_3  and  C_4
REMARK    3  A    between atoms: C_4  and  O_6
REMARK    4  A    between atoms: C_8  and  C_9
REMARK    5  A    between atoms: N_16  and  C_17
REMARK    6  A    between atoms: C_20  and  S_21
REMARK    7  A    between atoms: S_21  and  N_22
REMARK                            x       y       z     vdW  Elec       q    Type
REMARK                         _______ _______ _______ _____ _____    ______ ____
ROOT
ATOM      1  C   UNL     1       1.087   3.912  19.219  0.00  0.00    +0.000 C 
ATOM      2  C   UNL     1       2.553   3.987  18.894  0.00  0.00    +0.000 A 
ATOM      3  C   UNL     1       3.414   2.930  18.593  0.00  0.00    +0.000 A 
ATOM      4  C   UNL     1       4.652   3.534  18.245  0.00  0.00    +0.000 A 
ATOM      5  C   UNL     1       4.565   4.914  18.370  0.00  0.00    +0.000 A 
ATOM      6  N   UNL     1       3.244   5.200  18.761  0.00  0.00    +0.000 N 
ENDROOT
BRANCH   5   7
ATOM      7  C   UNL     1       5.685   5.872  18.188  0.00  0.00    +0.000 A 
ATOM      8  C   UNL     1       5.566   6.919  17.258  0.00  0.00    +0.000 A 
ATOM      9  C   UNL     1       6.580   7.874  17.108  0.00  0.00    +0.000 A 
ATOM     10  C   UNL     1       7.715   7.809  17.908  0.00  0.00    +0.000 A 
ATOM     11 CL   UNL     1       8.926   9.024  17.783  0.00  0.00    +0.000 Cl
ATOM     12  C   UNL     1       7.873   6.762  18.809  0.00  0.00    +0.000 A 
ATOM     13  C   UNL     1       6.885   5.777  18.910  0.00  0.00    +0.000 A 
ENDBRANCH   5   7
BRANCH   6  14
ATOM     14  C   UNL     1       2.687   6.505  18.976  0.00  0.00    +0.000 A 
ATOM     15  C   UNL     1       2.288   6.903  20.262  0.00  0.00    +0.000 A 
ATOM     16  C   UNL     1       1.619   8.114  20.450  0.00  0.00    +0.000 A 
ATOM     17  C   UNL     1       1.415   8.963  19.362  0.00  0.00    +0.000 A 
ATOM     18  C   UNL     1       1.839   8.600  18.084  0.00  0.00    +0.000 A 
ATOM     19  C   UNL     1       2.462   7.365  17.891  0.00  0.00    +0.000 A 
BRANCH  17  20
ATOM     20  S   UNL     1       0.583  10.503  19.607  0.00  0.00    +0.000 S 
ATOM     21  O   UNL     1      -0.830  10.328  19.363  0.00  0.00    +0.000 OA
ATOM     22  O   UNL     1       1.095  11.133  20.802  0.00  0.00    +0.000 OA
BRANCH  20  23
ATOM     23  N   UNL     1       1.170  11.395  18.315  0.00  0.00    +0.000 NA
ATOM     24  H   UNL     1       0.904  10.955  17.434  0.00  0.00    +0.000 HD
ATOM     25  H   UNL     1       0.884  12.370  18.400  0.00  0.00    +0.000 HD
ENDBRANCH  20  23
ENDBRANCH  17  20
ENDBRANCH   6  14
BRANCH   3  26
ATOM     26  C   UNL     1       3.072   1.502  18.628  0.00  0.00    +0.000 C 
ATOM     27  O   UNL     1       1.962   1.061  18.917  0.00  0.00    +0.000 OA
BRANCH  26  28
ATOM     28  O   UNL     1       4.084   0.648  18.322  0.00  0.00    +0.000 OA
ATOM     29  H   UNL     1       3.901  -0.274  18.562  0.00  0.00    +0.000 HD
ENDBRANCH  26  28
ENDBRANCH   3  26
TORSDOF 6
ENDMDL
MODEL 4
REMARK VINA RESULT:      -7.2      3.400      4.942
REMARK  Name = 
REMARK  7 active torsions:
REMARK  status: ('A' for Active; 'I' for Inactive)
REMARK    1  A    between atoms: C_1  and  C_2
REMARK    2  A    between atoms: C_3  and  C_4
REMARK    3  A    between atoms: C_4  and  O_6
REMARK    4  A    between atoms: C_8  and  C_9
REMARK    5  A    between atoms: N_16  and  C_17
REMARK    6  A    between atoms: C_20  and  S_21
REMARK    7  A    between atoms: S_21  and  N_22
REMARK                            x       y       z     vdW  Elec       q    Type
REMARK                         _______ _______ _______ _____ _____    ______ ____
ROOT
ATOM      1  C   UNL     1       1.087   3.842  18.984  0.00  0.00    +0.000 C 
ATOM      2  C   UNL     1       2.569   3.945  18.750  0.00  0.00    +0.000 A 
ATOM      3  C   UNL     1       3.475   2.900  18.560  0.00  0.00    +0.000 A 
ATOM      4  C   UNL     1       4.717   3.523  18.260  0.00  0.00    +0.000 A 
ATOM      5  C   UNL     1       4.586   4.904  18.308  0.00  0.00    +0.000 A 
ATOM      6  N   UNL     1       3.235   5.169  18.598  0.00  0.00    +0.000 N 
ENDROOT
BRANCH   5   7
ATOM      7  C   UNL     1       5.689   5.884  18.148  0.00  0.00    +0.000 A 
ATOM      8  C   UNL     1       5.549   6.956  17.250  0.00  0.00    +0.000 A 
ATOM      9  C   UNL     1       6.546   7.932  17.123  0.00  0.00    +0.000 A 
ATOM     10  C   UNL     1       7.687   7.861  17.914  0.00  0.00    +0.000 A 
ATOM     11 CL   UNL     1       8.878   9.098  17.819  0.00  0.00    +0.000 Cl
ATOM     12  C   UNL     1       7.867   6.790  18.783  0.00  0.00    +0.000 A 
ATOM     13  C   UNL     1       6.895   5.787  18.860  0.00  0.00    +0.000 A 
ENDBRANCH   5   7
BRANCH   6  14
ATOM     14  C   UNL     1       2.631   6.466  18.709  0.00  0.00    +0.000 A 
ATOM     15  C   UNL     1       2.435   7.259  17.567  0.00  0.00    +0.000 A 
ATOM     16  C   UNL     1       1.979   8.573  17.689  0.00  0.00    +0.000 A 
ATOM     17  C   UNL     1       1.646   9.071  18.950  0.00  0.00    +0.000 A 
ATOM     18  C   UNL     1       1.798   8.283  20.091  0.00  0.00    +0.000 A 
ATOM     19  C   UNL     1       2.304   6.988  19.971  0.00  0.00    +0.000 A 
BRANCH  17  20
ATOM     20  S   UNL     1       1.051  10.729  19.099  0.00  0.00    +0.000 S 
ATOM     21  O   UNL     1       0.531  10.933  20.432  0.00  0.00    +0.000 OA
ATOM     22  O   UNL     1       2.000  11.629  18.487  0.00  0.00    +0.000 OA
BRANCH  20  23
ATOM     23  N   UNL     1      -0.281  10.684  18.083  0.00  0.00    +0.000 NA
ATOM     24  H   UNL     1      -0.172   9.941  17.392  0.00  0.00    +0.000 HD
ATOM     25  H   UNL     1      -1.140  10.625  18.630  0.00  0.00    +0.000 HD
ENDBRANCH  20  23
ENDBRANCH  17  20
ENDBRANCH   6  14
BRANCH   3  26
ATOM     26  C   UNL     1       3.170   1.466  18.647  0.00  0.00    +0.000 C 
ATOM     27  O   UNL     1       2.106   1.007  19.055  0.00  0.00    +0.000 OA
BRANCH  26  28
ATOM     28  O   UNL     1       4.162   0.629  18.246  0.00  0.00    +0.000 OA
ATOM     29  H   UNL     1       4.735   1.006  17.559  0.00  0.00    +0.000 HD
ENDBRANCH  26  28
ENDBRANCH   3  26
TORSDOF 6
ENDMDL
MODEL 5
REMARK VINA RESULT:      -7.0      0.744      1.307
REMARK  Name = 
REMARK  7 active torsions:
REMARK  status: ('A' for Active; 'I' for Inactive)
REMARK    1  A    between atoms: C_1  and  C_2
REMARK    2  A    between atoms: C_3  and  C_4
REMARK    3  A    between atoms: C_4  and  O_6
REMARK    4  A    between atoms: C_8  and  C_9
REMARK    5  A    between atoms: N_16  and  C_17
REMARK    6  A    between atoms: C_20  and  S_21
REMARK    7  A    between atoms: S_21  and  N_22
REMARK                            x       y       z     vdW  Elec       q    Type
REMARK                         _______ _______ _______ _____ _____    ______ ____
ROOT
ATOM      1  C   UNL     1       4.972   7.136  15.832  0.00  0.00    +0.000 C 
ATOM      2  C   UNL     1       4.698   5.855  16.570  0.00  0.00    +0.000 A 
ATOM      3  C   UNL     1       5.276   4.604  16.348  0.00  0.00    +0.000 A 
ATOM      4  C   UNL     1       4.776   3.764  17.380  0.00  0.00    +0.000 A 
ATOM      5  C   UNL     1       3.887   4.467  18.182  0.00  0.00    +0.000 A 
ATOM      6  N   UNL     1       3.851   5.782  17.685  0.00  0.00    +0.000 N 
ENDROOT
BRANCH   5   7
ATOM      7  C   UNL     1       3.091   3.896  19.298  0.00  0.00    +0.000 A 
ATOM      8  C   UNL     1       1.698   3.758  19.164  0.00  0.00    +0.000 A 
ATOM      9  C   UNL     1       0.928   3.166  20.174  0.00  0.00    +0.000 A 
ATOM     10  C   UNL     1       1.547   2.681  21.321  0.00  0.00    +0.000 A 
ATOM     11 CL   UNL     1       0.617   1.884  22.528  0.00  0.00    +0.000 Cl
ATOM     12  C   UNL     1       2.917   2.839  21.493  0.00  0.00    +0.000 A 
ATOM     13  C   UNL     1       3.672   3.486  20.508  0.00  0.00    +0.000 A 
ENDBRANCH   5   7
BRANCH   6  14
ATOM     14  C   UNL     1       3.090   6.872  18.226  0.00  0.00    +0.000 A 
ATOM     15  C   UNL     1       2.764   6.902  19.591  0.00  0.00    +0.000 A 
ATOM     16  C   UNL     1       1.907   7.885  20.092  0.00  0.00    +0.000 A 
ATOM     17  C   UNL     1       1.436   8.885  19.240  0.00  0.00    +0.000 A 
ATOM     18  C   UNL     1       1.782   8.893  17.889  0.00  0.00    +0.000 A 
ATOM     19  C   UNL     1       2.597   7.878  17.381  0.00  0.00    +0.000 A 
BRANCH  17  20
ATOM     20  S   UNL     1       0.367  10.138  19.881  0.00  0.00    +0.000 S 
ATOM     21  O   UNL     1      -0.362   9.612  21.012  0.00  0.00    +0.000 OA
ATOM     22  O   UNL     1       1.084  11.392  19.931  0.00  0.00    +0.000 OA
BRANCH  20  23
ATOM     23  N   UNL     1      -0.745  10.279  18.635  0.00  0.00    +0.000 NA
ATOM     24  H   UNL     1      -1.181   9.376  18.449  0.00  0.00    +0.000 HD
ATOM     25  H   UNL     1      -1.406  11.030  18.836  0.00  0.00    +0.000 HD
ENDBRANCH  20  23
ENDBRANCH  17  20
ENDBRANCH   6  14
BRANCH   3  26
ATOM     26  C   UNL     1       6.213   4.266  15.269  0.00  0.00    +0.000 C 
ATOM     27  O   UNL     1       5.899   3.684  14.234  0.00  0.00    +0.000 OA
BRANCH  26  28
ATOM     28  O   UNL     1       7.505   4.635  15.476  0.00  0.00    +0.000 OA
ATOM     29  H   UNL     1       8.140   3.910  15.359  0.00  0.00    +0.000 HD
ENDBRANCH  26  28
ENDBRANCH   3  26
TORSDOF 6
ENDMDL
MODEL 6
REMARK VINA RESULT:      -6.9      0.260      1.149
REMARK  Name = 
REMARK  7 active torsions:
REMARK  status: ('A' for Active; 'I' for Inactive)
REMARK    1  A    between atoms: C_1  and  C_2
REMARK    2  A    between atoms: C_3  and  C_4
REMARK    3  A    between atoms: C_4  and  O_6
REMARK    4  A    between atoms: C_8  and  C_9
REMARK    5  A    between atoms: N_16  and  C_17
REMARK    6  A    between atoms: C_20  and  S_21
REMARK    7  A    between atoms: S_21  and  N_22
REMARK                            x       y       z     vdW  Elec       q    Type
REMARK                         _______ _______ _______ _____ _____    ______ ____
ROOT
ATOM      1  C   UNL     1       5.067   7.099  15.860  0.00  0.00    +0.000 C 
ATOM      2  C   UNL     1       4.791   5.824  16.607  0.00  0.00    +0.000 A 
ATOM      3  C   UNL     1       5.386   4.576  16.412  0.00  0.00    +0.000 A 
ATOM      4  C   UNL     1       4.873   3.743  17.444  0.00  0.00    +0.000 A 
ATOM      5  C   UNL     1       3.960   4.446  18.219  0.00  0.00    +0.000 A 
ATOM      6  N   UNL     1       3.921   5.755  17.706  0.00  0.00    +0.000 N 
ENDROOT
BRANCH   5   7
ATOM      7  C   UNL     1       3.147   3.880  19.324  0.00  0.00    +0.000 A 
ATOM      8  C   UNL     1       1.751   3.784  19.188  0.00  0.00    +0.000 A 
ATOM      9  C   UNL     1       0.963   3.198  20.187  0.00  0.00    +0.000 A 
ATOM     10  C   UNL     1       1.567   2.676  21.326  0.00  0.00    +0.000 A 
ATOM     11 CL   UNL     1       0.613   1.886  22.519  0.00  0.00    +0.000 Cl
ATOM     12  C   UNL     1       2.941   2.792  21.501  0.00  0.00    +0.000 A 
ATOM     13  C   UNL     1       3.715   3.433  20.527  0.00  0.00    +0.000 A 
ENDBRANCH   5   7
BRANCH   6  14
ATOM     14  C   UNL     1       3.139   6.844  18.219  0.00  0.00    +0.000 A 
ATOM     15  C   UNL     1       2.783   6.885  19.576  0.00  0.00    +0.000 A 
ATOM     16  C   UNL     1       1.906   7.865  20.047  0.00  0.00    +0.000 A 
ATOM     17  C   UNL     1       1.444   8.851  19.174  0.00  0.00    +0.000 A 
ATOM     18  C   UNL     1       1.819   8.847  17.830  0.00  0.00    +0.000 A 
ATOM     19  C   UNL     1       2.654   7.835  17.352  0.00  0.00    +0.000 A 
BRANCH  17  20
ATOM     20  S   UNL     1       0.350  10.100  19.778  0.00  0.00    +0.000 S 
ATOM     21  O   UNL     1       1.112  11.281  20.117  0.00  0.00    +0.000 OA
ATOM     22  O   UNL     1      -0.826  10.146  18.940  0.00  0.00    +0.000 OA
BRANCH  20  23
ATOM     23  N   UNL     1      -0.134   9.426  21.234  0.00  0.00    +0.000 NA
ATOM     24  H   UNL     1      -1.093   9.701  21.448  0.00  0.00    +0.000 HD
ATOM     25  H   UNL     1       0.022   8.418  21.226  0.00  0.00    +0.000 HD
ENDBRANCH  20  23
ENDBRANCH  17  20
ENDBRANCH   6  14
BRANCH   3  26
ATOM     26  C   UNL     1       6.348   4.235  15.356  0.00  0.00    +0.000 C 
ATOM     27  O   UNL     1       7.462   4.739  15.243  0.00  0.00    +0.000 OA
BRANCH  26  28
ATOM     28  O   UNL     1       5.931   3.301  14.461  0.00  0.00    +0.000 OA
ATOM     29  H   UNL     1       5.014   3.013  14.599  0.00  0.00    +0.000 HD
ENDBRANCH  26  28
ENDBRANCH   3  26
TORSDOF 6
ENDMDL
MODEL 7
REMARK VINA RESULT:      -6.9      0.814      1.707
REMARK  Name = 
REMARK  7 active torsions:
REMARK  status: ('A' for Active; 'I' for Inactive)
REMARK    1  A    between atoms: C_1  and  C_2
REMARK    2  A    between atoms: C_3  and  C_4
REMARK    3  A    between atoms: C_4  and  O_6
REMARK    4  A    between atoms: C_8  and  C_9
REMARK    5  A    between atoms: N_16  and  C_17
REMARK    6  A    between atoms: C_20  and  S_21
REMARK    7  A    between atoms: S_21  and  N_22
REMARK                            x       y       z     vdW  Elec       q    Type
REMARK                         _______ _______ _______ _____ _____    ______ ____
ROOT
ATOM      1  C   UNL     1       4.836   7.180  15.901  0.00  0.00    +0.000 C 
ATOM      2  C   UNL     1       4.602   5.901  16.655  0.00  0.00    +0.000 A 
ATOM      3  C   UNL     1       5.238   4.673  16.466  0.00  0.00    +0.000 A 
ATOM      4  C   UNL     1       4.753   3.829  17.503  0.00  0.00    +0.000 A 
ATOM      5  C   UNL     1       3.818   4.505  18.275  0.00  0.00    +0.000 A 
ATOM      6  N   UNL     1       3.736   5.810  17.755  0.00  0.00    +0.000 N 
ENDROOT
BRANCH   5   7
ATOM      7  C   UNL     1       3.025   3.919  19.384  0.00  0.00    +0.000 A 
ATOM      8  C   UNL     1       1.647   3.692  19.215  0.00  0.00    +0.000 A 
ATOM      9  C   UNL     1       0.884   3.083  20.219  0.00  0.00    +0.000 A 
ATOM     10  C   UNL     1       1.496   2.669  21.397  0.00  0.00    +0.000 A 
ATOM     11 CL   UNL     1       0.580   1.851  22.601  0.00  0.00    +0.000 Cl
ATOM     12  C   UNL     1       2.849   2.916  21.604  0.00  0.00    +0.000 A 
ATOM     13  C   UNL     1       3.592   3.580  20.622  0.00  0.00    +0.000 A 
ENDBRANCH   5   7
BRANCH   6  14
ATOM     14  C   UNL     1       2.918   6.875  18.262  0.00  0.00    +0.000 A 
ATOM     15  C   UNL     1       2.502   7.914  17.416  0.00  0.00    +0.000 A 
ATOM     16  C   UNL     1       1.827   9.021  17.937  0.00  0.00    +0.000 A 
ATOM     17  C   UNL     1       1.501   9.052  19.294  0.00  0.00    +0.000 A 
ATOM     18  C   UNL     1       1.874   8.008  20.141  0.00  0.00    +0.000 A 
ATOM     19  C   UNL     1       2.595   6.928  19.626  0.00  0.00    +0.000 A 
BRANCH  17  20
ATOM     20  S   UNL     1       0.631  10.445  19.945  0.00  0.00    +0.000 S 
ATOM     21  O   UNL     1      -0.773  10.324  19.625  0.00  0.00    +0.000 OA
ATOM     22  O   UNL     1       1.104  10.716  21.283  0.00  0.00    +0.000 OA
BRANCH  20  23
ATOM     23  N   UNL     1       1.224  11.677  18.976  0.00  0.00    +0.000 NA
ATOM     24  H   UNL     1       0.904  11.553  18.014  0.00  0.00    +0.000 HD
ATOM     25  H   UNL     1       0.995  12.585  19.380  0.00  0.00    +0.000 HD
ENDBRANCH  20  23
ENDBRANCH  17  20
ENDBRANCH   6  14
BRANCH   3  26
ATOM     26  C   UNL     1       6.210   4.358  15.412  0.00  0.00    +0.000 C 
ATOM     27  O   UNL     1       5.916   3.898  14.311  0.00  0.00    +0.000 OA
BRANCH  26  28
ATOM     28  O   UNL     1       7.511   4.601  15.721  0.00  0.00    +0.000 OA
ATOM     29  H   UNL     1       7.641   5.399  16.258  0.00  0.00    +0.000 HD
ENDBRANCH  26  28
ENDBRANCH   3  26
TORSDOF 6
ENDMDL
MODEL 8
REMARK VINA RESULT:      -6.8      0.525      1.554
REMARK  Name = 
REMARK  7 active torsions:
REMARK  status: ('A' for Active; 'I' for Inactive)
REMARK    1  A    between atoms: C_1  and  C_2
REMARK    2  A    between atoms: C_3  and  C_4
REMARK    3  A    between atoms: C_4  and  O_6
REMARK    4  A    between atoms: C_8  and  C_9
REMARK    5  A    between atoms: N_16  and  C_17
REMARK    6  A    between atoms: C_20  and  S_21
REMARK    7  A    between atoms: S_21  and  N_22
REMARK                            x       y       z     vdW  Elec       q    Type
REMARK                         _______ _______ _______ _____ _____    ______ ____
ROOT
ATOM      1  C   UNL     1       4.966   7.112  15.926  0.00  0.00    +0.000 C 
ATOM      2  C   UNL     1       4.713   5.844  16.693  0.00  0.00    +0.000 A 
ATOM      3  C   UNL     1       5.357   4.615  16.542  0.00  0.00    +0.000 A 
ATOM      4  C   UNL     1       4.844   3.786  17.577  0.00  0.00    +0.000 A 
ATOM      5  C   UNL     1       3.885   4.472  18.310  0.00  0.00    +0.000 A 
ATOM      6  N   UNL     1       3.815   5.768  17.768  0.00  0.00    +0.000 N 
ENDROOT
BRANCH   5   7
ATOM      7  C   UNL     1       3.060   3.900  19.405  0.00  0.00    +0.000 A 
ATOM      8  C   UNL     1       1.695   3.640  19.189  0.00  0.00    +0.000 A 
ATOM      9  C   UNL     1       0.906   3.044  20.181  0.00  0.00    +0.000 A 
ATOM     10  C   UNL     1       1.479   2.677  21.393  0.00  0.00    +0.000 A 
ATOM     11 CL   UNL     1       0.533   1.874  22.584  0.00  0.00    +0.000 Cl
ATOM     12  C   UNL     1       2.817   2.958  21.645  0.00  0.00    +0.000 A 
ATOM     13  C   UNL     1       3.585   3.609  20.673  0.00  0.00    +0.000 A 
ENDBRANCH   5   7
BRANCH   6  14
ATOM     14  C   UNL     1       2.980   6.838  18.234  0.00  0.00    +0.000 A 
ATOM     15  C   UNL     1       2.572   7.854  17.356  0.00  0.00    +0.000 A 
ATOM     16  C   UNL     1       1.879   8.968  17.837  0.00  0.00    +0.000 A 
ATOM     17  C   UNL     1       1.527   9.028  19.186  0.00  0.00    +0.000 A 
ATOM     18  C   UNL     1       1.891   8.007  20.065  0.00  0.00    +0.000 A 
ATOM     19  C   UNL     1       2.629   6.921  19.590  0.00  0.00    +0.000 A 
BRANCH  17  20
ATOM     20  S   UNL     1       0.634  10.430  19.788  0.00  0.00    +0.000 S 
ATOM     21  O   UNL     1       1.226  11.637  19.258  0.00  0.00    +0.000 OA
ATOM     22  O   UNL     1      -0.782  10.158  19.711  0.00  0.00    +0.000 OA
BRANCH  20  23
ATOM     23  N   UNL     1       1.035  10.391  21.415  0.00  0.00    +0.000 NA
ATOM     24  H   UNL     1       0.279   9.968  21.954  0.00  0.00    +0.000 HD
ATOM     25  H   UNL     1       1.943   9.945  21.544  0.00  0.00    +0.000 HD
ENDBRANCH  20  23
ENDBRANCH  17  20
ENDBRANCH   6  14
BRANCH   3  26
ATOM     26  C   UNL     1       6.361   4.287  15.522  0.00  0.00    +0.000 C 
ATOM     27  O   UNL     1       7.485   4.779  15.470  0.00  0.00    +0.000 OA
BRANCH  26  28
ATOM     28  O   UNL     1       5.973   3.379  14.588  0.00  0.00    +0.000 OA
ATOM     29  H   UNL     1       5.020   3.195  14.596  0.00  0.00    +0.000 HD
ENDBRANCH  26  28
ENDBRANCH   3  26
TORSDOF 6
ENDMDL
MODEL 9
REMARK VINA RESULT:      -6.8      5.478      8.797
REMARK  Name = 
REMARK  7 active torsions:
REMARK  status: ('A' for Active; 'I' for Inactive)
REMARK    1  A    between atoms: C_1  and  C_2
REMARK    2  A    between atoms: C_3  and  C_4
REMARK    3  A    between atoms: C_4  and  O_6
REMARK    4  A    between atoms: C_8  and  C_9
REMARK    5  A    between atoms: N_16  and  C_17
REMARK    6  A    between atoms: C_20  and  S_21
REMARK    7  A    between atoms: S_21  and  N_22
REMARK                            x       y       z     vdW  Elec       q    Type
REMARK                         _______ _______ _______ _____ _____    ______ ____
ROOT
ATOM      1  C   UNL     1      -1.024  14.859  20.130  0.00  0.00    +0.000 C 
ATOM      2  C   UNL     1      -1.016  13.363  19.981  0.00  0.00    +0.000 A 
ATOM      3  C   UNL     1      -2.109  12.497  20.027  0.00  0.00    +0.000 A 
ATOM      4  C   UNL     1      -1.591  11.212  19.711  0.00  0.00    +0.000 A 
ATOM      5  C   UNL     1      -0.217  11.281  19.522  0.00  0.00    +0.000 A 
ATOM      6  N   UNL     1       0.142  12.633  19.673  0.00  0.00    +0.000 N 
ENDROOT
BRANCH   5   7
ATOM      7  C   UNL     1       0.682  10.126  19.276  0.00  0.00    +0.000 A 
ATOM      8  C   UNL     1       0.985   9.240  20.325  0.00  0.00    +0.000 A 
ATOM      9  C   UNL     1       1.780   8.106  20.110  0.00  0.00    +0.000 A 
ATOM     10  C   UNL     1       2.261   7.832  18.835  0.00  0.00    +0.000 A 
ATOM     11 CL   UNL     1       3.172   6.401  18.549  0.00  0.00    +0.000 Cl
ATOM     12  C   UNL     1       2.008   8.712  17.789  0.00  0.00    +0.000 A 
ATOM     13  C   UNL     1       1.264   9.874  18.024  0.00  0.00    +0.000 A 
ENDBRANCH   5   7
BRANCH   6  14
ATOM     14  C   UNL     1       1.460  13.182  19.529  0.00  0.00    +0.000 A 
ATOM     15  C   UNL     1       2.239  13.465  20.661  0.00  0.00    +0.000 A 
ATOM     16  C   UNL     1       3.462  14.128  20.530  0.00  0.00    +0.000 A 
ATOM     17  C   UNL     1       3.941  14.440  19.257  0.00  0.00    +0.000 A 
ATOM     18  C   UNL     1       3.196  14.131  18.118  0.00  0.00    +0.000 A 
ATOM     19  C   UNL     1       1.950  13.516  18.257  0.00  0.00    +0.000 A 
BRANCH  17  20
ATOM     20  S   UNL     1       5.497  15.262  19.093  0.00  0.00    +0.000 S 
ATOM     21  O   UNL     1       6.276  15.054  20.292  0.00  0.00    +0.000 OA
ATOM     22  O   UNL     1       6.024  15.020  17.770  0.00  0.00    +0.000 OA
BRANCH  20  23
ATOM     23  N   UNL     1       5.017  16.868  19.124  0.00  0.00    +0.000 NA
ATOM     24  H   UNL     1       4.149  16.986  18.601  0.00  0.00    +0.000 HD
ATOM     25  H   UNL     1       4.976  17.205  20.086  0.00  0.00    +0.000 HD
ENDBRANCH  20  23
ENDBRANCH  17  20
ENDBRANCH   6  14
BRANCH   3  26
ATOM     26  C   UNL     1      -3.496  12.874  20.329  0.00  0.00    +0.000 C 
ATOM     27  O   UNL     1      -3.918  13.123  21.456  0.00  0.00    +0.000 OA
BRANCH  26  28
ATOM     28  O   UNL     1      -4.335  12.931  19.262  0.00  0.00    +0.000 OA
ATOM     29  H   UNL     1      -5.108  13.500  19.404  0.00  0.00    +0.000 HD
ENDBRANCH  26  28
ENDBRANCH   3  26
TORSDOF 6
ENDMDL
