MODEL 1
REMARK VINA RESULT:      -8.8      0.000      0.000
REMARK  Name = 
REMARK  7 active torsions:
REMARK  status: ('A' for Active; 'I' for Inactive)
REMARK    1  A    between atoms: C_1  and  C_2
REMARK    2  A    between atoms: C_8  and  C_9
REMARK    3  A    between atoms: C_9  and  C_10
REMARK    4  A    between atoms: C_9  and  C_11
REMARK    5  A    between atoms: N_13  and  C_14
REMARK    6  A    between atoms: C_19  and  C_20
REMARK    7  A    between atoms: C_29  and  C_30
REMARK                            x       y       z     vdW  Elec       q    Type
REMARK                         _______ _______ _______ _____ _____    ______ ____
ROOT
ATOM      1  C   UNL     1       1.643   8.381  19.611  0.00  0.00    +0.000 C 
ATOM      2  O   UNL     1       1.679   8.224  18.390  0.00  0.00    +0.000 OA
ATOM      3  N   UNL     1       1.819   7.347  20.518  0.00  0.00    +0.000 N 
ATOM      4  H   UNL     1       1.296   7.409  21.382  0.00  0.00    +0.000 HD
ENDROOT
BRANCH   3   5
ATOM      5  C   UNL     1       2.210   6.061  20.095  0.00  0.00    +0.000 A 
ATOM      6  C   UNL     1       1.537   4.924  20.534  0.00  0.00    +0.000 A 
ATOM      7  C   UNL     1       1.920   3.671  20.063  0.00  0.00    +0.000 A 
ATOM      8  C   UNL     1       3.010   3.541  19.192  0.00  0.00    +0.000 A 
ATOM      9 CL   UNL     1       3.307   1.934  18.613  0.00  0.00    +0.000 Cl
ATOM     10  C   UNL     1       3.757   4.668  18.784  0.00  0.00    +0.000 A 
ATOM     11  C   UNL     1       3.284   5.934  19.211  0.00  0.00    +0.000 A 
BRANCH  10  12
ATOM     12  C   UNL     1       4.994   4.620  17.967  0.00  0.00    +0.000 A 
ATOM     13  C   UNL     1       5.010   4.407  16.587  0.00  0.00    +0.000 A 
ATOM     14  C   UNL     1       6.223   4.391  15.900  0.00  0.00    +0.000 A 
ATOM     15  C   UNL     1       7.406   4.528  16.611  0.00  0.00    +0.000 A 
ATOM     16  C   UNL     1       7.320   4.673  17.983  0.00  0.00    +0.000 A 
ATOM     17  N   UNL     1       6.155   4.728  18.667  0.00  0.00    +0.000 NA
ENDBRANCH  10  12
ENDBRANCH   3   5
BRANCH   1  18
ATOM     18  C   UNL     1       1.337   9.739  20.251  0.00  0.00    +0.000 C 
ATOM     19  C   UNL     1       0.140   9.542  21.191  0.00  0.00    +0.000 C 
BRANCH  18  27
ATOM     20  C   UNL     1      -3.307   9.481  17.523  0.00  0.00    +0.000 C 
ATOM     21  C   UNL     1      -2.479  10.535  18.201  0.00  0.00    +0.000 A 
ATOM     22  C   UNL     1      -3.058  11.718  18.627  0.00  0.00    +0.000 A 
ATOM     23  C   UNL     1      -2.247  12.669  19.232  0.00  0.00    +0.000 A 
ATOM     24  C   UNL     1      -0.878  12.425  19.403  0.00  0.00    +0.000 A 
ATOM     25  C   UNL     1      -0.372  11.191  18.971  0.00  0.00    +0.000 A 
ATOM     26  N   UNL     1      -1.163  10.267  18.366  0.00  0.00    +0.000 NA
ATOM     27  C   UNL     1       1.098  10.808  19.133  0.00  0.00    +0.000 C 
ATOM     28  C   UNL     1       1.955  12.080  19.354  0.00  0.00    +0.000 C 
ATOM     29  C   UNL     1       1.354  12.975  20.431  0.00  0.00    +0.000 C 
ATOM     30  C   UNL     1      -0.005  13.515  19.983  0.00  0.00    +0.000 C 
ATOM     31  C   UNL     1       0.173  14.661  18.974  0.00  0.00    +0.000 C 
ENDBRANCH  18  27
ENDBRANCH   1  18
TORSDOF 4
ENDMDL
MODEL 2
REMARK VINA RESULT:      -8.8      1.461      2.622
REMARK  Name = 
REMARK  7 active torsions:
REMARK  status: ('A' for Active; 'I' for Inactive)
REMARK    1  A    between atoms: C_1  and  C_2
REMARK    2  A    between atoms: C_8  and  C_9
REMARK    3  A    between atoms: C_9  and  C_10
REMARK    4  A    between atoms: C_9  and  C_11
REMARK    5  A    between atoms: N_13  and  C_14
REMARK    6  A    between atoms: C_19  and  C_20
REMARK    7  A    between atoms: C_29  and  C_30
REMARK                            x       y       z     vdW  Elec       q    Type
REMARK                         _______ _______ _______ _____ _____    ______ ____
ROOT
ATOM      1  C   UNL     1       1.706   8.859  18.240  0.00  0.00    +0.000 C 
ATOM      2  O   UNL     1       2.347   8.503  17.251  0.00  0.00    +0.000 OA
ATOM      3  N   UNL     1       1.523   8.060  19.359  0.00  0.00    +0.000 N 
ATOM      4  H   UNL     1       0.642   8.160  19.847  0.00  0.00    +0.000 HD
ENDROOT
BRANCH   3   5
ATOM      5  C   UNL     1       2.200   6.832  19.499  0.00  0.00    +0.000 A 
ATOM      6  C   UNL     1       1.912   5.969  20.554  0.00  0.00    +0.000 A 
ATOM      7  C   UNL     1       2.567   4.743  20.640  0.00  0.00    +0.000 A 
ATOM      8  C   UNL     1       3.550   4.394  19.703  0.00  0.00    +0.000 A 
ATOM      9 CL   UNL     1       4.207   2.799  19.880  0.00  0.00    +0.000 Cl
ATOM     10  C   UNL     1       3.914   5.278  18.664  0.00  0.00    +0.000 A 
ATOM     11  C   UNL     1       3.165   6.476  18.555  0.00  0.00    +0.000 A 
BRANCH  10  12
ATOM     12  C   UNL     1       5.021   5.053  17.703  0.00  0.00    +0.000 A 
ATOM     13  C   UNL     1       4.832   4.725  16.358  0.00  0.00    +0.000 A 
ATOM     14  C   UNL     1       5.936   4.545  15.525  0.00  0.00    +0.000 A 
ATOM     15  C   UNL     1       7.211   4.635  16.061  0.00  0.00    +0.000 A 
ATOM     16  C   UNL     1       7.325   4.900  17.413  0.00  0.00    +0.000 A 
ATOM     17  N   UNL     1       6.272   5.115  18.234  0.00  0.00    +0.000 NA
ENDBRANCH  10  12
ENDBRANCH   3   5
BRANCH   1  18
ATOM     18  C   UNL     1       0.990  10.212  18.305  0.00  0.00    +0.000 C 
ATOM     19  C   UNL     1       1.824  11.127  19.212  0.00  0.00    +0.000 C 
BRANCH  18  27
ATOM     20  C   UNL     1       0.206   9.390  23.576  0.00  0.00    +0.000 C 
ATOM     21  C   UNL     1      -0.386  10.240  22.489  0.00  0.00    +0.000 A 
ATOM     22  C   UNL     1      -1.074  11.401  22.800  0.00  0.00    +0.000 A 
ATOM     23  C   UNL     1      -1.619  12.142  21.760  0.00  0.00    +0.000 A 
ATOM     24  C   UNL     1      -1.468  11.718  20.433  0.00  0.00    +0.000 A 
ATOM     25  C   UNL     1      -0.734  10.547  20.198  0.00  0.00    +0.000 A 
ATOM     26  N   UNL     1      -0.213   9.814  21.216  0.00  0.00    +0.000 NA
ATOM     27  C   UNL     1      -0.483  10.008  18.791  0.00  0.00    +0.000 C 
ATOM     28  C   UNL     1      -1.510  10.615  17.801  0.00  0.00    +0.000 C 
ATOM     29  C   UNL     1      -1.600  12.128  17.952  0.00  0.00    +0.000 C 
ATOM     30  C   UNL     1      -2.149  12.498  19.331  0.00  0.00    +0.000 C 
ATOM     31  C   UNL     1      -3.671  12.291  19.381  0.00  0.00    +0.000 C 
ENDBRANCH  18  27
ENDBRANCH   1  18
TORSDOF 4
ENDMDL
MODEL 3
REMARK VINA RESULT:      -8.3      2.147      4.181
REMARK  Name = 
REMARK  7 active torsions:
REMARK  status: ('A' for Active; 'I' for Inactive)
REMARK    1  A    between atoms: C_1  and  C_2
REMARK    2  A    between atoms: C_8  and  C_9
REMARK    3  A    between atoms: C_9  and  C_10
REMARK    4  A    between atoms: C_9  and  C_11
REMARK    5  A    between atoms: N_13  and  C_14
REMARK    6  A    between atoms: C_19  and  C_20
REMARK    7  A    between atoms: C_29  and  C_30
REMARK                            x       y       z     vdW  Elec       q    Type
REMARK                         _______ _______ _______ _____ _____    ______ ____
ROOT
ATOM      1  C   UNL     1       1.133   9.626  18.676  0.00  0.00    +0.000 C 
ATOM      2  O   UNL     1       1.516   9.486  19.839  0.00  0.00    +0.000 OA
ATOM      3  N   UNL     1       1.645   8.901  17.611  0.00  0.00    +0.000 N 
ATOM      4  H   UNL     1       1.693   9.378  16.720  0.00  0.00    +0.000 HD
ENDROOT
BRANCH   3   5
ATOM      5  C   UNL     1       2.541   7.833  17.817  0.00  0.00    +0.000 A 
ATOM      6  C   UNL     1       3.805   7.832  17.231  0.00  0.00    +0.000 A 
ATOM      7  C   UNL     1       4.684   6.783  17.488  0.00  0.00    +0.000 A 
ATOM      8  C   UNL     1       4.288   5.704  18.291  0.00  0.00    +0.000 A 
ATOM      9 CL   UNL     1       5.519   4.524  18.604  0.00  0.00    +0.000 Cl
ATOM     10  C   UNL     1       2.989   5.642  18.842  0.00  0.00    +0.000 A 
ATOM     11  C   UNL     1       2.154   6.768  18.632  0.00  0.00    +0.000 A 
BRANCH  10  12
ATOM     12  C   UNL     1       2.438   4.491  19.598  0.00  0.00    +0.000 A 
ATOM     13  C   UNL     1       1.684   3.468  19.020  0.00  0.00    +0.000 A 
ATOM     14  C   UNL     1       1.217   2.417  19.810  0.00  0.00    +0.000 A 
ATOM     15  C   UNL     1       1.461   2.435  21.174  0.00  0.00    +0.000 A 
ATOM     16  C   UNL     1       2.160   3.511  21.690  0.00  0.00    +0.000 A 
ATOM     17  N   UNL     1       2.654   4.523  20.941  0.00  0.00    +0.000 NA
ENDBRANCH  10  12
ENDBRANCH   3   5
BRANCH   1  18
ATOM     18  C   UNL     1       0.081  10.669  18.284  0.00  0.00    +0.000 C 
ATOM     19  C   UNL     1       0.579  12.031  18.787  0.00  0.00    +0.000 C 
BRANCH  18  27
ATOM     20  C   UNL     1      -1.320  12.649  23.100  0.00  0.00    +0.000 C 
ATOM     21  C   UNL     1      -1.948  12.485  21.746  0.00  0.00    +0.000 A 
ATOM     22  C   UNL     1      -3.008  13.288  21.361  0.00  0.00    +0.000 A 
ATOM     23  C   UNL     1      -3.567  13.085  20.106  0.00  0.00    +0.000 A 
ATOM     24  C   UNL     1      -3.060  12.093  19.258  0.00  0.00    +0.000 A 
ATOM     25  C   UNL     1      -1.965  11.341  19.708  0.00  0.00    +0.000 A 
ATOM     26  N   UNL     1      -1.428  11.528  20.941  0.00  0.00    +0.000 NA
ATOM     27  C   UNL     1      -1.315  10.252  18.856  0.00  0.00    +0.000 C 
ATOM     28  C   UNL     1      -2.289   9.804  17.737  0.00  0.00    +0.000 C 
ATOM     29  C   UNL     1      -2.875  10.999  16.997  0.00  0.00    +0.000 C 
ATOM     30  C   UNL     1      -3.746  11.837  17.934  0.00  0.00    +0.000 C 
ATOM     31  C   UNL     1      -5.110  11.163  18.153  0.00  0.00    +0.000 C 
ENDBRANCH  18  27
ENDBRANCH   1  18
TORSDOF 4
ENDMDL
MODEL 4
REMARK VINA RESULT:      -8.2      2.250      2.806
REMARK  Name = 
REMARK  7 active torsions:
REMARK  status: ('A' for Active; 'I' for Inactive)
REMARK    1  A    between atoms: C_1  and  C_2
REMARK    2  A    between atoms: C_8  and  C_9
REMARK    3  A    between atoms: C_9  and  C_10
REMARK    4  A    between atoms: C_9  and  C_11
REMARK    5  A    between atoms: N_13  and  C_14
REMARK    6  A    between atoms: C_19  and  C_20
REMARK    7  A    between atoms: C_29  and  C_30
REMARK                            x       y       z     vdW  Elec       q    Type
REMARK                         _______ _______ _______ _____ _____    ______ ____
ROOT
ATOM      1  C   UNL     1       0.543   8.311  21.419  0.00  0.00    +0.000 C 
ATOM      2  O   UNL     1      -0.505   7.675  21.298  0.00  0.00    +0.000 OA
ATOM      3  N   UNL     1       1.785   7.811  21.058  0.00  0.00    +0.000 N 
ATOM      4  H   UNL     1       2.574   8.110  21.618  0.00  0.00    +0.000 HD
ENDROOT
BRANCH   3   5
ATOM      5  C   UNL     1       1.910   6.583  20.378  0.00  0.00    +0.000 A 
ATOM      6  C   UNL     1       1.263   5.438  20.837  0.00  0.00    +0.000 A 
ATOM      7  C   UNL     1       1.371   4.250  20.118  0.00  0.00    +0.000 A 
ATOM      8  C   UNL     1       2.167   4.186  18.966  0.00  0.00    +0.000 A 
ATOM      9 CL   UNL     1       2.126   2.671  18.123  0.00  0.00    +0.000 Cl
ATOM     10  C   UNL     1       2.892   5.310  18.516  0.00  0.00    +0.000 A 
ATOM     11  C   UNL     1       2.688   6.523  19.220  0.00  0.00    +0.000 A 
BRANCH  10  12
ATOM     12  C   UNL     1       3.853   5.309  17.386  0.00  0.00    +0.000 A 
ATOM     13  C   UNL     1       4.335   4.150  16.773  0.00  0.00    +0.000 A 
ATOM     14  C   UNL     1       5.228   4.247  15.707  0.00  0.00    +0.000 A 
ATOM     15  C   UNL     1       5.672   5.498  15.307  0.00  0.00    +0.000 A 
ATOM     16  C   UNL     1       5.203   6.600  15.998  0.00  0.00    +0.000 A 
ATOM     17  N   UNL     1       4.309   6.534  17.011  0.00  0.00    +0.000 NA
ENDBRANCH  10  12
ENDBRANCH   3   5
BRANCH   1  18
ATOM     18  C   UNL     1       0.581   9.710  22.040  0.00  0.00    +0.000 C 
ATOM     19  C   UNL     1      -0.041   9.606  23.440  0.00  0.00    +0.000 C 
BRANCH  18  27
ATOM     20  C   UNL     1      -3.674  12.352  24.038  0.00  0.00    +0.000 C 
ATOM     21  C   UNL     1      -2.432  12.682  23.259  0.00  0.00    +0.000 A 
ATOM     22  C   UNL     1      -1.918  13.967  23.267  0.00  0.00    +0.000 A 
ATOM     23  C   UNL     1      -0.779  14.226  22.516  0.00  0.00    +0.000 A 
ATOM     24  C   UNL     1      -0.173  13.203  21.775  0.00  0.00    +0.000 A 
ATOM     25  C   UNL     1      -0.737  11.922  21.841  0.00  0.00    +0.000 A 
ATOM     26  N   UNL     1      -1.860  11.672  22.564  0.00  0.00    +0.000 NA
ATOM     27  C   UNL     1      -0.144  10.727  21.097  0.00  0.00    +0.000 C 
ATOM     28  C   UNL     1       0.783  11.222  19.957  0.00  0.00    +0.000 C 
ATOM     29  C   UNL     1       1.761  12.278  20.453  0.00  0.00    +0.000 C 
ATOM     30  C   UNL     1       1.013  13.537  20.897  0.00  0.00    +0.000 C 
ATOM     31  C   UNL     1       0.569  14.361  19.678  0.00  0.00    +0.000 C 
ENDBRANCH  18  27
ENDBRANCH   1  18
TORSDOF 4
ENDMDL
MODEL 5
REMARK VINA RESULT:      -8.1      1.643      2.112
REMARK  Name = 
REMARK  7 active torsions:
REMARK  status: ('A' for Active; 'I' for Inactive)
REMARK    1  A    between atoms: C_1  and  C_2
REMARK    2  A    between atoms: C_8  and  C_9
REMARK    3  A    between atoms: C_9  and  C_10
REMARK    4  A    between atoms: C_9  and  C_11
REMARK    5  A    between atoms: N_13  and  C_14
REMARK    6  A    between atoms: C_19  and  C_20
REMARK    7  A    between atoms: C_29  and  C_30
REMARK                            x       y       z     vdW  Elec       q    Type
REMARK                         _______ _______ _______ _____ _____    ______ ____
ROOT
ATOM      1  C   UNL     1       1.570   8.303  20.104  0.00  0.00    +0.000 C 
ATOM      2  O   UNL     1       1.549   8.293  18.873  0.00  0.00    +0.000 OA
ATOM      3  N   UNL     1       1.746   7.164  20.874  0.00  0.00    +0.000 N 
ATOM      4  H   UNL     1       1.262   7.139  21.763  0.00  0.00    +0.000 HD
ENDROOT
BRANCH   3   5
ATOM      5  C   UNL     1       2.071   5.926  20.285  0.00  0.00    +0.000 A 
ATOM      6  C   UNL     1       1.324   4.782  20.557  0.00  0.00    +0.000 A 
ATOM      7  C   UNL     1       1.644   3.583  19.926  0.00  0.00    +0.000 A 
ATOM      8  C   UNL     1       2.743   3.507  19.058  0.00  0.00    +0.000 A 
ATOM      9 CL   UNL     1       2.958   1.978  18.270  0.00  0.00    +0.000 Cl
ATOM     10  C   UNL     1       3.561   4.632  18.817  0.00  0.00    +0.000 A 
ATOM     11  C   UNL     1       3.154   5.855  19.406  0.00  0.00    +0.000 A 
BRANCH  10  12
ATOM     12  C   UNL     1       4.810   4.621  18.017  0.00  0.00    +0.000 A 
ATOM     13  C   UNL     1       4.846   4.492  16.627  0.00  0.00    +0.000 A 
ATOM     14  C   UNL     1       6.069   4.505  15.958  0.00  0.00    +0.000 A 
ATOM     15  C   UNL     1       7.242   4.587  16.693  0.00  0.00    +0.000 A 
ATOM     16  C   UNL     1       7.137   4.649  18.070  0.00  0.00    +0.000 A 
ATOM     17  N   UNL     1       5.962   4.675  18.739  0.00  0.00    +0.000 NA
ENDBRANCH  10  12
ENDBRANCH   3   5
BRANCH   1  18
ATOM     18  C   UNL     1       1.342   9.585  20.913  0.00  0.00    +0.000 C 
ATOM     19  C   UNL     1       0.780   9.169  22.279  0.00  0.00    +0.000 C 
BRANCH  18  27
ATOM     20  C   UNL     1      -2.747  11.871  23.583  0.00  0.00    +0.000 C 
ATOM     21  C   UNL     1      -1.663  12.304  22.637  0.00  0.00    +0.000 A 
ATOM     22  C   UNL     1      -1.248  13.624  22.600  0.00  0.00    +0.000 A 
ATOM     23  C   UNL     1      -0.256  13.978  21.695  0.00  0.00    +0.000 A 
ATOM     24  C   UNL     1       0.305  13.014  20.847  0.00  0.00    +0.000 A 
ATOM     25  C   UNL     1      -0.148  11.692  20.965  0.00  0.00    +0.000 A 
ATOM     26  N   UNL     1      -1.129  11.349  21.840  0.00  0.00    +0.000 NA
ATOM     27  C   UNL     1       0.412  10.556  20.112  0.00  0.00    +0.000 C 
ATOM     28  C   UNL     1       1.119  11.135  18.860  0.00  0.00    +0.000 C 
ATOM     29  C   UNL     1       2.081  12.255  19.232  0.00  0.00    +0.000 C 
ATOM     30  C   UNL     1       1.318  13.448  19.812  0.00  0.00    +0.000 C 
ATOM     31  C   UNL     1       0.639  14.252  18.692  0.00  0.00    +0.000 C 
ENDBRANCH  18  27
ENDBRANCH   1  18
TORSDOF 4
ENDMDL
MODEL 6
REMARK VINA RESULT:      -8.0      2.023      3.973
REMARK  Name = 
REMARK  7 active torsions:
REMARK  status: ('A' for Active; 'I' for Inactive)
REMARK    1  A    between atoms: C_1  and  C_2
REMARK    2  A    between atoms: C_8  and  C_9
REMARK    3  A    between atoms: C_9  and  C_10
REMARK    4  A    between atoms: C_9  and  C_11
REMARK    5  A    between atoms: N_13  and  C_14
REMARK    6  A    between atoms: C_19  and  C_20
REMARK    7  A    between atoms: C_29  and  C_30
REMARK                            x       y       z     vdW  Elec       q    Type
REMARK                         _______ _______ _______ _____ _____    ______ ____
ROOT
ATOM      1  C   UNL     1       1.570   9.242  18.702  0.00  0.00    +0.000 C 
ATOM      2  O   UNL     1       1.652   8.769  19.836  0.00  0.00    +0.000 OA
ATOM      3  N   UNL     1       2.291   8.763  17.619  0.00  0.00    +0.000 N 
ATOM      4  H   UNL     1       2.577   9.444  16.928  0.00  0.00    +0.000 HD
ENDROOT
BRANCH   3   5
ATOM      5  C   UNL     1       3.060   7.586  17.717  0.00  0.00    +0.000 A 
ATOM      6  C   UNL     1       4.239   7.434  16.989  0.00  0.00    +0.000 A 
ATOM      7  C   UNL     1       4.999   6.278  17.141  0.00  0.00    +0.000 A 
ATOM      8  C   UNL     1       4.561   5.244  17.981  0.00  0.00    +0.000 A 
ATOM      9 CL   UNL     1       5.658   3.911  18.146  0.00  0.00    +0.000 Cl
ATOM     10  C   UNL     1       3.337   5.338  18.677  0.00  0.00    +0.000 A 
ATOM     11  C   UNL     1       2.634   6.564  18.568  0.00  0.00    +0.000 A 
BRANCH  10  12
ATOM     12  C   UNL     1       2.732   4.253  19.489  0.00  0.00    +0.000 A 
ATOM     13  C   UNL     1       2.197   3.081  18.949  0.00  0.00    +0.000 A 
ATOM     14  C   UNL     1       1.660   2.110  19.792  0.00  0.00    +0.000 A 
ATOM     15  C   UNL     1       1.611   2.349  21.157  0.00  0.00    +0.000 A 
ATOM     16  C   UNL     1       2.101   3.557  21.617  0.00  0.00    +0.000 A 
ATOM     17  N   UNL     1       2.659   4.500  20.824  0.00  0.00    +0.000 NA
ENDBRANCH  10  12
ENDBRANCH   3   5
BRANCH   1  18
ATOM     18  C   UNL     1       0.695  10.460  18.388  0.00  0.00    +0.000 C 
ATOM     19  C   UNL     1       1.379  11.687  19.008  0.00  0.00    +0.000 C 
BRANCH  18  27
ATOM     20  C   UNL     1       0.072   9.506  23.659  0.00  0.00    +0.000 C 
ATOM     21  C   UNL     1      -0.568  10.367  22.607  0.00  0.00    +0.000 A 
ATOM     22  C   UNL     1      -1.271  11.505  22.962  0.00  0.00    +0.000 A 
ATOM     23  C   UNL     1      -1.860  12.257  21.954  0.00  0.00    +0.000 A 
ATOM     24  C   UNL     1      -1.736  11.866  20.615  0.00  0.00    +0.000 A 
ATOM     25  C   UNL     1      -0.984  10.717  20.333  0.00  0.00    +0.000 A 
ATOM     26  N   UNL     1      -0.420   9.972  21.320  0.00  0.00    +0.000 NA
ATOM     27  C   UNL     1      -0.760  10.214  18.909  0.00  0.00    +0.000 C 
ATOM     28  C   UNL     1      -1.826  10.820  17.961  0.00  0.00    +0.000 C 
ATOM     29  C   UNL     1      -1.944  12.327  18.148  0.00  0.00    +0.000 C 
ATOM     30  C   UNL     1      -2.463  12.655  19.549  0.00  0.00    +0.000 C 
ATOM     31  C   UNL     1      -3.979  12.414  19.635  0.00  0.00    +0.000 C 
ENDBRANCH  18  27
ENDBRANCH   1  18
TORSDOF 4
ENDMDL
MODEL 7
REMARK VINA RESULT:      -7.9      2.511      4.437
REMARK  Name = 
REMARK  7 active torsions:
REMARK  status: ('A' for Active; 'I' for Inactive)
REMARK    1  A    between atoms: C_1  and  C_2
REMARK    2  A    between atoms: C_8  and  C_9
REMARK    3  A    between atoms: C_9  and  C_10
REMARK    4  A    between atoms: C_9  and  C_11
REMARK    5  A    between atoms: N_13  and  C_14
REMARK    6  A    between atoms: C_19  and  C_20
REMARK    7  A    between atoms: C_29  and  C_30
REMARK                            x       y       z     vdW  Elec       q    Type
REMARK                         _______ _______ _______ _____ _____    ______ ____
ROOT
ATOM      1  C   UNL     1      -0.278  10.177  18.705  0.00  0.00    +0.000 C 
ATOM      2  O   UNL     1      -0.658   9.643  17.662  0.00  0.00    +0.000 OA
ATOM      3  N   UNL     1       0.792   9.714  19.454  0.00  0.00    +0.000 N 
ATOM      4  H   UNL     1       0.727   9.830  20.458  0.00  0.00    +0.000 HD
ENDROOT
BRANCH   3   5
ATOM      5  C   UNL     1       1.623   8.679  18.981  0.00  0.00    +0.000 A 
ATOM      6  C   UNL     1       2.527   8.899  17.945  0.00  0.00    +0.000 A 
ATOM      7  C   UNL     1       3.364   7.867  17.530  0.00  0.00    +0.000 A 
ATOM      8  C   UNL     1       3.268   6.595  18.111  0.00  0.00    +0.000 A 
ATOM      9 CL   UNL     1       4.440   5.440  17.563  0.00  0.00    +0.000 Cl
ATOM     10  C   UNL     1       2.313   6.322  19.115  0.00  0.00    +0.000 A 
ATOM     11  C   UNL     1       1.540   7.417  19.574  0.00  0.00    +0.000 A 
BRANCH  10  12
ATOM     12  C   UNL     1       2.052   4.984  19.702  0.00  0.00    +0.000 A 
ATOM     13  C   UNL     1       1.465   3.927  19.003  0.00  0.00    +0.000 A 
ATOM     14  C   UNL     1       1.270   2.700  19.635  0.00  0.00    +0.000 A 
ATOM     15  C   UNL     1       1.609   2.564  20.972  0.00  0.00    +0.000 A 
ATOM     16  C   UNL     1       2.128   3.670  21.620  0.00  0.00    +0.000 A 
ATOM     17  N   UNL     1       2.360   4.860  21.021  0.00  0.00    +0.000 NA
ENDBRANCH  10  12
ENDBRANCH   3   5
BRANCH   1  18
ATOM     18  C   UNL     1      -1.000  11.385  19.312  0.00  0.00    +0.000 C 
ATOM     19  C   UNL     1      -1.167  12.426  18.196  0.00  0.00    +0.000 C 
BRANCH  18  27
ATOM     20  C   UNL     1       3.539  14.140  18.373  0.00  0.00    +0.000 C 
ATOM     21  C   UNL     1       2.317  14.282  19.234  0.00  0.00    +0.000 A 
ATOM     22  C   UNL     1       1.930  15.524  19.706  0.00  0.00    +0.000 A 
ATOM     23  C   UNL     1       0.803  15.600  20.514  0.00  0.00    +0.000 A 
ATOM     24  C   UNL     1       0.083  14.443  20.835  0.00  0.00    +0.000 A 
ATOM     25  C   UNL     1       0.521  13.226  20.294  0.00  0.00    +0.000 A 
ATOM     26  N   UNL     1       1.631  13.149  19.516  0.00  0.00    +0.000 NA
ATOM     27  C   UNL     1      -0.204  11.907  20.554  0.00  0.00    +0.000 C 
ATOM     28  C   UNL     1      -1.106  12.037  21.808  0.00  0.00    +0.000 C 
ATOM     29  C   UNL     1      -1.965  13.294  21.747  0.00  0.00    +0.000 C 
ATOM     30  C   UNL     1      -1.087  14.546  21.789  0.00  0.00    +0.000 C 
ATOM     31  C   UNL     1      -0.596  14.816  23.220  0.00  0.00    +0.000 C 
ENDBRANCH  18  27
ENDBRANCH   1  18
TORSDOF 4
ENDMDL
MODEL 8
REMARK VINA RESULT:      -7.9      2.087      3.061
REMARK  Name = 
REMARK  7 active torsions:
REMARK  status: ('A' for Active; 'I' for Inactive)
REMARK    1  A    between atoms: C_1  and  C_2
REMARK    2  A    between atoms: C_8  and  C_9
REMARK    3  A    between atoms: C_9  and  C_10
REMARK    4  A    between atoms: C_9  and  C_11
REMARK    5  A    between atoms: N_13  and  C_14
REMARK    6  A    between atoms: C_19  and  C_20
REMARK    7  A    between atoms: C_29  and  C_30
REMARK                            x       y       z     vdW  Elec       q    Type
REMARK                         _______ _______ _______ _____ _____    ______ ____
ROOT
ATOM      1  C   UNL     1       0.456   8.374  21.408  0.00  0.00    +0.000 C 
ATOM      2  O   UNL     1      -0.569   7.703  21.277  0.00  0.00    +0.000 OA
ATOM      3  N   UNL     1       1.718   7.913  21.067  0.00  0.00    +0.000 N 
ATOM      4  H   UNL     1       2.489   8.241  21.637  0.00  0.00    +0.000 HD
ENDROOT
BRANCH   3   5
ATOM      5  C   UNL     1       1.893   6.687  20.395  0.00  0.00    +0.000 A 
ATOM      6  C   UNL     1       1.278   5.523  20.851  0.00  0.00    +0.000 A 
ATOM      7  C   UNL     1       1.435   4.337  20.140  0.00  0.00    +0.000 A 
ATOM      8  C   UNL     1       2.248   4.293  18.999  0.00  0.00    +0.000 A 
ATOM      9 CL   UNL     1       2.269   2.774  18.162  0.00  0.00    +0.000 Cl
ATOM     10  C   UNL     1       2.941   5.440  18.552  0.00  0.00    +0.000 A 
ATOM     11  C   UNL     1       2.688   6.648  19.248  0.00  0.00    +0.000 A 
BRANCH  10  12
ATOM     12  C   UNL     1       3.916   5.465  17.435  0.00  0.00    +0.000 A 
ATOM     13  C   UNL     1       4.331   6.631  16.788  0.00  0.00    +0.000 A 
ATOM     14  C   UNL     1       5.263   6.558  15.753  0.00  0.00    +0.000 A 
ATOM     15  C   UNL     1       5.722   5.316  15.341  0.00  0.00    +0.000 A 
ATOM     16  C   UNL     1       5.222   4.199  15.983  0.00  0.00    +0.000 A 
ATOM     17  N   UNL     1       4.346   4.245  17.012  0.00  0.00    +0.000 NA
ENDBRANCH  10  12
ENDBRANCH   3   5
BRANCH   1  18
ATOM     18  C   UNL     1       0.439   9.777  22.023  0.00  0.00    +0.000 C 
ATOM     19  C   UNL     1      -0.164   9.652  23.430  0.00  0.00    +0.000 C 
BRANCH  18  27
ATOM     20  C   UNL     1      -1.601  14.249  24.240  0.00  0.00    +0.000 C 
ATOM     21  C   UNL     1      -0.806  13.883  23.019  0.00  0.00    +0.000 A 
ATOM     22  C   UNL     1      -0.028  14.829  22.377  0.00  0.00    +0.000 A 
ATOM     23  C   UNL     1       0.673  14.446  21.241  0.00  0.00    +0.000 A 
ATOM     24  C   UNL     1       0.589  13.130  20.768  0.00  0.00    +0.000 A 
ATOM     25  C   UNL     1      -0.197  12.222  21.491  0.00  0.00    +0.000 A 
ATOM     26  N   UNL     1      -0.895  12.600  22.593  0.00  0.00    +0.000 NA
ATOM     27  C   UNL     1      -0.339  10.757  21.083  0.00  0.00    +0.000 C 
ATOM     28  C   UNL     1       0.067  10.580  19.597  0.00  0.00    +0.000 C 
ATOM     29  C   UNL     1       1.402  11.251  19.302  0.00  0.00    +0.000 C 
ATOM     30  C   UNL     1       1.293  12.766  19.479  0.00  0.00    +0.000 C 
ATOM     31  C   UNL     1       0.580  13.402  18.275  0.00  0.00    +0.000 C 
ENDBRANCH  18  27
ENDBRANCH   1  18
TORSDOF 4
ENDMDL
MODEL 9
REMARK VINA RESULT:      -7.9      2.617      3.630
REMARK  Name = 
REMARK  7 active torsions:
REMARK  status: ('A' for Active; 'I' for Inactive)
REMARK    1  A    between atoms: C_1  and  C_2
REMARK    2  A    between atoms: C_8  and  C_9
REMARK    3  A    between atoms: C_9  and  C_10
REMARK    4  A    between atoms: C_9  and  C_11
REMARK    5  A    between atoms: N_13  and  C_14
REMARK    6  A    between atoms: C_19  and  C_20
REMARK    7  A    between atoms: C_29  and  C_30
REMARK                            x       y       z     vdW  Elec       q    Type
REMARK                         _______ _______ _______ _____ _____    ______ ____
ROOT
ATOM      1  C   UNL     1       1.063   9.994  21.541  0.00  0.00    +0.000 C 
ATOM      2  O   UNL     1       2.021   9.529  22.160  0.00  0.00    +0.000 OA
ATOM      3  N   UNL     1       0.785   9.684  20.219  0.00  0.00    +0.000 N 
ATOM      4  H   UNL     1       0.373  10.419  19.658  0.00  0.00    +0.000 HD
ENDROOT
BRANCH   3   5
ATOM      5  C   UNL     1       1.504   8.683  19.536  0.00  0.00    +0.000 A 
ATOM      6  C   UNL     1       2.231   8.978  18.384  0.00  0.00    +0.000 A 
ATOM      7  C   UNL     1       2.967   7.976  17.757  0.00  0.00    +0.000 A 
ATOM      8  C   UNL     1       2.940   6.662  18.246  0.00  0.00    +0.000 A 
ATOM      9 CL   UNL     1       3.981   5.546  17.423  0.00  0.00    +0.000 Cl
ATOM     10  C   UNL     1       2.157   6.317  19.369  0.00  0.00    +0.000 A 
ATOM     11  C   UNL     1       1.493   7.378  20.033  0.00  0.00    +0.000 A 
BRANCH  10  12
ATOM     12  C   UNL     1       1.967   4.939  19.884  0.00  0.00    +0.000 A 
ATOM     13  C   UNL     1       1.387   3.904  19.148  0.00  0.00    +0.000 A 
ATOM     14  C   UNL     1       1.261   2.635  19.713  0.00  0.00    +0.000 A 
ATOM     15  C   UNL     1       1.662   2.434  21.024  0.00  0.00    +0.000 A 
ATOM     16  C   UNL     1       2.170   3.519  21.716  0.00  0.00    +0.000 A 
ATOM     17  N   UNL     1       2.335   4.749  21.180  0.00  0.00    +0.000 NA
ENDBRANCH  10  12
ENDBRANCH   3   5
BRANCH   1  18
ATOM     18  C   UNL     1       0.109  11.018  22.165  0.00  0.00    +0.000 C 
ATOM     19  C   UNL     1      -1.188  10.277  22.518  0.00  0.00    +0.000 C 
BRANCH  18  27
ATOM     20  C   UNL     1      -2.745  10.105  17.682  0.00  0.00    +0.000 C 
ATOM     21  C   UNL     1      -2.690  11.144  18.766  0.00  0.00    +0.000 A 
ATOM     22  C   UNL     1      -3.786  11.945  19.028  0.00  0.00    +0.000 A 
ATOM     23  C   UNL     1      -3.679  12.903  20.028  0.00  0.00    +0.000 A 
ATOM     24  C   UNL     1      -2.485  13.043  20.748  0.00  0.00    +0.000 A 
ATOM     25  C   UNL     1      -1.429  12.174  20.443  0.00  0.00    +0.000 A 
ATOM     26  N   UNL     1      -1.529  11.247  19.455  0.00  0.00    +0.000 NA
ATOM     27  C   UNL     1      -0.093  12.219  21.182  0.00  0.00    +0.000 C 
ATOM     28  C   UNL     1       0.071  13.586  21.896  0.00  0.00    +0.000 C 
ATOM     29  C   UNL     1      -1.172  13.947  22.698  0.00  0.00    +0.000 C 
ATOM     30  C   UNL     1      -2.370  14.154  21.768  0.00  0.00    +0.000 C 
ATOM     31  C   UNL     1      -2.285  15.522  21.073  0.00  0.00    +0.000 C 
ENDBRANCH  18  27
ENDBRANCH   1  18
TORSDOF 4
ENDMDL
