MODEL 1
REMARK VINA RESULT:      -5.2      0.000      0.000
REMARK  Name = 
REMARK  3 active torsions:
REMARK  status: ('A' for Active; 'I' for Inactive)
REMARK    1  A    between atoms: C_4  and  C_5
REMARK    2  A    between atoms: C_5  and  O_7
REMARK    3  A    between atoms: C_8  and  N_9
REMARK                            x       y       z     vdW  Elec       q    Type
REMARK                         _______ _______ _______ _____ _____    ______ ____
ROOT
ATOM      1  C   UNL     1       1.960   4.977  17.925  0.00  0.00    +0.000 C 
ATOM      2  C   UNL     1       2.222   3.670  18.008  0.00  0.00    +0.000 C 
ATOM      3  C   UNL     1       1.276   2.624  18.487  0.00  0.00    +0.000 C 
ATOM      4  C   UNL     1       2.141   2.013  19.593  0.00  0.00    +0.000 C 
ATOM      5  C   UNL     1       3.552   1.956  18.919  0.00  0.00    +0.000 C 
ATOM      6  C   UNL     1       3.556   3.053  17.827  0.00  0.00    +0.000 C 
ENDROOT
BRANCH   5   7
ATOM      7  N   UNL     1       4.672   2.096  19.856  0.00  0.00    +0.000 NA
ATOM      8  H   UNL     1       4.319   2.454  20.778  0.00  0.00    +0.000 HD
ATOM      9  H   UNL     1       5.337   2.811  19.479  0.00  0.00    +0.000 HD
ENDBRANCH   5   7
BRANCH   4  10
ATOM     10  C   UNL     1       2.106   2.866  20.865  0.00  0.00    +0.000 C 
ATOM     11  O   UNL     1       1.372   3.837  20.954  0.00  0.00    +0.000 OA
BRANCH  10  12
ATOM     12  O   UNL     1       2.850   2.525  21.935  0.00  0.00    +0.000 OA
ATOM     13  H   UNL     1       3.558   1.865  21.878  0.00  0.00    +0.000 HD
ENDBRANCH  10  12
ENDBRANCH   4  10
TORSDOF 3
ENDMDL
MODEL 2
REMARK VINA RESULT:      -5.2      1.948      2.557
REMARK  Name = 
REMARK  3 active torsions:
REMARK  status: ('A' for Active; 'I' for Inactive)
REMARK    1  A    between atoms: C_4  and  C_5
REMARK    2  A    between atoms: C_5  and  O_7
REMARK    3  A    between atoms: C_8  and  N_9
REMARK                            x       y       z     vdW  Elec       q    Type
REMARK                         _______ _______ _______ _____ _____    ______ ____
ROOT
ATOM      1  C   UNL     1       0.963   4.082  20.339  0.00  0.00    +0.000 C 
ATOM      2  C   UNL     1       1.289   3.480  19.193  0.00  0.00    +0.000 C 
ATOM      3  C   UNL     1       1.625   2.037  19.035  0.00  0.00    +0.000 C 
ATOM      4  C   UNL     1       2.998   2.185  18.375  0.00  0.00    +0.000 C 
ATOM      5  C   UNL     1       2.755   3.347  17.356  0.00  0.00    +0.000 C 
ATOM      6  C   UNL     1       1.569   4.172  17.913  0.00  0.00    +0.000 C 
ENDROOT
BRANCH   5   7
ATOM      7  N   UNL     1       3.938   4.176  17.095  0.00  0.00    +0.000 NA
ATOM      8  H   UNL     1       3.900   5.042  17.687  0.00  0.00    +0.000 HD
ATOM      9  H   UNL     1       3.919   4.481  16.094  0.00  0.00    +0.000 HD
ENDBRANCH   5   7
BRANCH   4  10
ATOM     10  C   UNL     1       4.084   2.498  19.410  0.00  0.00    +0.000 C 
ATOM     11  O   UNL     1       3.901   2.294  20.599  0.00  0.00    +0.000 OA
BRANCH  10  12
ATOM     12  O   UNL     1       5.290   2.955  19.016  0.00  0.00    +0.000 OA
ATOM     13  H   UNL     1       5.797   3.585  19.550  0.00  0.00    +0.000 HD
ENDBRANCH  10  12
ENDBRANCH   4  10
TORSDOF 3
ENDMDL
MODEL 3
REMARK VINA RESULT:      -5.2      2.084      2.762
REMARK  Name = 
REMARK  3 active torsions:
REMARK  status: ('A' for Active; 'I' for Inactive)
REMARK    1  A    between atoms: C_4  and  C_5
REMARK    2  A    between atoms: C_5  and  O_7
REMARK    3  A    between atoms: C_8  and  N_9
REMARK                            x       y       z     vdW  Elec       q    Type
REMARK                         _______ _______ _______ _____ _____    ______ ____
ROOT
ATOM      1  C   UNL     1       1.194   4.401  20.460  0.00  0.00    +0.000 C 
ATOM      2  C   UNL     1       2.062   4.628  19.471  0.00  0.00    +0.000 C 
ATOM      3  C   UNL     1       1.820   4.365  18.025  0.00  0.00    +0.000 C 
ATOM      4  C   UNL     1       3.023   3.461  17.745  0.00  0.00    +0.000 C 
ATOM      5  C   UNL     1       4.171   4.182  18.525  0.00  0.00    +0.000 C 
ATOM      6  C   UNL     1       3.486   4.995  19.651  0.00  0.00    +0.000 C 
ENDROOT
BRANCH   5   7
ATOM      7  N   UNL     1       5.208   3.281  19.040  0.00  0.00    +0.000 NA
ATOM      8  H   UNL     1       5.396   3.498  20.050  0.00  0.00    +0.000 HD
ATOM      9  H   UNL     1       6.096   3.455  18.513  0.00  0.00    +0.000 HD
ENDBRANCH   5   7
BRANCH   4  10
ATOM     10  C   UNL     1       2.768   2.027  18.222  0.00  0.00    +0.000 C 
ATOM     11  O   UNL     1       3.690   1.247  18.400  0.00  0.00    +0.000 OA
BRANCH  10  12
ATOM     12  O   UNL     1       1.517   1.616  18.508  0.00  0.00    +0.000 OA
ATOM     13  H   UNL     1       1.342   0.754  18.915  0.00  0.00    +0.000 HD
ENDBRANCH  10  12
ENDBRANCH   4  10
TORSDOF 3
ENDMDL
MODEL 4
REMARK VINA RESULT:      -5.2      1.711      2.113
REMARK  Name = 
REMARK  3 active torsions:
REMARK  status: ('A' for Active; 'I' for Inactive)
REMARK    1  A    between atoms: C_4  and  C_5
REMARK    2  A    between atoms: C_5  and  O_7
REMARK    3  A    between atoms: C_8  and  N_9
REMARK                            x       y       z     vdW  Elec       q    Type
REMARK                         _______ _______ _______ _____ _____    ______ ____
ROOT
ATOM      1  C   UNL     1       2.688   5.825  19.161  0.00  0.00    +0.000 C 
ATOM      2  C   UNL     1       1.752   4.874  19.154  0.00  0.00    +0.000 C 
ATOM      3  C   UNL     1       0.947   4.438  20.330  0.00  0.00    +0.000 C 
ATOM      4  C   UNL     1       1.275   2.942  20.298  0.00  0.00    +0.000 C 
ATOM      5  C   UNL     1       1.203   2.617  18.770  0.00  0.00    +0.000 C 
ATOM      6  C   UNL     1       1.482   3.947  18.029  0.00  0.00    +0.000 C 
ENDROOT
BRANCH   5   7
ATOM      7  N   UNL     1       2.101   1.539  18.341  0.00  0.00    +0.000 NA
ATOM      8  H   UNL     1       2.524   1.076  19.183  0.00  0.00    +0.000 HD
ATOM      9  H   UNL     1       2.886   1.957  17.789  0.00  0.00    +0.000 HD
ENDBRANCH   5   7
BRANCH   4  10
ATOM     10  C   UNL     1       2.647   2.658  20.918  0.00  0.00    +0.000 C 
ATOM     11  O   UNL     1       2.765   2.420  22.110  0.00  0.00    +0.000 OA
BRANCH  10  12
ATOM     12  O   UNL     1       3.749   2.612  20.144  0.00  0.00    +0.000 OA
ATOM     13  H   UNL     1       3.721   2.829  19.200  0.00  0.00    +0.000 HD
ENDBRANCH  10  12
ENDBRANCH   4  10
TORSDOF 3
ENDMDL
MODEL 5
REMARK VINA RESULT:      -5.1      2.089      2.645
REMARK  Name = 
REMARK  3 active torsions:
REMARK  status: ('A' for Active; 'I' for Inactive)
REMARK    1  A    between atoms: C_4  and  C_5
REMARK    2  A    between atoms: C_5  and  O_7
REMARK    3  A    between atoms: C_8  and  N_9
REMARK                            x       y       z     vdW  Elec       q    Type
REMARK                         _______ _______ _______ _____ _____    ______ ____
ROOT
ATOM      1  C   UNL     1       1.314   4.522  20.460  0.00  0.00    +0.000 C 
ATOM      2  C   UNL     1       2.160   4.718  19.446  0.00  0.00    +0.000 C 
ATOM      3  C   UNL     1       1.917   4.340  18.026  0.00  0.00    +0.000 C 
ATOM      4  C   UNL     1       3.162   3.477  17.796  0.00  0.00    +0.000 C 
ATOM      5  C   UNL     1       4.280   4.308  18.508  0.00  0.00    +0.000 C 
ATOM      6  C   UNL     1       3.566   5.166  19.581  0.00  0.00    +0.000 C 
ENDROOT
BRANCH   5   7
ATOM      7  N   UNL     1       5.365   3.497  19.072  0.00  0.00    +0.000 NA
ATOM      8  H   UNL     1       6.202   4.105  19.254  0.00  0.00    +0.000 HD
ATOM      9  H   UNL     1       5.649   2.778  18.366  0.00  0.00    +0.000 HD
ENDBRANCH   5   7
BRANCH   4  10
ATOM     10  C   UNL     1       2.982   2.071  18.379  0.00  0.00    +0.000 C 
ATOM     11  O   UNL     1       1.915   1.716  18.854  0.00  0.00    +0.000 OA
BRANCH  10  12
ATOM     12  O   UNL     1       3.989   1.177  18.326  0.00  0.00    +0.000 OA
ATOM     13  H   UNL     1       3.873   0.298  17.934  0.00  0.00    +0.000 HD
ENDBRANCH  10  12
ENDBRANCH   4  10
TORSDOF 3
ENDMDL
MODEL 6
REMARK VINA RESULT:      -5.1      2.085      2.802
REMARK  Name = 
REMARK  3 active torsions:
REMARK  status: ('A' for Active; 'I' for Inactive)
REMARK    1  A    between atoms: C_4  and  C_5
REMARK    2  A    between atoms: C_5  and  O_7
REMARK    3  A    between atoms: C_8  and  N_9
REMARK                            x       y       z     vdW  Elec       q    Type
REMARK                         _______ _______ _______ _____ _____    ______ ____
ROOT
ATOM      1  C   UNL     1       1.304   3.689  20.722  0.00  0.00    +0.000 C 
ATOM      2  C   UNL     1       1.314   3.522  19.398  0.00  0.00    +0.000 C 
ATOM      3  C   UNL     1       1.181   2.220  18.686  0.00  0.00    +0.000 C 
ATOM      4  C   UNL     1       2.459   2.279  17.845  0.00  0.00    +0.000 C 
ATOM      5  C   UNL     1       2.474   3.767  17.364  0.00  0.00    +0.000 C 
ATOM      6  C   UNL     1       1.656   4.568  18.407  0.00  0.00    +0.000 C 
ENDROOT
BRANCH   5   7
ATOM      7  N   UNL     1       3.818   4.321  17.163  0.00  0.00    +0.000 NA
ATOM      8  H   UNL     1       4.419   4.100  17.996  0.00  0.00    +0.000 HD
ATOM      9  H   UNL     1       3.745   5.363  17.100  0.00  0.00    +0.000 HD
ENDBRANCH   5   7
BRANCH   4  10
ATOM     10  C   UNL     1       3.690   1.892  18.673  0.00  0.00    +0.000 C 
ATOM     11  O   UNL     1       4.210   2.686  19.440  0.00  0.00    +0.000 OA
BRANCH  10  12
ATOM     12  O   UNL     1       4.190   0.643  18.608  0.00  0.00    +0.000 OA
ATOM     13  H   UNL     1       4.682   0.327  17.835  0.00  0.00    +0.000 HD
ENDBRANCH  10  12
ENDBRANCH   4  10
TORSDOF 3
ENDMDL
MODEL 7
REMARK VINA RESULT:      -5.1      4.191      5.062
REMARK  Name = 
REMARK  3 active torsions:
REMARK  status: ('A' for Active; 'I' for Inactive)
REMARK    1  A    between atoms: C_4  and  C_5
REMARK    2  A    between atoms: C_5  and  O_7
REMARK    3  A    between atoms: C_8  and  N_9
REMARK                            x       y       z     vdW  Elec       q    Type
REMARK                         _______ _______ _______ _____ _____    ______ ____
ROOT
ATOM      1  C   UNL     1       6.171   4.309  14.876  0.00  0.00    +0.000 C 
ATOM      2  C   UNL     1       5.410   4.695  15.902  0.00  0.00    +0.000 C 
ATOM      3  C   UNL     1       5.372   6.064  16.490  0.00  0.00    +0.000 C 
ATOM      4  C   UNL     1       5.686   5.705  17.945  0.00  0.00    +0.000 C 
ATOM      5  C   UNL     1       4.822   4.419  18.166  0.00  0.00    +0.000 C 
ATOM      6  C   UNL     1       4.616   3.790  16.766  0.00  0.00    +0.000 C 
ENDROOT
BRANCH   5   7
ATOM      7  N   UNL     1       5.392   3.469  19.127  0.00  0.00    +0.000 NA
ATOM      8  H   UNL     1       5.845   2.674  18.612  0.00  0.00    +0.000 HD
ATOM      9  H   UNL     1       4.616   3.066  19.701  0.00  0.00    +0.000 HD
ENDBRANCH   5   7
BRANCH   4  10
ATOM     10  C   UNL     1       7.187   5.474  18.151  0.00  0.00    +0.000 C 
ATOM     11  O   UNL     1       7.915   6.370  18.548  0.00  0.00    +0.000 OA
BRANCH  10  12
ATOM     12  O   UNL     1       7.724   4.255  17.950  0.00  0.00    +0.000 OA
ATOM     13  H   UNL     1       7.629   3.787  17.106  0.00  0.00    +0.000 HD
ENDBRANCH  10  12
ENDBRANCH   4  10
TORSDOF 3
ENDMDL
MODEL 8
REMARK VINA RESULT:      -5.1      1.755      2.545
REMARK  Name = 
REMARK  3 active torsions:
REMARK  status: ('A' for Active; 'I' for Inactive)
REMARK    1  A    between atoms: C_4  and  C_5
REMARK    2  A    between atoms: C_5  and  O_7
REMARK    3  A    between atoms: C_8  and  N_9
REMARK                            x       y       z     vdW  Elec       q    Type
REMARK                         _______ _______ _______ _____ _____    ______ ____
ROOT
ATOM      1  C   UNL     1       0.720   2.397  18.778  0.00  0.00    +0.000 C 
ATOM      2  C   UNL     1       1.719   3.119  18.267  0.00  0.00    +0.000 C 
ATOM      3  C   UNL     1       2.954   2.571  17.637  0.00  0.00    +0.000 C 
ATOM      4  C   UNL     1       3.996   3.285  18.503  0.00  0.00    +0.000 C 
ATOM      5  C   UNL     1       3.402   4.727  18.619  0.00  0.00    +0.000 C 
ATOM      6  C   UNL     1       1.875   4.586  18.410  0.00  0.00    +0.000 C 
ENDROOT
BRANCH   5   7
ATOM      7  N   UNL     1       3.733   5.415  19.873  0.00  0.00    +0.000 NA
ATOM      8  H   UNL     1       3.162   6.292  19.956  0.00  0.00    +0.000 HD
ATOM      9  H   UNL     1       4.740   5.700  19.843  0.00  0.00    +0.000 HD
ENDBRANCH   5   7
BRANCH   4  10
ATOM     10  C   UNL     1       4.173   2.586  19.855  0.00  0.00    +0.000 C 
ATOM     11  O   UNL     1       3.395   2.784  20.774  0.00  0.00    +0.000 OA
BRANCH  10  12
ATOM     12  O   UNL     1       5.165   1.692  20.036  0.00  0.00    +0.000 OA
ATOM     13  H   UNL     1       5.901   1.861  20.643  0.00  0.00    +0.000 HD
ENDBRANCH  10  12
ENDBRANCH   4  10
TORSDOF 3
ENDMDL
MODEL 9
REMARK VINA RESULT:      -5.1      2.334      3.289
REMARK  Name = 
REMARK  3 active torsions:
REMARK  status: ('A' for Active; 'I' for Inactive)
REMARK    1  A    between atoms: C_4  and  C_5
REMARK    2  A    between atoms: C_5  and  O_7
REMARK    3  A    between atoms: C_8  and  N_9
REMARK                            x       y       z     vdW  Elec       q    Type
REMARK                         _______ _______ _______ _____ _____    ______ ____
ROOT
ATOM      1  C   UNL     1       1.679   2.617  21.526  0.00  0.00    +0.000 C 
ATOM      2  C   UNL     1       1.307   3.355  20.477  0.00  0.00    +0.000 C 
ATOM      3  C   UNL     1       0.664   2.839  19.236  0.00  0.00    +0.000 C 
ATOM      4  C   UNL     1       1.656   3.392  18.209  0.00  0.00    +0.000 C 
ATOM      5  C   UNL     1       1.932   4.832  18.754  0.00  0.00    +0.000 C 
ATOM      6  C   UNL     1       1.643   4.784  20.274  0.00  0.00    +0.000 C 
ENDROOT
BRANCH   5   7
ATOM      7  N   UNL     1       3.275   5.340  18.456  0.00  0.00    +0.000 NA
ATOM      8  H   UNL     1       3.714   5.713  19.335  0.00  0.00    +0.000 HD
ATOM      9  H   UNL     1       3.191   6.141  17.787  0.00  0.00    +0.000 HD
ENDBRANCH   5   7
BRANCH   4  10
ATOM     10  C   UNL     1       2.913   2.521  18.122  0.00  0.00    +0.000 C 
ATOM     11  O   UNL     1       3.975   2.982  17.737  0.00  0.00    +0.000 OA
BRANCH  10  12
ATOM     12  O   UNL     1       2.881   1.235  18.524  0.00  0.00    +0.000 OA
ATOM     13  H   UNL     1       3.469   0.565  18.144  0.00  0.00    +0.000 HD
ENDBRANCH  10  12
ENDBRANCH   4  10
TORSDOF 3
ENDMDL
