MODEL 1
REMARK VINA RESULT:      -7.0      0.000      0.000
REMARK  Name = 
REMARK  13 active torsions:
REMARK  status: ('A' for Active; 'I' for Inactive)
REMARK    1  A    between atoms: C_1  and  O_2
REMARK    2  A    between atoms: O_2  and  C_3
REMARK    3  A    between atoms: C_3  and  C_5
REMARK    4  A    between atoms: C_5  and  C_15
REMARK    5  A    between atoms: C_6  and  C_7
REMARK    6  A    between atoms: C_10  and  O_11
REMARK    7  A    between atoms: O_11  and  C_12
REMARK    8  A    between atoms: C_17  and  O_18
REMARK    9  A    between atoms: O_18  and  C_19
REMARK   10  A    between atoms: C_20  and  O_21
REMARK   11  A    between atoms: O_21  and  C_22
REMARK   12  A    between atoms: C_23  and  O_24
REMARK   13  A    between atoms: O_24  and  C_25
REMARK                            x       y       z     vdW  Elec       q    Type
REMARK                         _______ _______ _______ _____ _____    ______ ____
ROOT
ATOM      1  C   UNL     1       6.958   5.468  17.886  0.00  0.00    +0.000 C 
ATOM      2  C   UNL     1       7.580   5.261  16.709  0.00  0.00    +0.000 C 
ENDROOT
BRANCH   2   3
ATOM      3  C   UNL     1       6.971   4.769  15.466  0.00  0.00    +0.000 A 
ATOM      4  C   UNL     1       7.410   5.256  14.230  0.00  0.00    +0.000 A 
ATOM      5  C   UNL     1       6.920   4.708  13.042  0.00  0.00    +0.000 A 
ATOM      6  C   UNL     1       6.004   3.654  13.073  0.00  0.00    +0.000 A 
ATOM      7  C   UNL     1       5.518   3.206  14.300  0.00  0.00    +0.000 A 
ATOM      8  C   UNL     1       5.997   3.765  15.494  0.00  0.00    +0.000 A 
BRANCH   6   9
ATOM      9  O   UNL     1       5.630   3.164  11.851  0.00  0.00    +0.000 OA
ATOM     10  C   UNL     1       4.244   3.282  11.546  0.00  0.00    +0.000 C 
ENDBRANCH   6   9
ENDBRANCH   2   3
BRANCH   1  11
ATOM     11  C   UNL     1       5.532   5.142  18.051  0.00  0.00    +0.000 A 
ATOM     12  C   UNL     1       4.556   6.098  17.792  0.00  0.00    +0.000 A 
ATOM     13  C   UNL     1       3.210   5.821  18.056  0.00  0.00    +0.000 A 
ATOM     14  C   UNL     1       2.834   4.561  18.589  0.00  0.00    +0.000 A 
ATOM     15  C   UNL     1       3.827   3.588  18.829  0.00  0.00    +0.000 A 
ATOM     16  C   UNL     1       5.165   3.891  18.548  0.00  0.00    +0.000 A 
BRANCH  13  17
ATOM     17  O   UNL     1       2.213   6.750  17.851  0.00  0.00    +0.000 OA
ATOM     18  C   UNL     1       2.561   8.104  18.131  0.00  0.00    +0.000 C 
ENDBRANCH  13  17
BRANCH  14  19
ATOM     19  O   UNL     1       1.493   4.434  18.885  0.00  0.00    +0.000 OA
ATOM     20  C   UNL     1       1.112   4.467  20.252  0.00  0.00    +0.000 C 
ENDBRANCH  14  19
BRANCH  15  21
ATOM     21  O   UNL     1       3.457   2.383  19.373  0.00  0.00    +0.000 OA
ATOM     22  C   UNL     1       3.474   1.236  18.530  0.00  0.00    +0.000 C 
ENDBRANCH  15  21
ENDBRANCH   1  11
BRANCH   1  23
ATOM     23  C   UNL     1       7.710   6.024  19.058  0.00  0.00    +0.000 C 
ATOM     24  O   UNL     1       7.616   5.585  20.193  0.00  0.00    +0.000 OA
BRANCH  23  26
ATOM     25  C   UNL     1       7.726   8.053  17.892  0.00  0.00    +0.000 C 
ATOM     26  O   UNL     1       8.442   7.109  18.692  0.00  0.00    +0.000 OA
ENDBRANCH  23  26
ENDBRANCH   1  23
TORSDOF 8
ENDMDL
MODEL 2
REMARK VINA RESULT:      -6.9      1.875      6.655
REMARK  Name = 
REMARK  13 active torsions:
REMARK  status: ('A' for Active; 'I' for Inactive)
REMARK    1  A    between atoms: C_1  and  O_2
REMARK    2  A    between atoms: O_2  and  C_3
REMARK    3  A    between atoms: C_3  and  C_5
REMARK    4  A    between atoms: C_5  and  C_15
REMARK    5  A    between atoms: C_6  and  C_7
REMARK    6  A    between atoms: C_10  and  O_11
REMARK    7  A    between atoms: O_11  and  C_12
REMARK    8  A    between atoms: C_17  and  O_18
REMARK    9  A    between atoms: O_18  and  C_19
REMARK   10  A    between atoms: C_20  and  O_21
REMARK   11  A    between atoms: O_21  and  C_22
REMARK   12  A    between atoms: C_23  and  O_24
REMARK   13  A    between atoms: O_24  and  C_25
REMARK                            x       y       z     vdW  Elec       q    Type
REMARK                         _______ _______ _______ _____ _____    ______ ____
ROOT
ATOM      1  C   UNL     1       3.308   3.957  18.663  0.00  0.00    +0.000 C 
ATOM      2  C   UNL     1       2.262   4.684  19.103  0.00  0.00    +0.000 C 
ENDROOT
BRANCH   2   3
ATOM      3  C   UNL     1       2.153   6.150  19.117  0.00  0.00    +0.000 A 
ATOM      4  C   UNL     1       2.204   6.867  17.916  0.00  0.00    +0.000 A 
ATOM      5  C   UNL     1       1.982   8.247  17.909  0.00  0.00    +0.000 A 
ATOM      6  C   UNL     1       1.687   8.922  19.095  0.00  0.00    +0.000 A 
ATOM      7  C   UNL     1       1.696   8.223  20.301  0.00  0.00    +0.000 A 
ATOM      8  C   UNL     1       1.932   6.840  20.313  0.00  0.00    +0.000 A 
BRANCH   6   9
ATOM      9  O   UNL     1       1.441  10.262  18.964  0.00  0.00    +0.000 OA
ATOM     10  C   UNL     1       0.090  10.607  18.675  0.00  0.00    +0.000 C 
ENDBRANCH   6   9
ENDBRANCH   2   3
BRANCH   1  11
ATOM     11  C   UNL     1       4.532   4.615  18.179  0.00  0.00    +0.000 A 
ATOM     12  C   UNL     1       5.490   5.069  19.079  0.00  0.00    +0.000 A 
ATOM     13  C   UNL     1       6.598   5.793  18.622  0.00  0.00    +0.000 A 
ATOM     14  C   UNL     1       6.750   6.065  17.238  0.00  0.00    +0.000 A 
ATOM     15  C   UNL     1       5.785   5.582  16.329  0.00  0.00    +0.000 A 
ATOM     16  C   UNL     1       4.691   4.855  16.814  0.00  0.00    +0.000 A 
BRANCH  13  17
ATOM     17  O   UNL     1       7.554   6.294  19.479  0.00  0.00    +0.000 OA
ATOM     18  C   UNL     1       8.347   5.324  20.158  0.00  0.00    +0.000 C 
ENDBRANCH  13  17
BRANCH  14  19
ATOM     19  O   UNL     1       7.834   6.855  16.918  0.00  0.00    +0.000 OA
ATOM     20  C   UNL     1       7.817   8.207  17.350  0.00  0.00    +0.000 C 
ENDBRANCH  14  19
BRANCH  15  21
ATOM     21  O   UNL     1       5.924   5.877  14.995  0.00  0.00    +0.000 OA
ATOM     22  C   UNL     1       6.487   4.881  14.146  0.00  0.00    +0.000 C 
ENDBRANCH  15  21
ENDBRANCH   1  11
BRANCH   1  23
ATOM     23  C   UNL     1       3.249   2.459  18.668  0.00  0.00    +0.000 C 
ATOM     24  O   UNL     1       3.100   1.784  17.663  0.00  0.00    +0.000 OA
BRANCH  23  26
ATOM     25  C   UNL     1       4.642   1.784  20.424  0.00  0.00    +0.000 C 
ATOM     26  O   UNL     1       3.312   1.977  19.938  0.00  0.00    +0.000 OA
ENDBRANCH  23  26
ENDBRANCH   1  23
TORSDOF 8
ENDMDL
MODEL 3
REMARK VINA RESULT:      -6.8      1.885      6.668
REMARK  Name = 
REMARK  13 active torsions:
REMARK  status: ('A' for Active; 'I' for Inactive)
REMARK    1  A    between atoms: C_1  and  O_2
REMARK    2  A    between atoms: O_2  and  C_3
REMARK    3  A    between atoms: C_3  and  C_5
REMARK    4  A    between atoms: C_5  and  C_15
REMARK    5  A    between atoms: C_6  and  C_7
REMARK    6  A    between atoms: C_10  and  O_11
REMARK    7  A    between atoms: O_11  and  C_12
REMARK    8  A    between atoms: C_17  and  O_18
REMARK    9  A    between atoms: O_18  and  C_19
REMARK   10  A    between atoms: C_20  and  O_21
REMARK   11  A    between atoms: O_21  and  C_22
REMARK   12  A    between atoms: C_23  and  O_24
REMARK   13  A    between atoms: O_24  and  C_25
REMARK                            x       y       z     vdW  Elec       q    Type
REMARK                         _______ _______ _______ _____ _____    ______ ____
ROOT
ATOM      1  C   UNL     1       3.634   3.946  19.311  0.00  0.00    +0.000 C 
ATOM      2  C   UNL     1       2.564   4.649  19.732  0.00  0.00    +0.000 C 
ENDROOT
BRANCH   2   3
ATOM      3  C   UNL     1       2.326   6.087  19.543  0.00  0.00    +0.000 A 
ATOM      4  C   UNL     1       2.425   6.650  18.266  0.00  0.00    +0.000 A 
ATOM      5  C   UNL     1       2.085   7.990  18.058  0.00  0.00    +0.000 A 
ATOM      6  C   UNL     1       1.622   8.775  19.116  0.00  0.00    +0.000 A 
ATOM      7  C   UNL     1       1.581   8.235  20.401  0.00  0.00    +0.000 A 
ATOM      8  C   UNL     1       1.935   6.895  20.615  0.00  0.00    +0.000 A 
BRANCH   6   9
ATOM      9  O   UNL     1       1.273  10.057  18.789  0.00  0.00    +0.000 OA
ATOM     10  C   UNL     1       0.066  10.529  19.381  0.00  0.00    +0.000 C 
ENDBRANCH   6   9
ENDBRANCH   2   3
BRANCH   1  11
ATOM     11  C   UNL     1       4.753   4.614  18.630  0.00  0.00    +0.000 A 
ATOM     12  C   UNL     1       5.859   5.050  19.353  0.00  0.00    +0.000 A 
ATOM     13  C   UNL     1       6.870   5.784  18.721  0.00  0.00    +0.000 A 
ATOM     14  C   UNL     1       6.772   6.085  17.338  0.00  0.00    +0.000 A 
ATOM     15  C   UNL     1       5.659   5.622  16.606  0.00  0.00    +0.000 A 
ATOM     16  C   UNL     1       4.666   4.883  17.263  0.00  0.00    +0.000 A 
BRANCH  13  17
ATOM     17  O   UNL     1       7.965   6.268  19.403  0.00  0.00    +0.000 OA
ATOM     18  C   UNL     1       8.504   5.404  20.401  0.00  0.00    +0.000 C 
ENDBRANCH  13  17
BRANCH  14  19
ATOM     19  O   UNL     1       7.784   6.882  16.846  0.00  0.00    +0.000 OA
ATOM     20  C   UNL     1       7.847   8.226  17.300  0.00  0.00    +0.000 C 
ENDBRANCH  14  19
BRANCH  15  21
ATOM     21  O   UNL     1       5.558   5.944  15.275  0.00  0.00    +0.000 OA
ATOM     22  C   UNL     1       5.922   4.955  14.318  0.00  0.00    +0.000 C 
ENDBRANCH  15  21
ENDBRANCH   1  11
BRANCH   1  23
ATOM     23  C   UNL     1       3.709   2.465  19.539  0.00  0.00    +0.000 C 
ATOM     24  O   UNL     1       4.663   1.909  20.059  0.00  0.00    +0.000 OA
BRANCH  23  26
ATOM     25  C   UNL     1       2.436   2.034  17.623  0.00  0.00    +0.000 C 
ATOM     26  O   UNL     1       2.616   1.841  19.028  0.00  0.00    +0.000 OA
ENDBRANCH  23  26
ENDBRANCH   1  23
TORSDOF 8
ENDMDL
MODEL 4
REMARK VINA RESULT:      -6.7      0.985      1.385
REMARK  Name = 
REMARK  13 active torsions:
REMARK  status: ('A' for Active; 'I' for Inactive)
REMARK    1  A    between atoms: C_1  and  O_2
REMARK    2  A    between atoms: O_2  and  C_3
REMARK    3  A    between atoms: C_3  and  C_5
REMARK    4  A    between atoms: C_5  and  C_15
REMARK    5  A    between atoms: C_6  and  C_7
REMARK    6  A    between atoms: C_10  and  O_11
REMARK    7  A    between atoms: O_11  and  C_12
REMARK    8  A    between atoms: C_17  and  O_18
REMARK    9  A    between atoms: O_18  and  C_19
REMARK   10  A    between atoms: C_20  and  O_21
REMARK   11  A    between atoms: O_21  and  C_22
REMARK   12  A    between atoms: C_23  and  O_24
REMARK   13  A    between atoms: O_24  and  C_25
REMARK                            x       y       z     vdW  Elec       q    Type
REMARK                         _______ _______ _______ _____ _____    ______ ____
ROOT
ATOM      1  C   UNL     1       6.866   6.085  16.819  0.00  0.00    +0.000 C 
ATOM      2  C   UNL     1       7.416   5.715  15.646  0.00  0.00    +0.000 C 
ENDROOT
BRANCH   2   3
ATOM      3  C   UNL     1       6.799   4.872  14.611  0.00  0.00    +0.000 A 
ATOM      4  C   UNL     1       5.496   4.393  14.785  0.00  0.00    +0.000 A 
ATOM      5  C   UNL     1       4.860   3.692  13.756  0.00  0.00    +0.000 A 
ATOM      6  C   UNL     1       5.509   3.480  12.538  0.00  0.00    +0.000 A 
ATOM      7  C   UNL     1       6.829   3.902  12.383  0.00  0.00    +0.000 A 
ATOM      8  C   UNL     1       7.474   4.594  13.419  0.00  0.00    +0.000 A 
BRANCH   6   9
ATOM      9  O   UNL     1       4.775   2.824  11.587  0.00  0.00    +0.000 OA
ATOM     10  C   UNL     1       3.760   3.601  10.959  0.00  0.00    +0.000 C 
ENDBRANCH   6   9
ENDBRANCH   2   3
BRANCH   1  11
ATOM     11  C   UNL     1       5.535   5.597  17.213  0.00  0.00    +0.000 A 
ATOM     12  C   UNL     1       4.443   6.458  17.225  0.00  0.00    +0.000 A 
ATOM     13  C   UNL     1       3.204   6.019  17.706  0.00  0.00    +0.000 A 
ATOM     14  C   UNL     1       3.056   4.692  18.183  0.00  0.00    +0.000 A 
ATOM     15  C   UNL     1       4.161   3.816  18.148  0.00  0.00    +0.000 A 
ATOM     16  C   UNL     1       5.387   4.281  17.654  0.00  0.00    +0.000 A 
BRANCH  13  17
ATOM     17  O   UNL     1       2.104   6.847  17.772  0.00  0.00    +0.000 OA
ATOM     18  C   UNL     1       2.384   8.235  17.940  0.00  0.00    +0.000 C 
ENDBRANCH  13  17
BRANCH  14  19
ATOM     19  O   UNL     1       1.814   4.400  18.709  0.00  0.00    +0.000 OA
ATOM     20  C   UNL     1       1.634   4.560  20.107  0.00  0.00    +0.000 C 
ENDBRANCH  14  19
BRANCH  15  21
ATOM     21  O   UNL     1       4.016   2.543  18.640  0.00  0.00    +0.000 OA
ATOM     22  C   UNL     1       4.471   2.282  19.964  0.00  0.00    +0.000 C 
ENDBRANCH  15  21
ENDBRANCH   1  11
BRANCH   1  23
ATOM     23  C   UNL     1       7.606   6.994  17.754  0.00  0.00    +0.000 C 
ATOM     24  O   UNL     1       8.057   6.636  18.830  0.00  0.00    +0.000 OA
BRANCH  23  26
ATOM     25  C   UNL     1       8.320   9.194  18.114  0.00  0.00    +0.000 C 
ATOM     26  O   UNL     1       7.637   8.264  17.270  0.00  0.00    +0.000 OA
ENDBRANCH  23  26
ENDBRANCH   1  23
TORSDOF 8
ENDMDL
MODEL 5
REMARK VINA RESULT:      -6.7      1.855      6.586
REMARK  Name = 
REMARK  13 active torsions:
REMARK  status: ('A' for Active; 'I' for Inactive)
REMARK    1  A    between atoms: C_1  and  O_2
REMARK    2  A    between atoms: O_2  and  C_3
REMARK    3  A    between atoms: C_3  and  C_5
REMARK    4  A    between atoms: C_5  and  C_15
REMARK    5  A    between atoms: C_6  and  C_7
REMARK    6  A    between atoms: C_10  and  O_11
REMARK    7  A    between atoms: O_11  and  C_12
REMARK    8  A    between atoms: C_17  and  O_18
REMARK    9  A    between atoms: O_18  and  C_19
REMARK   10  A    between atoms: C_20  and  O_21
REMARK   11  A    between atoms: O_21  and  C_22
REMARK   12  A    between atoms: C_23  and  O_24
REMARK   13  A    between atoms: O_24  and  C_25
REMARK                            x       y       z     vdW  Elec       q    Type
REMARK                         _______ _______ _______ _____ _____    ______ ____
ROOT
ATOM      1  C   UNL     1       3.674   3.535  18.763  0.00  0.00    +0.000 C 
ATOM      2  C   UNL     1       2.545   4.150  19.165  0.00  0.00    +0.000 C 
ENDROOT
BRANCH   2   3
ATOM      3  C   UNL     1       2.253   5.589  19.098  0.00  0.00    +0.000 A 
ATOM      4  C   UNL     1       2.016   6.311  20.273  0.00  0.00    +0.000 A 
ATOM      5  C   UNL     1       1.856   7.698  20.227  0.00  0.00    +0.000 A 
ATOM      6  C   UNL     1       1.952   8.383  19.013  0.00  0.00    +0.000 A 
ATOM      7  C   UNL     1       2.127   7.661  17.833  0.00  0.00    +0.000 A 
ATOM      8  C   UNL     1       2.273   6.267  17.875  0.00  0.00    +0.000 A 
BRANCH   6   9
ATOM      9  O   UNL     1       1.827   9.743  19.093  0.00  0.00    +0.000 OA
ATOM     10  C   UNL     1       0.722  10.209  19.861  0.00  0.00    +0.000 C 
ENDBRANCH   6   9
ENDBRANCH   2   3
BRANCH   1  11
ATOM     11  C   UNL     1       4.807   4.313  18.238  0.00  0.00    +0.000 A 
ATOM     12  C   UNL     1       5.751   4.855  19.103  0.00  0.00    +0.000 A 
ATOM     13  C   UNL     1       6.764   5.687  18.611  0.00  0.00    +0.000 A 
ATOM     14  C   UNL     1       6.834   5.978  17.225  0.00  0.00    +0.000 A 
ATOM     15  C   UNL     1       5.887   5.407  16.349  0.00  0.00    +0.000 A 
ATOM     16  C   UNL     1       4.889   4.573  16.869  0.00  0.00    +0.000 A 
BRANCH  13  17
ATOM     17  O   UNL     1       7.698   6.276  19.435  0.00  0.00    +0.000 OA
ATOM     18  C   UNL     1       8.409   5.391  20.298  0.00  0.00    +0.000 C 
ENDBRANCH  13  17
BRANCH  14  19
ATOM     19  O   UNL     1       7.822   6.873  16.870  0.00  0.00    +0.000 OA
ATOM     20  C   UNL     1       7.714   8.203  17.353  0.00  0.00    +0.000 C 
ENDBRANCH  14  19
BRANCH  15  21
ATOM     21  O   UNL     1       5.944   5.720  15.013  0.00  0.00    +0.000 OA
ATOM     22  C   UNL     1       6.662   4.841  14.152  0.00  0.00    +0.000 C 
ENDBRANCH  15  21
ENDBRANCH   1  11
BRANCH   1  23
ATOM     23  C   UNL     1       3.803   2.044  18.853  0.00  0.00    +0.000 C 
ATOM     24  O   UNL     1       3.044   1.265  18.300  0.00  0.00    +0.000 OA
BRANCH  23  26
ATOM     25  C   UNL     1       4.498   1.765  21.070  0.00  0.00    +0.000 C 
ATOM     26  O   UNL     1       4.823   1.696  19.680  0.00  0.00    +0.000 OA
ENDBRANCH  23  26
ENDBRANCH   1  23
TORSDOF 8
ENDMDL
MODEL 6
REMARK VINA RESULT:      -6.6      2.336      5.074
REMARK  Name = 
REMARK  13 active torsions:
REMARK  status: ('A' for Active; 'I' for Inactive)
REMARK    1  A    between atoms: C_1  and  O_2
REMARK    2  A    between atoms: O_2  and  C_3
REMARK    3  A    between atoms: C_3  and  C_5
REMARK    4  A    between atoms: C_5  and  C_15
REMARK    5  A    between atoms: C_6  and  C_7
REMARK    6  A    between atoms: C_10  and  O_11
REMARK    7  A    between atoms: O_11  and  C_12
REMARK    8  A    between atoms: C_17  and  O_18
REMARK    9  A    between atoms: O_18  and  C_19
REMARK   10  A    between atoms: C_20  and  O_21
REMARK   11  A    between atoms: O_21  and  C_22
REMARK   12  A    between atoms: C_23  and  O_24
REMARK   13  A    between atoms: O_24  and  C_25
REMARK                            x       y       z     vdW  Elec       q    Type
REMARK                         _______ _______ _______ _____ _____    ______ ____
ROOT
ATOM      1  C   UNL     1       2.801   4.000  20.192  0.00  0.00    +0.000 C 
ATOM      2  C   UNL     1       3.724   3.283  19.523  0.00  0.00    +0.000 C 
ENDROOT
BRANCH   2   3
ATOM      3  C   UNL     1       4.655   3.782  18.500  0.00  0.00    +0.000 A 
ATOM      4  C   UNL     1       5.849   4.401  18.885  0.00  0.00    +0.000 A 
ATOM      5  C   UNL     1       6.793   4.771  17.922  0.00  0.00    +0.000 A 
ATOM      6  C   UNL     1       6.565   4.508  16.570  0.00  0.00    +0.000 A 
ATOM      7  C   UNL     1       5.351   3.946  16.177  0.00  0.00    +0.000 A 
ATOM      8  C   UNL     1       4.396   3.588  17.140  0.00  0.00    +0.000 A 
BRANCH   6   9
ATOM      9  O   UNL     1       7.577   4.869  15.722  0.00  0.00    +0.000 OA
ATOM     10  C   UNL     1       7.235   4.886  14.339  0.00  0.00    +0.000 C 
ENDBRANCH   6   9
ENDBRANCH   2   3
BRANCH   1  11
ATOM     11  C   UNL     1       2.596   5.427  19.896  0.00  0.00    +0.000 A 
ATOM     12  C   UNL     1       1.839   6.222  20.749  0.00  0.00    +0.000 A 
ATOM     13  C   UNL     1       1.553   7.549  20.407  0.00  0.00    +0.000 A 
ATOM     14  C   UNL     1       2.037   8.090  19.188  0.00  0.00    +0.000 A 
ATOM     15  C   UNL     1       2.822   7.285  18.338  0.00  0.00    +0.000 A 
ATOM     16  C   UNL     1       3.098   5.962  18.709  0.00  0.00    +0.000 A 
BRANCH  13  17
ATOM     17  O   UNL     1       0.777   8.364  21.203  0.00  0.00    +0.000 OA
ATOM     18  C   UNL     1       1.461   9.025  22.265  0.00  0.00    +0.000 C 
ENDBRANCH  13  17
BRANCH  14  19
ATOM     19  O   UNL     1       1.623   9.378  18.921  0.00  0.00    +0.000 OA
ATOM     20  C   UNL     1       0.535   9.551  18.026  0.00  0.00    +0.000 C 
ENDBRANCH  14  19
BRANCH  15  21
ATOM     21  O   UNL     1       3.260   7.807  17.146  0.00  0.00    +0.000 OA
ATOM     22  C   UNL     1       4.527   7.382  16.655  0.00  0.00    +0.000 C 
ENDBRANCH  15  21
ENDBRANCH   1  11
BRANCH   1  23
ATOM     23  C   UNL     1       1.953   3.354  21.247  0.00  0.00    +0.000 C 
ATOM     24  O   UNL     1       2.362   3.067  22.361  0.00  0.00    +0.000 OA
BRANCH  23  26
ATOM     25  C   UNL     1       0.704   2.535  19.445  0.00  0.00    +0.000 C 
ATOM     26  O   UNL     1       0.712   3.077  20.768  0.00  0.00    +0.000 OA
ENDBRANCH  23  26
ENDBRANCH   1  23
TORSDOF 8
ENDMDL
MODEL 7
REMARK VINA RESULT:      -6.5      2.653      5.595
REMARK  Name = 
REMARK  13 active torsions:
REMARK  status: ('A' for Active; 'I' for Inactive)
REMARK    1  A    between atoms: C_1  and  O_2
REMARK    2  A    between atoms: O_2  and  C_3
REMARK    3  A    between atoms: C_3  and  C_5
REMARK    4  A    between atoms: C_5  and  C_15
REMARK    5  A    between atoms: C_6  and  C_7
REMARK    6  A    between atoms: C_10  and  O_11
REMARK    7  A    between atoms: O_11  and  C_12
REMARK    8  A    between atoms: C_17  and  O_18
REMARK    9  A    between atoms: O_18  and  C_19
REMARK   10  A    between atoms: C_20  and  O_21
REMARK   11  A    between atoms: O_21  and  C_22
REMARK   12  A    between atoms: C_23  and  O_24
REMARK   13  A    between atoms: O_24  and  C_25
REMARK                            x       y       z     vdW  Elec       q    Type
REMARK                         _______ _______ _______ _____ _____    ______ ____
ROOT
ATOM      1  C   UNL     1       2.579   4.015  20.033  0.00  0.00    +0.000 C 
ATOM      2  C   UNL     1       3.737   3.478  19.601  0.00  0.00    +0.000 C 
ENDROOT
BRANCH   2   3
ATOM      3  C   UNL     1       4.828   4.178  18.908  0.00  0.00    +0.000 A 
ATOM      4  C   UNL     1       4.965   4.060  17.520  0.00  0.00    +0.000 A 
ATOM      5  C   UNL     1       5.925   4.816  16.840  0.00  0.00    +0.000 A 
ATOM      6  C   UNL     1       6.742   5.711  17.533  0.00  0.00    +0.000 A 
ATOM      7  C   UNL     1       6.650   5.787  18.922  0.00  0.00    +0.000 A 
ATOM      8  C   UNL     1       5.698   5.020  19.609  0.00  0.00    +0.000 A 
BRANCH   6   9
ATOM      9  O   UNL     1       7.611   6.433  16.761  0.00  0.00    +0.000 OA
ATOM     10  C   UNL     1       7.838   7.772  17.188  0.00  0.00    +0.000 C 
ENDBRANCH   6   9
ENDBRANCH   2   3
BRANCH   1  11
ATOM     11  C   UNL     1       2.266   5.430  19.780  0.00  0.00    +0.000 A 
ATOM     12  C   UNL     1       2.561   6.009  18.551  0.00  0.00    +0.000 A 
ATOM     13  C   UNL     1       2.365   7.381  18.352  0.00  0.00    +0.000 A 
ATOM     14  C   UNL     1       1.861   8.187  19.404  0.00  0.00    +0.000 A 
ATOM     15  C   UNL     1       1.543   7.590  20.642  0.00  0.00    +0.000 A 
ATOM     16  C   UNL     1       1.743   6.214  20.809  0.00  0.00    +0.000 A 
BRANCH  13  17
ATOM     17  O   UNL     1       2.678   8.005  17.164  0.00  0.00    +0.000 OA
ATOM     18  C   UNL     1       3.973   7.723  16.639  0.00  0.00    +0.000 C 
ENDBRANCH  13  17
BRANCH  14  19
ATOM     19  O   UNL     1       1.788   9.535  19.118  0.00  0.00    +0.000 OA
ATOM     20  C   UNL     1       0.568  10.034  18.593  0.00  0.00    +0.000 C 
ENDBRANCH  14  19
BRANCH  15  21
ATOM     21  O   UNL     1       1.084   8.384  21.664  0.00  0.00    +0.000 OA
ATOM     22  C   UNL     1      -0.323   8.556  21.797  0.00  0.00    +0.000 C 
ENDBRANCH  15  21
ENDBRANCH   1  11
BRANCH   1  23
ATOM     23  C   UNL     1       1.580   3.176  20.771  0.00  0.00    +0.000 C 
ATOM     24  O   UNL     1       1.780   2.703  21.878  0.00  0.00    +0.000 OA
BRANCH  23  26
ATOM     25  C   UNL     1       0.722   2.256  18.798  0.00  0.00    +0.000 C 
ATOM     26  O   UNL     1       0.472   2.965  20.013  0.00  0.00    +0.000 OA
ENDBRANCH  23  26
ENDBRANCH   1  23
TORSDOF 8
ENDMDL
MODEL 8
REMARK VINA RESULT:      -6.4      2.290      5.057
REMARK  Name = 
REMARK  13 active torsions:
REMARK  status: ('A' for Active; 'I' for Inactive)
REMARK    1  A    between atoms: C_1  and  O_2
REMARK    2  A    between atoms: O_2  and  C_3
REMARK    3  A    between atoms: C_3  and  C_5
REMARK    4  A    between atoms: C_5  and  C_15
REMARK    5  A    between atoms: C_6  and  C_7
REMARK    6  A    between atoms: C_10  and  O_11
REMARK    7  A    between atoms: O_11  and  C_12
REMARK    8  A    between atoms: C_17  and  O_18
REMARK    9  A    between atoms: O_18  and  C_19
REMARK   10  A    between atoms: C_20  and  O_21
REMARK   11  A    between atoms: O_21  and  C_22
REMARK   12  A    between atoms: C_23  and  O_24
REMARK   13  A    between atoms: O_24  and  C_25
REMARK                            x       y       z     vdW  Elec       q    Type
REMARK                         _______ _______ _______ _____ _____    ______ ____
ROOT
ATOM      1  C   UNL     1       2.895   3.909  20.034  0.00  0.00    +0.000 C 
ATOM      2  C   UNL     1       3.885   3.253  19.397  0.00  0.00    +0.000 C 
ENDROOT
BRANCH   2   3
ATOM      3  C   UNL     1       4.778   3.797  18.364  0.00  0.00    +0.000 A 
ATOM      4  C   UNL     1       5.941   4.482  18.733  0.00  0.00    +0.000 A 
ATOM      5  C   UNL     1       6.854   4.897  17.760  0.00  0.00    +0.000 A 
ATOM      6  C   UNL     1       6.627   4.616  16.411  0.00  0.00    +0.000 A 
ATOM      7  C   UNL     1       5.441   3.988  16.033  0.00  0.00    +0.000 A 
ATOM      8  C   UNL     1       4.516   3.583  17.007  0.00  0.00    +0.000 A 
BRANCH   6   9
ATOM      9  O   UNL     1       7.609   5.027  15.552  0.00  0.00    +0.000 OA
ATOM     10  C   UNL     1       7.265   4.988  14.170  0.00  0.00    +0.000 C 
ENDBRANCH   6   9
ENDBRANCH   2   3
BRANCH   1  11
ATOM     11  C   UNL     1       2.567   5.300  19.685  0.00  0.00    +0.000 A 
ATOM     12  C   UNL     1       2.922   5.817  18.444  0.00  0.00    +0.000 A 
ATOM     13  C   UNL     1       2.708   7.171  18.157  0.00  0.00    +0.000 A 
ATOM     14  C   UNL     1       2.126   8.021  19.132  0.00  0.00    +0.000 A 
ATOM     15  C   UNL     1       1.748   7.485  20.380  0.00  0.00    +0.000 A 
ATOM     16  C   UNL     1       1.967   6.125  20.636  0.00  0.00    +0.000 A 
BRANCH  13  17
ATOM     17  O   UNL     1       3.077   7.736  16.956  0.00  0.00    +0.000 OA
ATOM     18  C   UNL     1       4.378   7.392  16.483  0.00  0.00    +0.000 C 
ENDBRANCH  13  17
BRANCH  14  19
ATOM     19  O   UNL     1       2.041   9.348  18.766  0.00  0.00    +0.000 OA
ATOM     20  C   UNL     1       0.790   9.826  18.297  0.00  0.00    +0.000 C 
ENDBRANCH  14  19
BRANCH  15  21
ATOM     21  O   UNL     1       1.213   8.322  21.328  0.00  0.00    +0.000 OA
ATOM     22  C   UNL     1      -0.203   8.343  21.479  0.00  0.00    +0.000 C 
ENDBRANCH  15  21
ENDBRANCH   1  11
BRANCH   1  23
ATOM     23  C   UNL     1       2.098   3.227  21.106  0.00  0.00    +0.000 C 
ATOM     24  O   UNL     1       2.230   3.458  22.297  0.00  0.00    +0.000 OA
BRANCH  23  26
ATOM     25  C   UNL     1       0.514   2.740  19.453  0.00  0.00    +0.000 C 
ATOM     26  O   UNL     1       1.277   2.285  20.573  0.00  0.00    +0.000 OA
ENDBRANCH  23  26
ENDBRANCH   1  23
TORSDOF 8
ENDMDL
MODEL 9
REMARK VINA RESULT:      -6.4      2.320      5.193
REMARK  Name = 
REMARK  13 active torsions:
REMARK  status: ('A' for Active; 'I' for Inactive)
REMARK    1  A    between atoms: C_1  and  O_2
REMARK    2  A    between atoms: O_2  and  C_3
REMARK    3  A    between atoms: C_3  and  C_5
REMARK    4  A    between atoms: C_5  and  C_15
REMARK    5  A    between atoms: C_6  and  C_7
REMARK    6  A    between atoms: C_10  and  O_11
REMARK    7  A    between atoms: O_11  and  C_12
REMARK    8  A    between atoms: C_17  and  O_18
REMARK    9  A    between atoms: O_18  and  C_19
REMARK   10  A    between atoms: C_20  and  O_21
REMARK   11  A    between atoms: O_21  and  C_22
REMARK   12  A    between atoms: C_23  and  O_24
REMARK   13  A    between atoms: O_24  and  C_25
REMARK                            x       y       z     vdW  Elec       q    Type
REMARK                         _______ _______ _______ _____ _____    ______ ____
ROOT
ATOM      1  C   UNL     1       2.784   4.248  20.171  0.00  0.00    +0.000 C 
ATOM      2  C   UNL     1       3.785   3.520  19.639  0.00  0.00    +0.000 C 
ENDROOT
BRANCH   2   3
ATOM      3  C   UNL     1       4.827   3.996  18.719  0.00  0.00    +0.000 A 
ATOM      4  C   UNL     1       4.768   3.663  17.361  0.00  0.00    +0.000 A 
ATOM      5  C   UNL     1       5.688   4.209  16.461  0.00  0.00    +0.000 A 
ATOM      6  C   UNL     1       6.661   5.109  16.901  0.00  0.00    +0.000 A 
ATOM      7  C   UNL     1       6.761   5.396  18.261  0.00  0.00    +0.000 A 
ATOM      8  C   UNL     1       5.849   4.838  19.169  0.00  0.00    +0.000 A 
BRANCH   6   9
ATOM      9  O   UNL     1       7.476   5.617  15.926  0.00  0.00    +0.000 OA
ATOM     10  C   UNL     1       7.225   5.135  14.610  0.00  0.00    +0.000 C 
ENDBRANCH   6   9
ENDBRANCH   2   3
BRANCH   1  11
ATOM     11  C   UNL     1       2.608   5.663  19.808  0.00  0.00    +0.000 A 
ATOM     12  C   UNL     1       1.998   6.547  20.692  0.00  0.00    +0.000 A 
ATOM     13  C   UNL     1       1.731   7.864  20.301  0.00  0.00    +0.000 A 
ATOM     14  C   UNL     1       2.084   8.305  18.999  0.00  0.00    +0.000 A 
ATOM     15  C   UNL     1       2.721   7.410  18.115  0.00  0.00    +0.000 A 
ATOM     16  C   UNL     1       2.983   6.100  18.537  0.00  0.00    +0.000 A 
BRANCH  13  17
ATOM     17  O   UNL     1       1.097   8.764  21.129  0.00  0.00    +0.000 OA
ATOM     18  C   UNL     1      -0.173   8.353  21.632  0.00  0.00    +0.000 C 
ENDBRANCH  13  17
BRANCH  14  19
ATOM     19  O   UNL     1       1.698   9.594  18.700  0.00  0.00    +0.000 OA
ATOM     20  C   UNL     1       0.435   9.778  18.078  0.00  0.00    +0.000 C 
ENDBRANCH  14  19
BRANCH  15  21
ATOM     21  O   UNL     1       3.031   7.836  16.847  0.00  0.00    +0.000 OA
ATOM     22  C   UNL     1       4.292   7.458  16.304  0.00  0.00    +0.000 C 
ENDBRANCH  15  21
ENDBRANCH   1  11
BRANCH   1  23
ATOM     23  C   UNL     1       1.821   3.626  21.138  0.00  0.00    +0.000 C 
ATOM     24  O   UNL     1       2.127   3.278  22.267  0.00  0.00    +0.000 OA
BRANCH  23  26
ATOM     25  C   UNL     1       0.625   2.613  19.400  0.00  0.00    +0.000 C 
ATOM     26  O   UNL     1       0.604   3.447  20.561  0.00  0.00    +0.000 OA
ENDBRANCH  23  26
ENDBRANCH   1  23
TORSDOF 8
ENDMDL
