MODEL 1
REMARK VINA RESULT:      -5.9      0.000      0.000
REMARK  Name = 
REMARK  7 active torsions:
REMARK  status: ('A' for Active; 'I' for Inactive)
REMARK    1  A    between atoms: C_1  and  N_2
REMARK    2  A    between atoms: N_2  and  C_3
REMARK    3  A    between atoms: N_2  and  C_4
REMARK    4  A    between atoms: C_4  and  C_5
REMARK    5  A    between atoms: C_5  and  C_6
REMARK    6  A    between atoms: C_6  and  N_7
REMARK    7  A    between atoms: C_8  and  C_10
REMARK                            x       y       z     vdW  Elec       q    Type
REMARK                         _______ _______ _______ _____ _____    ______ ____
ROOT
ATOM      1  N   UNL     1      -0.671  13.801  22.619  0.00  0.00    +0.000 N 
ATOM      2  C   UNL     1      -0.834  12.424  22.372  0.00  0.00    +0.000 C 
ATOM      3  O   UNL     1      -1.160  11.654  23.275  0.00  0.00    +0.000 OA
ATOM      4  C   UNL     1      -0.345  14.648  21.582  0.00  0.00    +0.000 A 
ATOM      5  N   UNL     1      -1.176  15.342  20.836  0.00  0.00    +0.000 NA
ATOM      6  C   UNL     1      -0.448  16.023  19.871  0.00  0.00    +0.000 A 
ATOM      7  C   UNL     1      -0.981  16.788  18.804  0.00  0.00    +0.000 A 
ATOM      8  C   UNL     1      -0.074  17.404  17.955  0.00  0.00    +0.000 A 
ATOM      9  C   UNL     1       1.282  17.297  18.128  0.00  0.00    +0.000 A 
ATOM     10  C   UNL     1       1.847  16.556  19.143  0.00  0.00    +0.000 A 
ATOM     11  C   UNL     1       0.947  15.910  19.997  0.00  0.00    +0.000 A 
ATOM     12  S   UNL     1       1.317  14.866  21.313  0.00  0.00    +0.000 S 
ATOM     13  O   UNL     1       1.988  17.983  17.191  0.00  0.00    +0.000 OA
ATOM     14  C   UNL     1       0.921  18.535  16.397  0.00  0.00    +0.000 C 
ATOM     15  O   UNL     1      -0.393  18.167  16.873  0.00  0.00    +0.000 OA
ENDROOT
BRANCH   2  16
ATOM     16  C   UNL     1      -0.610  11.892  21.015  0.00  0.00    +0.000 A 
ATOM     17  C   UNL     1       0.611  11.331  20.483  0.00  0.00    +0.000 A 
ATOM     18  C   UNL     1       0.465  10.899  19.190  0.00  0.00    +0.000 A 
ATOM     19 CL   UNL     1       1.648  10.097  18.239  0.00  0.00    +0.000 Cl
ATOM     20  S   UNL     1      -1.058  11.233  18.545  0.00  0.00    +0.000 S 
ATOM     21  C   UNL     1      -1.562  11.928  20.013  0.00  0.00    +0.000 A 
ATOM     22 CL   UNL     1      -3.175  12.531  20.093  0.00  0.00    +0.000 Cl
ENDBRANCH   2  16
BRANCH   1  23
ATOM     23  C   UNL     1      -1.121  14.365  23.891  0.00  0.00    +0.000 C 
BRANCH  23  24
ATOM     24  C   UNL     1      -2.394  15.229  23.841  0.00  0.00    +0.000 C 
BRANCH  24  25
ATOM     25  C   UNL     1      -3.648  14.615  24.491  0.00  0.00    +0.000 C 
BRANCH  25  27
ATOM     26  C   UNL     1      -4.424  12.324  24.717  0.00  0.00    +0.000 C 
ATOM     27  N   UNL     1      -4.135  13.414  23.779  0.00  0.00    +0.000 NA
ATOM     28  C   UNL     1      -5.321  13.663  22.957  0.00  0.00    +0.000 C 
ENDBRANCH  25  27
ENDBRANCH  24  25
ENDBRANCH  23  24
ENDBRANCH   1  23
TORSDOF 5
ENDMDL
MODEL 2
REMARK VINA RESULT:      -5.8      3.515      7.305
REMARK  Name = 
REMARK  7 active torsions:
REMARK  status: ('A' for Active; 'I' for Inactive)
REMARK    1  A    between atoms: C_1  and  N_2
REMARK    2  A    between atoms: N_2  and  C_3
REMARK    3  A    between atoms: N_2  and  C_4
REMARK    4  A    between atoms: C_4  and  C_5
REMARK    5  A    between atoms: C_5  and  C_6
REMARK    6  A    between atoms: C_6  and  N_7
REMARK    7  A    between atoms: C_8  and  C_10
REMARK                            x       y       z     vdW  Elec       q    Type
REMARK                         _______ _______ _______ _____ _____    ______ ____
ROOT
ATOM      1  N   UNL     1       0.548  11.498  19.114  0.00  0.00    +0.000 N 
ATOM      2  C   UNL     1       1.402  12.548  18.724  0.00  0.00    +0.000 C 
ATOM      3  O   UNL     1       2.348  12.344  17.964  0.00  0.00    +0.000 OA
ATOM      4  C   UNL     1      -0.528  11.759  19.934  0.00  0.00    +0.000 A 
ATOM      5  N   UNL     1      -1.762  12.018  19.561  0.00  0.00    +0.000 NA
ATOM      6  C   UNL     1      -2.525  12.279  20.690  0.00  0.00    +0.000 A 
ATOM      7  C   UNL     1      -3.873  12.712  20.709  0.00  0.00    +0.000 A 
ATOM      8  C   UNL     1      -4.458  12.901  21.952  0.00  0.00    +0.000 A 
ATOM      9  C   UNL     1      -3.782  12.675  23.123  0.00  0.00    +0.000 A 
ATOM     10  C   UNL     1      -2.467  12.263  23.156  0.00  0.00    +0.000 A 
ATOM     11  C   UNL     1      -1.853  12.089  21.911  0.00  0.00    +0.000 A 
ATOM     12  S   UNL     1      -0.220  11.649  21.600  0.00  0.00    +0.000 S 
ATOM     13  O   UNL     1      -4.541  12.913  24.225  0.00  0.00    +0.000 OA
ATOM     14  C   UNL     1      -5.781  13.322  23.617  0.00  0.00    +0.000 C 
ATOM     15  O   UNL     1      -5.735  13.323  22.172  0.00  0.00    +0.000 OA
ENDROOT
BRANCH   2  16
ATOM     16  C   UNL     1       1.163  13.912  19.232  0.00  0.00    +0.000 A 
ATOM     17  C   UNL     1       0.185  14.865  18.761  0.00  0.00    +0.000 A 
ATOM     18  C   UNL     1       0.208  16.033  19.480  0.00  0.00    +0.000 A 
ATOM     19 CL   UNL     1      -0.850  17.371  19.291  0.00  0.00    +0.000 Cl
ATOM     20  S   UNL     1       1.433  16.076  20.639  0.00  0.00    +0.000 S 
ATOM     21  C   UNL     1       1.927  14.502  20.223  0.00  0.00    +0.000 A 
ATOM     22 CL   UNL     1       3.250  13.828  21.096  0.00  0.00    +0.000 Cl
ENDBRANCH   2  16
BRANCH   1  23
ATOM     23  C   UNL     1       0.633  10.207  18.432  0.00  0.00    +0.000 C 
BRANCH  23  24
ATOM     24  C   UNL     1       1.458   9.116  19.138  0.00  0.00    +0.000 C 
BRANCH  24  25
ATOM     25  C   UNL     1       2.257   8.177  18.216  0.00  0.00    +0.000 C 
BRANCH  25  27
ATOM     26  C   UNL     1       2.043   6.792  20.201  0.00  0.00    +0.000 C 
ATOM     27  N   UNL     1       2.703   6.944  18.900  0.00  0.00    +0.000 NA
ATOM     28  C   UNL     1       2.488   5.728  18.112  0.00  0.00    +0.000 C 
ENDBRANCH  25  27
ENDBRANCH  24  25
ENDBRANCH  23  24
ENDBRANCH   1  23
TORSDOF 5
ENDMDL
MODEL 3
REMARK VINA RESULT:      -5.7      3.357      5.420
REMARK  Name = 
REMARK  7 active torsions:
REMARK  status: ('A' for Active; 'I' for Inactive)
REMARK    1  A    between atoms: C_1  and  N_2
REMARK    2  A    between atoms: N_2  and  C_3
REMARK    3  A    between atoms: N_2  and  C_4
REMARK    4  A    between atoms: C_4  and  C_5
REMARK    5  A    between atoms: C_5  and  C_6
REMARK    6  A    between atoms: C_6  and  N_7
REMARK    7  A    between atoms: C_8  and  C_10
REMARK                            x       y       z     vdW  Elec       q    Type
REMARK                         _______ _______ _______ _____ _____    ______ ____
ROOT
ATOM      1  N   UNL     1      -1.560  12.973  22.141  0.00  0.00    +0.000 N 
ATOM      2  C   UNL     1      -0.761  14.131  22.181  0.00  0.00    +0.000 C 
ATOM      3  O   UNL     1      -0.397  14.612  23.253  0.00  0.00    +0.000 OA
ATOM      4  C   UNL     1      -1.921  12.431  20.926  0.00  0.00    +0.000 A 
ATOM      5  N   UNL     1      -1.299  11.475  20.270  0.00  0.00    +0.000 NA
ATOM      6  C   UNL     1      -1.953  11.263  19.065  0.00  0.00    +0.000 A 
ATOM      7  C   UNL     1      -1.530  10.400  18.024  0.00  0.00    +0.000 A 
ATOM      8  C   UNL     1      -2.342  10.320  16.903  0.00  0.00    +0.000 A 
ATOM      9  C   UNL     1      -3.510  11.030  16.790  0.00  0.00    +0.000 A 
ATOM     10  C   UNL     1      -3.957  11.889  17.771  0.00  0.00    +0.000 A 
ATOM     11  C   UNL     1      -3.139  11.999  18.901  0.00  0.00    +0.000 A 
ATOM     12  S   UNL     1      -3.370  13.019  20.266  0.00  0.00    +0.000 S 
ATOM     13  O   UNL     1      -4.155  10.801  15.616  0.00  0.00    +0.000 OA
ATOM     14  C   UNL     1      -3.257   9.864  14.991  0.00  0.00    +0.000 C 
ATOM     15  O   UNL     1      -2.099   9.558  15.800  0.00  0.00    +0.000 OA
ENDROOT
BRANCH   2  16
ATOM     16  C   UNL     1      -0.352  14.782  20.922  0.00  0.00    +0.000 A 
ATOM     17  C   UNL     1      -1.076  15.790  20.180  0.00  0.00    +0.000 A 
ATOM     18  C   UNL     1      -0.393  16.206  19.066  0.00  0.00    +0.000 A 
ATOM     19 CL   UNL     1      -0.870  17.444  17.978  0.00  0.00    +0.000 Cl
ATOM     20  S   UNL     1       1.044  15.359  18.812  0.00  0.00    +0.000 S 
ATOM     21  C   UNL     1       0.794  14.446  20.224  0.00  0.00    +0.000 A 
ATOM     22 CL   UNL     1       1.991  13.278  20.637  0.00  0.00    +0.000 Cl
ENDBRANCH   2  16
BRANCH   1  23
ATOM     23  C   UNL     1      -1.765  12.194  23.362  0.00  0.00    +0.000 C 
BRANCH  23  24
ATOM     24  C   UNL     1      -3.226  11.973  23.792  0.00  0.00    +0.000 C 
BRANCH  24  25
ATOM     25  C   UNL     1      -3.874  13.125  24.582  0.00  0.00    +0.000 C 
BRANCH  25  27
ATOM     26  C   UNL     1      -5.697  14.386  23.587  0.00  0.00    +0.000 C 
ATOM     27  N   UNL     1      -4.241  14.274  23.725  0.00  0.00    +0.000 NA
ATOM     28  C   UNL     1      -3.708  15.551  24.202  0.00  0.00    +0.000 C 
ENDBRANCH  25  27
ENDBRANCH  24  25
ENDBRANCH  23  24
ENDBRANCH   1  23
TORSDOF 5
ENDMDL
MODEL 4
REMARK VINA RESULT:      -5.7      3.936      7.861
REMARK  Name = 
REMARK  7 active torsions:
REMARK  status: ('A' for Active; 'I' for Inactive)
REMARK    1  A    between atoms: C_1  and  N_2
REMARK    2  A    between atoms: N_2  and  C_3
REMARK    3  A    between atoms: N_2  and  C_4
REMARK    4  A    between atoms: C_4  and  C_5
REMARK    5  A    between atoms: C_5  and  C_6
REMARK    6  A    between atoms: C_6  and  N_7
REMARK    7  A    between atoms: C_8  and  C_10
REMARK                            x       y       z     vdW  Elec       q    Type
REMARK                         _______ _______ _______ _____ _____    ______ ____
ROOT
ATOM      1  N   UNL     1       0.780  12.941  19.359  0.00  0.00    +0.000 N 
ATOM      2  C   UNL     1      -0.457  13.366  18.838  0.00  0.00    +0.000 C 
ATOM      3  O   UNL     1      -0.727  14.563  18.746  0.00  0.00    +0.000 OA
ATOM      4  C   UNL     1       1.074  11.596  19.415  0.00  0.00    +0.000 A 
ATOM      5  N   UNL     1       1.724  10.890  18.516  0.00  0.00    +0.000 NA
ATOM      6  C   UNL     1       1.757   9.565  18.927  0.00  0.00    +0.000 A 
ATOM      7  C   UNL     1       2.262   8.470  18.183  0.00  0.00    +0.000 A 
ATOM      8  C   UNL     1       2.215   7.223  18.787  0.00  0.00    +0.000 A 
ATOM      9  C   UNL     1       1.713   7.037  20.049  0.00  0.00    +0.000 A 
ATOM     10  C   UNL     1       1.202   8.069  20.807  0.00  0.00    +0.000 A 
ATOM     11  C   UNL     1       1.221   9.332  20.205  0.00  0.00    +0.000 A 
ATOM     12  S   UNL     1       0.608  10.806  20.844  0.00  0.00    +0.000 S 
ATOM     13  O   UNL     1       1.767   5.740  20.453  0.00  0.00    +0.000 OA
ATOM     14  C   UNL     1       2.358   5.121  19.296  0.00  0.00    +0.000 C 
ATOM     15  O   UNL     1       2.640   6.055  18.230  0.00  0.00    +0.000 OA
ENDROOT
BRANCH   2  16
ATOM     16  C   UNL     1      -1.448  12.366  18.398  0.00  0.00    +0.000 A 
ATOM     17  C   UNL     1      -1.464  11.637  17.151  0.00  0.00    +0.000 A 
ATOM     18  C   UNL     1      -2.513  10.757  17.077  0.00  0.00    +0.000 A 
ATOM     19 CL   UNL     1      -2.830   9.649  15.805  0.00  0.00    +0.000 Cl
ATOM     20  S   UNL     1      -3.548  10.841  18.406  0.00  0.00    +0.000 S 
ATOM     21  C   UNL     1      -2.576  12.036  19.127  0.00  0.00    +0.000 A 
ATOM     22 CL   UNL     1      -3.069  12.640  20.664  0.00  0.00    +0.000 Cl
ENDBRANCH   2  16
BRANCH   1  23
ATOM     23  C   UNL     1       1.849  13.917  19.570  0.00  0.00    +0.000 C 
BRANCH  23  24
ATOM     24  C   UNL     1       2.674  14.302  18.329  0.00  0.00    +0.000 C 
BRANCH  24  25
ATOM     25  C   UNL     1       2.997  15.800  18.176  0.00  0.00    +0.000 C 
BRANCH  25  27
ATOM     26  C   UNL     1       4.955  16.864  19.142  0.00  0.00    +0.000 C 
ATOM     27  N   UNL     1       4.444  16.063  18.025  0.00  0.00    +0.000 NA
ATOM     28  C   UNL     1       5.250  14.847  17.903  0.00  0.00    +0.000 C 
ENDBRANCH  25  27
ENDBRANCH  24  25
ENDBRANCH  23  24
ENDBRANCH   1  23
TORSDOF 5
ENDMDL
MODEL 5
REMARK VINA RESULT:      -5.7      3.843      7.614
REMARK  Name = 
REMARK  7 active torsions:
REMARK  status: ('A' for Active; 'I' for Inactive)
REMARK    1  A    between atoms: C_1  and  N_2
REMARK    2  A    between atoms: N_2  and  C_3
REMARK    3  A    between atoms: N_2  and  C_4
REMARK    4  A    between atoms: C_4  and  C_5
REMARK    5  A    between atoms: C_5  and  C_6
REMARK    6  A    between atoms: C_6  and  N_7
REMARK    7  A    between atoms: C_8  and  C_10
REMARK                            x       y       z     vdW  Elec       q    Type
REMARK                         _______ _______ _______ _____ _____    ______ ____
ROOT
ATOM      1  N   UNL     1       0.890  12.900  19.241  0.00  0.00    +0.000 N 
ATOM      2  C   UNL     1      -0.358  13.332  18.753  0.00  0.00    +0.000 C 
ATOM      3  O   UNL     1      -0.622  14.530  18.664  0.00  0.00    +0.000 OA
ATOM      4  C   UNL     1       1.176  11.553  19.293  0.00  0.00    +0.000 A 
ATOM      5  N   UNL     1       1.797  10.840  18.379  0.00  0.00    +0.000 NA
ATOM      6  C   UNL     1       1.832   9.516  18.793  0.00  0.00    +0.000 A 
ATOM      7  C   UNL     1       2.309   8.415  18.040  0.00  0.00    +0.000 A 
ATOM      8  C   UNL     1       2.270   7.170  18.650  0.00  0.00    +0.000 A 
ATOM      9  C   UNL     1       1.803   6.992  19.926  0.00  0.00    +0.000 A 
ATOM     10  C   UNL     1       1.320   8.030  20.694  0.00  0.00    +0.000 A 
ATOM     11  C   UNL     1       1.330   9.291  20.087  0.00  0.00    +0.000 A 
ATOM     12  S   UNL     1       0.745  10.772  20.737  0.00  0.00    +0.000 S 
ATOM     13  O   UNL     1       1.859   5.697  20.333  0.00  0.00    +0.000 OA
ATOM     14  C   UNL     1       2.414   5.069  19.162  0.00  0.00    +0.000 C 
ATOM     15  O   UNL     1       2.672   5.998  18.085  0.00  0.00    +0.000 OA
ENDROOT
BRANCH   2  16
ATOM     16  C   UNL     1      -1.368  12.337  18.344  0.00  0.00    +0.000 A 
ATOM     17  C   UNL     1      -1.434  11.617  17.093  0.00  0.00    +0.000 A 
ATOM     18  C   UNL     1      -2.486  10.739  17.053  0.00  0.00    +0.000 A 
ATOM     19 CL   UNL     1      -2.855   9.642  15.786  0.00  0.00    +0.000 Cl
ATOM     20  S   UNL     1      -3.469  10.816  18.422  0.00  0.00    +0.000 S 
ATOM     21  C   UNL     1      -2.467  12.003  19.114  0.00  0.00    +0.000 A 
ATOM     22 CL   UNL     1      -2.899  12.597  20.673  0.00  0.00    +0.000 Cl
ENDBRANCH   2  16
BRANCH   1  23
ATOM     23  C   UNL     1       1.971  13.870  19.418  0.00  0.00    +0.000 C 
BRANCH  23  24
ATOM     24  C   UNL     1       2.735  14.278  18.147  0.00  0.00    +0.000 C 
BRANCH  24  25
ATOM     25  C   UNL     1       3.098  15.770  18.031  0.00  0.00    +0.000 C 
BRANCH  25  27
ATOM     26  C   UNL     1       3.015  17.387  19.842  0.00  0.00    +0.000 C 
ATOM     27  N   UNL     1       2.229  16.638  18.856  0.00  0.00    +0.000 NA
ATOM     28  C   UNL     1       1.428  17.578  18.070  0.00  0.00    +0.000 C 
ENDBRANCH  25  27
ENDBRANCH  24  25
ENDBRANCH  23  24
ENDBRANCH   1  23
TORSDOF 5
ENDMDL
MODEL 6
REMARK VINA RESULT:      -5.6      4.073      7.420
REMARK  Name = 
REMARK  7 active torsions:
REMARK  status: ('A' for Active; 'I' for Inactive)
REMARK    1  A    between atoms: C_1  and  N_2
REMARK    2  A    between atoms: N_2  and  C_3
REMARK    3  A    between atoms: N_2  and  C_4
REMARK    4  A    between atoms: C_4  and  C_5
REMARK    5  A    between atoms: C_5  and  C_6
REMARK    6  A    between atoms: C_6  and  N_7
REMARK    7  A    between atoms: C_8  and  C_10
REMARK                            x       y       z     vdW  Elec       q    Type
REMARK                         _______ _______ _______ _____ _____    ______ ____
ROOT
ATOM      1  N   UNL     1       0.864  12.954  19.213  0.00  0.00    +0.000 N 
ATOM      2  C   UNL     1      -0.395  13.372  18.740  0.00  0.00    +0.000 C 
ATOM      3  O   UNL     1      -0.674  14.567  18.657  0.00  0.00    +0.000 OA
ATOM      4  C   UNL     1       1.167  11.610  19.259  0.00  0.00    +0.000 A 
ATOM      5  N   UNL     1       1.785  10.906  18.336  0.00  0.00    +0.000 NA
ATOM      6  C   UNL     1       1.840   9.582  18.746  0.00  0.00    +0.000 A 
ATOM      7  C   UNL     1       2.321   8.489  17.985  0.00  0.00    +0.000 A 
ATOM      8  C   UNL     1       2.304   7.242  18.592  0.00  0.00    +0.000 A 
ATOM      9  C   UNL     1       1.853   7.055  19.873  0.00  0.00    +0.000 A 
ATOM     10  C   UNL     1       1.367   8.086  20.649  0.00  0.00    +0.000 A 
ATOM     11  C   UNL     1       1.356   9.348  20.045  0.00  0.00    +0.000 A 
ATOM     12  S   UNL     1       0.761  10.820  20.705  0.00  0.00    +0.000 S 
ATOM     13  O   UNL     1       1.929   5.759  20.276  0.00  0.00    +0.000 OA
ATOM     14  C   UNL     1       2.478   5.141  19.096  0.00  0.00    +0.000 C 
ATOM     15  O   UNL     1       2.713   6.075  18.020  0.00  0.00    +0.000 OA
ENDROOT
BRANCH   2  16
ATOM     16  C   UNL     1      -1.397  12.367  18.340  0.00  0.00    +0.000 A 
ATOM     17  C   UNL     1      -1.483  11.666  17.079  0.00  0.00    +0.000 A 
ATOM     18  C   UNL     1      -2.520  10.771  17.050  0.00  0.00    +0.000 A 
ATOM     19 CL   UNL     1      -2.902   9.688  15.775  0.00  0.00    +0.000 Cl
ATOM     20  S   UNL     1      -3.469  10.808  18.445  0.00  0.00    +0.000 S 
ATOM     21  C   UNL     1      -2.471  12.001  19.131  0.00  0.00    +0.000 A 
ATOM     22 CL   UNL     1      -2.873  12.561  20.711  0.00  0.00    +0.000 Cl
ENDBRANCH   2  16
BRANCH   1  23
ATOM     23  C   UNL     1       1.935  13.935  19.381  0.00  0.00    +0.000 C 
BRANCH  23  24
ATOM     24  C   UNL     1       2.827  13.765  20.623  0.00  0.00    +0.000 C 
BRANCH  24  25
ATOM     25  C   UNL     1       2.647  14.820  21.729  0.00  0.00    +0.000 C 
BRANCH  25  27
ATOM     26  C   UNL     1       4.916  14.108  22.224  0.00  0.00    +0.000 C 
ATOM     27  N   UNL     1       3.719  14.775  22.747  0.00  0.00    +0.000 NA
ATOM     28  C   UNL     1       4.095  16.095  23.258  0.00  0.00    +0.000 C 
ENDBRANCH  25  27
ENDBRANCH  24  25
ENDBRANCH  23  24
ENDBRANCH   1  23
TORSDOF 5
ENDMDL
MODEL 7
REMARK VINA RESULT:      -5.6      3.333      6.940
REMARK  Name = 
REMARK  7 active torsions:
REMARK  status: ('A' for Active; 'I' for Inactive)
REMARK    1  A    between atoms: C_1  and  N_2
REMARK    2  A    between atoms: N_2  and  C_3
REMARK    3  A    between atoms: N_2  and  C_4
REMARK    4  A    between atoms: C_4  and  C_5
REMARK    5  A    between atoms: C_5  and  C_6
REMARK    6  A    between atoms: C_6  and  N_7
REMARK    7  A    between atoms: C_8  and  C_10
REMARK                            x       y       z     vdW  Elec       q    Type
REMARK                         _______ _______ _______ _____ _____    ______ ____
ROOT
ATOM      1  N   UNL     1       0.125  13.210  18.814  0.00  0.00    +0.000 N 
ATOM      2  C   UNL     1       1.161  12.415  19.339  0.00  0.00    +0.000 C 
ATOM      3  O   UNL     1       2.341  12.713  19.156  0.00  0.00    +0.000 OA
ATOM      4  C   UNL     1      -1.189  12.878  19.067  0.00  0.00    +0.000 A 
ATOM      5  N   UNL     1      -1.947  13.333  20.041  0.00  0.00    +0.000 NA
ATOM      6  C   UNL     1      -3.182  12.705  19.975  0.00  0.00    +0.000 A 
ATOM      7  C   UNL     1      -4.238  12.833  20.912  0.00  0.00    +0.000 A 
ATOM      8  C   UNL     1      -5.403  12.129  20.649  0.00  0.00    +0.000 A 
ATOM      9  C   UNL     1      -5.551  11.345  19.533  0.00  0.00    +0.000 A 
ATOM     10  C   UNL     1      -4.550  11.182  18.599  0.00  0.00    +0.000 A 
ATOM     11  C   UNL     1      -3.359  11.868  18.859  0.00  0.00    +0.000 A 
ATOM     12  S   UNL     1      -1.907  11.831  17.940  0.00  0.00    +0.000 S 
ATOM     13  O   UNL     1      -6.771  10.750  19.465  0.00  0.00    +0.000 OA
ATOM     14  C   UNL     1      -7.381  11.244  20.672  0.00  0.00    +0.000 C 
ATOM     15  O   UNL     1      -6.516  12.116  21.433  0.00  0.00    +0.000 OA
ENDROOT
BRANCH   2  16
ATOM     16  C   UNL     1       0.834  11.207  20.118  0.00  0.00    +0.000 A 
ATOM     17  C   UNL     1       0.458  11.136  21.511  0.00  0.00    +0.000 A 
ATOM     18  C   UNL     1       0.187   9.853  21.913  0.00  0.00    +0.000 A 
ATOM     19 CL   UNL     1      -0.375   9.362  23.458  0.00  0.00    +0.000 Cl
ATOM     20  S   UNL     1       0.466   8.706  20.708  0.00  0.00    +0.000 S 
ATOM     21  C   UNL     1       0.915   9.924  19.608  0.00  0.00    +0.000 A 
ATOM     22 CL   UNL     1       1.357   9.433  18.016  0.00  0.00    +0.000 Cl
ENDBRANCH   2  16
BRANCH   1  23
ATOM     23  C   UNL     1       0.435  14.525  18.254  0.00  0.00    +0.000 C 
BRANCH  23  24
ATOM     24  C   UNL     1       0.697  15.653  19.267  0.00  0.00    +0.000 C 
BRANCH  24  25
ATOM     25  C   UNL     1       2.123  16.234  19.271  0.00  0.00    +0.000 C 
BRANCH  25  27
ATOM     26  C   UNL     1       2.790  17.112  17.106  0.00  0.00    +0.000 C 
ATOM     27  N   UNL     1       2.857  15.964  18.016  0.00  0.00    +0.000 NA
ATOM     28  C   UNL     1       4.261  15.604  18.226  0.00  0.00    +0.000 C 
ENDBRANCH  25  27
ENDBRANCH  24  25
ENDBRANCH  23  24
ENDBRANCH   1  23
TORSDOF 5
ENDMDL
MODEL 8
REMARK VINA RESULT:      -5.6      3.737      7.465
REMARK  Name = 
REMARK  7 active torsions:
REMARK  status: ('A' for Active; 'I' for Inactive)
REMARK    1  A    between atoms: C_1  and  N_2
REMARK    2  A    between atoms: N_2  and  C_3
REMARK    3  A    between atoms: N_2  and  C_4
REMARK    4  A    between atoms: C_4  and  C_5
REMARK    5  A    between atoms: C_5  and  C_6
REMARK    6  A    between atoms: C_6  and  N_7
REMARK    7  A    between atoms: C_8  and  C_10
REMARK                            x       y       z     vdW  Elec       q    Type
REMARK                         _______ _______ _______ _____ _____    ______ ____
ROOT
ATOM      1  N   UNL     1       0.899  11.340  19.133  0.00  0.00    +0.000 N 
ATOM      2  C   UNL     1       1.890  12.322  18.942  0.00  0.00    +0.000 C 
ATOM      3  O   UNL     1       2.802  12.152  18.135  0.00  0.00    +0.000 OA
ATOM      4  C   UNL     1      -0.134  11.572  20.015  0.00  0.00    +0.000 A 
ATOM      5  N   UNL     1      -1.320  12.066  19.732  0.00  0.00    +0.000 NA
ATOM      6  C   UNL     1      -2.043  12.192  20.909  0.00  0.00    +0.000 A 
ATOM      7  C   UNL     1      -3.320  12.791  21.048  0.00  0.00    +0.000 A 
ATOM      8  C   UNL     1      -3.878  12.800  22.317  0.00  0.00    +0.000 A 
ATOM      9  C   UNL     1      -3.243  12.252  23.402  0.00  0.00    +0.000 A 
ATOM     10  C   UNL     1      -1.997  11.668  23.319  0.00  0.00    +0.000 A 
ATOM     11  C   UNL     1      -1.409  11.669  22.050  0.00  0.00    +0.000 A 
ATOM     12  S   UNL     1       0.149  11.084  21.616  0.00  0.00    +0.000 S 
ATOM     13  O   UNL     1      -3.966  12.361  24.547  0.00  0.00    +0.000 OA
ATOM     14  C   UNL     1      -5.136  13.049  24.065  0.00  0.00    +0.000 C 
ATOM     15  O   UNL     1      -5.085  13.337  22.650  0.00  0.00    +0.000 OA
ENDROOT
BRANCH   2  16
ATOM     16  C   UNL     1       1.839  13.574  19.721  0.00  0.00    +0.000 A 
ATOM     17  C   UNL     1       2.591  13.897  20.913  0.00  0.00    +0.000 A 
ATOM     18  C   UNL     1       2.328  15.164  21.366  0.00  0.00    +0.000 A 
ATOM     19 CL   UNL     1       3.079  15.951  22.693  0.00  0.00    +0.000 Cl
ATOM     20  S   UNL     1       1.131  15.953  20.477  0.00  0.00    +0.000 S 
ATOM     21  C   UNL     1       0.977  14.616  19.437  0.00  0.00    +0.000 A 
ATOM     22 CL   UNL     1      -0.168  14.736  18.154  0.00  0.00    +0.000 Cl
ENDBRANCH   2  16
BRANCH   1  23
ATOM     23  C   UNL     1       0.808  10.216  18.203  0.00  0.00    +0.000 C 
BRANCH  23  24
ATOM     24  C   UNL     1       1.524   8.921  18.626  0.00  0.00    +0.000 C 
BRANCH  24  25
ATOM     25  C   UNL     1       2.471   8.305  17.580  0.00  0.00    +0.000 C 
BRANCH  25  27
ATOM     26  C   UNL     1       2.425   5.957  18.205  0.00  0.00    +0.000 C 
ATOM     27  N   UNL     1       3.251   7.166  18.112  0.00  0.00    +0.000 NA
ATOM     28  C   UNL     1       4.450   6.864  17.329  0.00  0.00    +0.000 C 
ENDBRANCH  25  27
ENDBRANCH  24  25
ENDBRANCH  23  24
ENDBRANCH   1  23
TORSDOF 5
ENDMDL
MODEL 9
REMARK VINA RESULT:      -5.5      1.074      1.833
REMARK  Name = 
REMARK  7 active torsions:
REMARK  status: ('A' for Active; 'I' for Inactive)
REMARK    1  A    between atoms: C_1  and  N_2
REMARK    2  A    between atoms: N_2  and  C_3
REMARK    3  A    between atoms: N_2  and  C_4
REMARK    4  A    between atoms: C_4  and  C_5
REMARK    5  A    between atoms: C_5  and  C_6
REMARK    6  A    between atoms: C_6  and  N_7
REMARK    7  A    between atoms: C_8  and  C_10
REMARK                            x       y       z     vdW  Elec       q    Type
REMARK                         _______ _______ _______ _____ _____    ______ ____
ROOT
ATOM      1  N   UNL     1      -0.790  13.654  22.584  0.00  0.00    +0.000 N 
ATOM      2  C   UNL     1      -0.954  12.284  22.303  0.00  0.00    +0.000 C 
ATOM      3  O   UNL     1      -1.305  11.496  23.180  0.00  0.00    +0.000 OA
ATOM      4  C   UNL     1      -0.434  14.522  21.574  0.00  0.00    +0.000 A 
ATOM      5  N   UNL     1      -1.243  15.237  20.824  0.00  0.00    +0.000 NA
ATOM      6  C   UNL     1      -0.488  15.934  19.892  0.00  0.00    +0.000 A 
ATOM      7  C   UNL     1      -0.991  16.726  18.830  0.00  0.00    +0.000 A 
ATOM      8  C   UNL     1      -0.060  17.355  18.017  0.00  0.00    +0.000 A 
ATOM      9  C   UNL     1       1.291  17.236  18.220  0.00  0.00    +0.000 A 
ATOM     10  C   UNL     1       1.827  16.471  19.232  0.00  0.00    +0.000 A 
ATOM     11  C   UNL     1       0.903  15.810  20.050  0.00  0.00    +0.000 A 
ATOM     12  S   UNL     1       1.235  14.736  21.350  0.00  0.00    +0.000 S 
ATOM     13  O   UNL     1       2.024  17.939  17.316  0.00  0.00    +0.000 OA
ATOM     14  C   UNL     1       0.979  18.515  16.509  0.00  0.00    +0.000 C 
ATOM     15  O   UNL     1      -0.348  18.144  16.944  0.00  0.00    +0.000 OA
ENDROOT
BRANCH   2  16
ATOM     16  C   UNL     1      -0.699  11.781  20.940  0.00  0.00    +0.000 A 
ATOM     17  C   UNL     1       0.529  11.218  20.427  0.00  0.00    +0.000 A 
ATOM     18  C   UNL     1       0.413  10.817  19.121  0.00  0.00    +0.000 A 
ATOM     19 CL   UNL     1       1.612  10.024  18.184  0.00  0.00    +0.000 Cl
ATOM     20  S   UNL     1      -1.088  11.184  18.444  0.00  0.00    +0.000 S 
ATOM     21  C   UNL     1      -1.624  11.850  19.914  0.00  0.00    +0.000 A 
ATOM     22 CL   UNL     1      -3.232  12.470  19.966  0.00  0.00    +0.000 Cl
ENDBRANCH   2  16
BRANCH   1  23
ATOM     23  C   UNL     1      -1.268  14.192  23.856  0.00  0.00    +0.000 C 
BRANCH  23  24
ATOM     24  C   UNL     1      -2.768  14.523  23.936  0.00  0.00    +0.000 C 
BRANCH  24  25
ATOM     25  C   UNL     1      -3.122  16.019  24.026  0.00  0.00    +0.000 C 
BRANCH  25  27
ATOM     26  C   UNL     1      -1.845  17.911  23.192  0.00  0.00    +0.000 C 
ATOM     27  N   UNL     1      -1.936  16.879  24.230  0.00  0.00    +0.000 NA
ATOM     28  C   UNL     1      -1.900  17.521  25.545  0.00  0.00    +0.000 C 
ENDBRANCH  25  27
ENDBRANCH  24  25
ENDBRANCH  23  24
ENDBRANCH   1  23
TORSDOF 5
ENDMDL
