MODEL 1
REMARK VINA RESULT:      -7.6      0.000      0.000
REMARK  Name = 
REMARK  11 active torsions:
REMARK  status: ('A' for Active; 'I' for Inactive)
REMARK    1  A    between atoms: C_1  and  O_2
REMARK    2  A    between atoms: O_2  and  C_3
REMARK    3  A    between atoms: C_3  and  C_4
REMARK    4  A    between atoms: C_4  and  C_5
REMARK    5  A    between atoms: C_5  and  N_6
REMARK    6  A    between atoms: C_7  and  S_8
REMARK    7  A    between atoms: S_8  and  C_9
REMARK    8  A    between atoms: C_9  and  C_10
REMARK    9  A    between atoms: N_12  and  C_13
REMARK   10  A    between atoms: C_22  and  C_23
REMARK   11  A    between atoms: C_27  and  C_28
REMARK                            x       y       z     vdW  Elec       q    Type
REMARK                         _______ _______ _______ _____ _____    ______ ____
ROOT
ATOM      1  N   UNL     1       4.477   5.589  18.330  0.00  0.00    +0.000 N 
ATOM      2  C   UNL     1       5.823   5.816  18.150  0.00  0.00    +0.000 A 
ATOM      3  N   UNL     1       6.518   4.947  18.842  0.00  0.00    +0.000 NA
ATOM      4  N   UNL     1       5.634   4.154  19.532  0.00  0.00    +0.000 NA
ATOM      5  C   UNL     1       4.403   4.527  19.232  0.00  0.00    +0.000 A 
ENDROOT
BRANCH   5   6
ATOM      6  C   UNL     1       3.180   3.872  19.821  0.00  0.00    +0.000 A 
ATOM      7  C   UNL     1       2.302   4.314  20.846  0.00  0.00    +0.000 A 
ATOM      8  C   UNL     1       1.349   3.335  21.006  0.00  0.00    +0.000 A 
ATOM      9  O   UNL     1       1.578   2.314  20.149  0.00  0.00    +0.000 OA
ATOM     10  C   UNL     1       2.690   2.636  19.425  0.00  0.00    +0.000 A 
ATOM     11  C   UNL     1       3.116   1.621  18.438  0.00  0.00    +0.000 C 
ENDBRANCH   5   6
BRANCH   1  12
ATOM     12  C   UNL     1       3.302   6.248  17.796  0.00  0.00    +0.000 C 
BRANCH  12  13
ATOM     13  C   UNL     1       2.608   7.372  18.560  0.00  0.00    +0.000 C 
BRANCH  13  14
ATOM     14  C   UNL     1       2.352   8.588  17.677  0.00  0.00    +0.000 C 
BRANCH  14  16
ATOM     15  C   UNL     1       0.450   9.819  18.315  0.00  0.00    +0.000 C 
ATOM     16  O   UNL     1       1.854   9.655  18.481  0.00  0.00    +0.000 OA
ENDBRANCH  14  16
ENDBRANCH  13  14
ENDBRANCH  12  13
ENDBRANCH   1  12
BRANCH   2  17
ATOM     17  S   UNL     1       6.517   7.129  17.260  0.00  0.00    +0.000 S 
BRANCH  17  18
ATOM     18  C   UNL     1       8.113   7.438  18.076  0.00  0.00    +0.000 C 
BRANCH  18  19
ATOM     19  C   UNL     1       8.269   8.952  18.284  0.00  0.00    +0.000 C 
ATOM     20  O   UNL     1       7.587   9.751  17.639  0.00  0.00    +0.000 OA
ATOM     21  N   UNL     1       9.250   9.318  19.196  0.00  0.00    +0.000 N 
ATOM     22  H   UNL     1       9.880   8.599  19.543  0.00  0.00    +0.000 HD
BRANCH  21  23
ATOM     23  C   UNL     1       9.587  10.643  19.585  0.00  0.00    +0.000 A 
ATOM     24  C   UNL     1       9.320  11.180  20.848  0.00  0.00    +0.000 A 
ATOM     25  C   UNL     1       9.655  12.510  21.145  0.00  0.00    +0.000 A 
ATOM     26  C   UNL     1      10.263  13.318  20.187  0.00  0.00    +0.000 A 
ATOM     27  C   UNL     1      10.559  12.792  18.932  0.00  0.00    +0.000 A 
ATOM     28  C   UNL     1      10.234  11.464  18.648  0.00  0.00    +0.000 A 
ATOM     29  F   UNL     1      10.521  10.977  17.430  0.00  0.00    +0.000 F 
ENDBRANCH  21  23
ENDBRANCH  18  19
ENDBRANCH  17  18
ENDBRANCH   2  17
TORSDOF 9
ENDMDL
MODEL 2
REMARK VINA RESULT:      -7.6      3.748      5.736
REMARK  Name = 
REMARK  11 active torsions:
REMARK  status: ('A' for Active; 'I' for Inactive)
REMARK    1  A    between atoms: C_1  and  O_2
REMARK    2  A    between atoms: O_2  and  C_3
REMARK    3  A    between atoms: C_3  and  C_4
REMARK    4  A    between atoms: C_4  and  C_5
REMARK    5  A    between atoms: C_5  and  N_6
REMARK    6  A    between atoms: C_7  and  S_8
REMARK    7  A    between atoms: S_8  and  C_9
REMARK    8  A    between atoms: C_9  and  C_10
REMARK    9  A    between atoms: N_12  and  C_13
REMARK   10  A    between atoms: C_22  and  C_23
REMARK   11  A    between atoms: C_27  and  C_28
REMARK                            x       y       z     vdW  Elec       q    Type
REMARK                         _______ _______ _______ _____ _____    ______ ____
ROOT
ATOM      1  N   UNL     1       4.029   5.257  18.386  0.00  0.00    +0.000 N 
ATOM      2  C   UNL     1       5.372   5.509  18.560  0.00  0.00    +0.000 A 
ATOM      3  N   UNL     1       5.933   4.512  19.198  0.00  0.00    +0.000 NA
ATOM      4  N   UNL     1       4.952   3.599  19.499  0.00  0.00    +0.000 NA
ATOM      5  C   UNL     1       3.803   4.032  19.015  0.00  0.00    +0.000 A 
ENDROOT
BRANCH   5   6
ATOM      6  C   UNL     1       2.508   3.276  19.172  0.00  0.00    +0.000 A 
ATOM      7  C   UNL     1       1.692   2.636  18.203  0.00  0.00    +0.000 A 
ATOM      8  C   UNL     1       0.618   2.100  18.875  0.00  0.00    +0.000 A 
ATOM      9  O   UNL     1       0.713   2.366  20.197  0.00  0.00    +0.000 OA
ATOM     10  C   UNL     1       1.862   3.081  20.384  0.00  0.00    +0.000 A 
ATOM     11  C   UNL     1       2.131   3.488  21.780  0.00  0.00    +0.000 C 
ENDBRANCH   5   6
BRANCH   1  12
ATOM     12  C   UNL     1       2.973   6.018  17.750  0.00  0.00    +0.000 C 
BRANCH  12  13
ATOM     13  C   UNL     1       2.256   7.147  18.486  0.00  0.00    +0.000 C 
BRANCH  13  14
ATOM     14  C   UNL     1       2.481   8.498  17.816  0.00  0.00    +0.000 C 
BRANCH  14  16
ATOM     15  C   UNL     1       1.119  10.209  18.686  0.00  0.00    +0.000 C 
ATOM     16  O   UNL     1       1.235   9.182  17.708  0.00  0.00    +0.000 OA
ENDBRANCH  14  16
ENDBRANCH  13  14
ENDBRANCH  12  13
ENDBRANCH   1  12
BRANCH   2  17
ATOM     17  S   UNL     1       6.189   6.974  18.132  0.00  0.00    +0.000 S 
BRANCH  17  18
ATOM     18  C   UNL     1       7.817   6.428  17.533  0.00  0.00    +0.000 C 
BRANCH  18  19
ATOM     19  C   UNL     1       7.606   5.327  16.482  0.00  0.00    +0.000 C 
ATOM     20  O   UNL     1       7.960   4.168  16.704  0.00  0.00    +0.000 OA
ATOM     21  N   UNL     1       7.046   5.759  15.287  0.00  0.00    +0.000 N 
ATOM     22  H   UNL     1       6.953   6.760  15.131  0.00  0.00    +0.000 HD
BRANCH  21  23
ATOM     23  C   UNL     1       6.731   4.950  14.162  0.00  0.00    +0.000 A 
ATOM     24  C   UNL     1       5.615   4.112  14.089  0.00  0.00    +0.000 A 
ATOM     25  C   UNL     1       5.390   3.317  12.953  0.00  0.00    +0.000 A 
ATOM     26  C   UNL     1       6.276   3.352  11.878  0.00  0.00    +0.000 A 
ATOM     27  C   UNL     1       7.380   4.199  11.925  0.00  0.00    +0.000 A 
ATOM     28  C   UNL     1       7.590   4.996  13.052  0.00  0.00    +0.000 A 
ATOM     29  F   UNL     1       8.664   5.802  13.080  0.00  0.00    +0.000 F 
ENDBRANCH  21  23
ENDBRANCH  18  19
ENDBRANCH  17  18
ENDBRANCH   2  17
TORSDOF 9
ENDMDL
MODEL 3
REMARK VINA RESULT:      -7.5      1.051      1.387
REMARK  Name = 
REMARK  11 active torsions:
REMARK  status: ('A' for Active; 'I' for Inactive)
REMARK    1  A    between atoms: C_1  and  O_2
REMARK    2  A    between atoms: O_2  and  C_3
REMARK    3  A    between atoms: C_3  and  C_4
REMARK    4  A    between atoms: C_4  and  C_5
REMARK    5  A    between atoms: C_5  and  N_6
REMARK    6  A    between atoms: C_7  and  S_8
REMARK    7  A    between atoms: S_8  and  C_9
REMARK    8  A    between atoms: C_9  and  C_10
REMARK    9  A    between atoms: N_12  and  C_13
REMARK   10  A    between atoms: C_22  and  C_23
REMARK   11  A    between atoms: C_27  and  C_28
REMARK                            x       y       z     vdW  Elec       q    Type
REMARK                         _______ _______ _______ _____ _____    ______ ____
ROOT
ATOM      1  N   UNL     1       4.695   5.755  18.206  0.00  0.00    +0.000 N 
ATOM      2  C   UNL     1       6.068   5.756  18.109  0.00  0.00    +0.000 A 
ATOM      3  N   UNL     1       6.564   4.758  18.798  0.00  0.00    +0.000 NA
ATOM      4  N   UNL     1       5.519   4.103  19.403  0.00  0.00    +0.000 NA
ATOM      5  C   UNL     1       4.389   4.690  19.055  0.00  0.00    +0.000 A 
ENDROOT
BRANCH   5   6
ATOM      6  C   UNL     1       3.040   4.232  19.547  0.00  0.00    +0.000 A 
ATOM      7  C   UNL     1       2.313   4.596  20.711  0.00  0.00    +0.000 A 
ATOM      8  C   UNL     1       1.138   3.880  20.689  0.00  0.00    +0.000 A 
ATOM      9  O   UNL     1       1.089   3.095  19.588  0.00  0.00    +0.000 OA
ATOM     10  C   UNL     1       2.243   3.306  18.890  0.00  0.00    +0.000 A 
ATOM     11  C   UNL     1       2.385   2.511  17.652  0.00  0.00    +0.000 C 
ENDBRANCH   5   6
BRANCH   1  12
ATOM     12  C   UNL     1       3.681   6.622  17.641  0.00  0.00    +0.000 C 
BRANCH  12  13
ATOM     13  C   UNL     1       2.910   7.611  18.510  0.00  0.00    +0.000 C 
BRANCH  13  14
ATOM     14  C   UNL     1       1.826   8.339  17.722  0.00  0.00    +0.000 C 
BRANCH  14  16
ATOM     15  C   UNL     1       1.622  10.555  18.490  0.00  0.00    +0.000 C 
ATOM     16  O   UNL     1       2.219   9.696  17.526  0.00  0.00    +0.000 OA
ENDBRANCH  14  16
ENDBRANCH  13  14
ENDBRANCH  12  13
ENDBRANCH   1  12
BRANCH   2  17
ATOM     17  S   UNL     1       7.025   6.963  17.318  0.00  0.00    +0.000 S 
BRANCH  17  18
ATOM     18  C   UNL     1       8.228   7.486  18.576  0.00  0.00    +0.000 C 
BRANCH  18  19
ATOM     19  C   UNL     1       8.451   9.000  18.439  0.00  0.00    +0.000 C 
ATOM     20  O   UNL     1       7.807   9.660  17.621  0.00  0.00    +0.000 OA
ATOM     21  N   UNL     1       9.444   9.521  19.257  0.00  0.00    +0.000 N 
ATOM     22  H   UNL     1      10.040   8.873  19.766  0.00  0.00    +0.000 HD
BRANCH  21  23
ATOM     23  C   UNL     1       9.838  10.884  19.341  0.00  0.00    +0.000 A 
ATOM     24  C   UNL     1      10.395  11.604  18.281  0.00  0.00    +0.000 A 
ATOM     25  C   UNL     1      10.790  12.941  18.452  0.00  0.00    +0.000 A 
ATOM     26  C   UNL     1      10.631  13.573  19.683  0.00  0.00    +0.000 A 
ATOM     27  C   UNL     1      10.055  12.878  20.743  0.00  0.00    +0.000 A 
ATOM     28  C   UNL     1       9.653  11.553  20.562  0.00  0.00    +0.000 A 
ATOM     29  F   UNL     1       9.106  10.898  21.598  0.00  0.00    +0.000 F 
ENDBRANCH  21  23
ENDBRANCH  18  19
ENDBRANCH  17  18
ENDBRANCH   2  17
TORSDOF 9
ENDMDL
MODEL 4
REMARK VINA RESULT:      -7.5      4.225      7.929
REMARK  Name = 
REMARK  11 active torsions:
REMARK  status: ('A' for Active; 'I' for Inactive)
REMARK    1  A    between atoms: C_1  and  O_2
REMARK    2  A    between atoms: O_2  and  C_3
REMARK    3  A    between atoms: C_3  and  C_4
REMARK    4  A    between atoms: C_4  and  C_5
REMARK    5  A    between atoms: C_5  and  N_6
REMARK    6  A    between atoms: C_7  and  S_8
REMARK    7  A    between atoms: S_8  and  C_9
REMARK    8  A    between atoms: C_9  and  C_10
REMARK    9  A    between atoms: N_12  and  C_13
REMARK   10  A    between atoms: C_22  and  C_23
REMARK   11  A    between atoms: C_27  and  C_28
REMARK                            x       y       z     vdW  Elec       q    Type
REMARK                         _______ _______ _______ _____ _____    ______ ____
ROOT
ATOM      1  N   UNL     1       3.637   5.642  18.441  0.00  0.00    +0.000 N 
ATOM      2  C   UNL     1       2.741   6.533  18.987  0.00  0.00    +0.000 A 
ATOM      3  N   UNL     1       2.822   7.683  18.364  0.00  0.00    +0.000 NA
ATOM      4  N   UNL     1       3.813   7.582  17.418  0.00  0.00    +0.000 NA
ATOM      5  C   UNL     1       4.311   6.360  17.451  0.00  0.00    +0.000 A 
ENDROOT
BRANCH   5   6
ATOM      6  C   UNL     1       5.427   5.903  16.548  0.00  0.00    +0.000 A 
ATOM      7  C   UNL     1       5.400   5.066  15.401  0.00  0.00    +0.000 A 
ATOM      8  C   UNL     1       6.696   4.962  14.952  0.00  0.00    +0.000 A 
ATOM      9  O   UNL     1       7.526   5.678  15.744  0.00  0.00    +0.000 OA
ATOM     10  C   UNL     1       6.759   6.253  16.717  0.00  0.00    +0.000 A 
ATOM     11  C   UNL     1       7.500   7.068  17.703  0.00  0.00    +0.000 C 
ENDBRANCH   5   6
BRANCH   1  12
ATOM     12  C   UNL     1       3.941   4.259  18.750  0.00  0.00    +0.000 C 
BRANCH  12  13
ATOM     13  C   UNL     1       3.227   3.113  18.038  0.00  0.00    +0.000 C 
BRANCH  13  14
ATOM     14  C   UNL     1       3.154   1.861  18.906  0.00  0.00    +0.000 C 
BRANCH  14  16
ATOM     15  C   UNL     1       0.895   2.500  18.736  0.00  0.00    +0.000 C 
ATOM     16  O   UNL     1       1.856   1.769  19.489  0.00  0.00    +0.000 OA
ENDBRANCH  14  16
ENDBRANCH  13  14
ENDBRANCH  12  13
ENDBRANCH   1  12
BRANCH   2  17
ATOM     17  S   UNL     1       1.748   6.246  20.375  0.00  0.00    +0.000 S 
BRANCH  17  18
ATOM     18  C   UNL     1       1.794   7.811  21.299  0.00  0.00    +0.000 C 
BRANCH  18  19
ATOM     19  C   UNL     1       0.499   8.587  21.010  0.00  0.00    +0.000 C 
ATOM     20  O   UNL     1      -0.538   8.334  21.625  0.00  0.00    +0.000 OA
ATOM     21  N   UNL     1       0.596   9.526  19.992  0.00  0.00    +0.000 N 
ATOM     22  H   UNL     1       1.439   9.538  19.424  0.00  0.00    +0.000 HD
BRANCH  21  23
ATOM     23  C   UNL     1      -0.440  10.386  19.537  0.00  0.00    +0.000 A 
ATOM     24  C   UNL     1      -1.059  11.355  20.331  0.00  0.00    +0.000 A 
ATOM     25  C   UNL     1      -2.099  12.145  19.817  0.00  0.00    +0.000 A 
ATOM     26  C   UNL     1      -2.532  11.977  18.504  0.00  0.00    +0.000 A 
ATOM     27  C   UNL     1      -1.911  11.033  17.691  0.00  0.00    +0.000 A 
ATOM     28  C   UNL     1      -0.868  10.260  18.205  0.00  0.00    +0.000 A 
ATOM     29  F   UNL     1      -0.286   9.350  17.407  0.00  0.00    +0.000 F 
ENDBRANCH  21  23
ENDBRANCH  18  19
ENDBRANCH  17  18
ENDBRANCH   2  17
TORSDOF 9
ENDMDL
MODEL 5
REMARK VINA RESULT:      -7.3      4.214      7.513
REMARK  Name = 
REMARK  11 active torsions:
REMARK  status: ('A' for Active; 'I' for Inactive)
REMARK    1  A    between atoms: C_1  and  O_2
REMARK    2  A    between atoms: O_2  and  C_3
REMARK    3  A    between atoms: C_3  and  C_4
REMARK    4  A    between atoms: C_4  and  C_5
REMARK    5  A    between atoms: C_5  and  N_6
REMARK    6  A    between atoms: C_7  and  S_8
REMARK    7  A    between atoms: S_8  and  C_9
REMARK    8  A    between atoms: C_9  and  C_10
REMARK    9  A    between atoms: N_12  and  C_13
REMARK   10  A    between atoms: C_22  and  C_23
REMARK   11  A    between atoms: C_27  and  C_28
REMARK                            x       y       z     vdW  Elec       q    Type
REMARK                         _______ _______ _______ _____ _____    ______ ____
ROOT
ATOM      1  N   UNL     1       3.554   5.381  18.272  0.00  0.00    +0.000 N 
ATOM      2  C   UNL     1       2.727   6.343  18.808  0.00  0.00    +0.000 A 
ATOM      3  N   UNL     1       2.939   7.492  18.215  0.00  0.00    +0.000 NA
ATOM      4  N   UNL     1       3.950   7.316  17.301  0.00  0.00    +0.000 NA
ATOM      5  C   UNL     1       4.328   6.051  17.323  0.00  0.00    +0.000 A 
ENDROOT
BRANCH   5   6
ATOM      6  C   UNL     1       5.429   5.508  16.448  0.00  0.00    +0.000 A 
ATOM      7  C   UNL     1       5.369   4.642  15.325  0.00  0.00    +0.000 A 
ATOM      8  C   UNL     1       6.662   4.453  14.896  0.00  0.00    +0.000 A 
ATOM      9  O   UNL     1       7.521   5.144  15.680  0.00  0.00    +0.000 OA
ATOM     10  C   UNL     1       6.776   5.788  16.626  0.00  0.00    +0.000 A 
ATOM     11  C   UNL     1       7.548   6.588  17.600  0.00  0.00    +0.000 C 
ENDBRANCH   5   6
BRANCH   1  12
ATOM     12  C   UNL     1       3.715   3.970  18.559  0.00  0.00    +0.000 C 
BRANCH  12  13
ATOM     13  C   UNL     1       2.659   2.951  18.141  0.00  0.00    +0.000 C 
BRANCH  13  14
ATOM     14  C   UNL     1       2.311   1.992  19.274  0.00  0.00    +0.000 C 
BRANCH  14  16
ATOM     15  C   UNL     1       1.568   2.607  21.421  0.00  0.00    +0.000 C 
ATOM     16  O   UNL     1       2.668   2.587  20.519  0.00  0.00    +0.000 OA
ENDBRANCH  14  16
ENDBRANCH  13  14
ENDBRANCH  12  13
ENDBRANCH   1  12
BRANCH   2  17
ATOM     17  S   UNL     1       1.662   6.125  20.154  0.00  0.00    +0.000 S 
BRANCH  17  18
ATOM     18  C   UNL     1       1.890   7.621  21.162  0.00  0.00    +0.000 C 
BRANCH  18  19
ATOM     19  C   UNL     1       0.788   8.627  20.799  0.00  0.00    +0.000 C 
ATOM     20  O   UNL     1      -0.254   8.686  21.455  0.00  0.00    +0.000 OA
ATOM     21  N   UNL     1       1.047   9.396  19.672  0.00  0.00    +0.000 N 
ATOM     22  H   UNL     1       1.848   9.152  19.095  0.00  0.00    +0.000 HD
BRANCH  21  23
ATOM     23  C   UNL     1       0.208  10.407  19.130  0.00  0.00    +0.000 A 
ATOM     24  C   UNL     1      -0.933  10.150  18.364  0.00  0.00    +0.000 A 
ATOM     25  C   UNL     1      -1.693  11.206  17.836  0.00  0.00    +0.000 A 
ATOM     26  C   UNL     1      -1.323  12.529  18.067  0.00  0.00    +0.000 A 
ATOM     27  C   UNL     1      -0.203  12.803  18.848  0.00  0.00    +0.000 A 
ATOM     28  C   UNL     1       0.541  11.748  19.381  0.00  0.00    +0.000 A 
ATOM     29  F   UNL     1       1.621  12.033  20.125  0.00  0.00    +0.000 F 
ENDBRANCH  21  23
ENDBRANCH  18  19
ENDBRANCH  17  18
ENDBRANCH   2  17
TORSDOF 9
ENDMDL
MODEL 6
REMARK VINA RESULT:      -7.3      3.862      5.738
REMARK  Name = 
REMARK  11 active torsions:
REMARK  status: ('A' for Active; 'I' for Inactive)
REMARK    1  A    between atoms: C_1  and  O_2
REMARK    2  A    between atoms: O_2  and  C_3
REMARK    3  A    between atoms: C_3  and  C_4
REMARK    4  A    between atoms: C_4  and  C_5
REMARK    5  A    between atoms: C_5  and  N_6
REMARK    6  A    between atoms: C_7  and  S_8
REMARK    7  A    between atoms: S_8  and  C_9
REMARK    8  A    between atoms: C_9  and  C_10
REMARK    9  A    between atoms: N_12  and  C_13
REMARK   10  A    between atoms: C_22  and  C_23
REMARK   11  A    between atoms: C_27  and  C_28
REMARK                            x       y       z     vdW  Elec       q    Type
REMARK                         _______ _______ _______ _____ _____    ______ ____
ROOT
ATOM      1  N   UNL     1       4.777   5.330  19.045  0.00  0.00    +0.000 N 
ATOM      2  C   UNL     1       6.073   5.073  18.658  0.00  0.00    +0.000 A 
ATOM      3  N   UNL     1       6.288   3.781  18.653  0.00  0.00    +0.000 NA
ATOM      4  N   UNL     1       5.141   3.160  19.084  0.00  0.00    +0.000 NA
ATOM      5  C   UNL     1       4.223   4.079  19.322  0.00  0.00    +0.000 A 
ENDROOT
BRANCH   5   6
ATOM      6  C   UNL     1       2.840   3.749  19.821  0.00  0.00    +0.000 A 
ATOM      7  C   UNL     1       2.388   3.400  21.121  0.00  0.00    +0.000 A 
ATOM      8  C   UNL     1       1.032   3.190  21.030  0.00  0.00    +0.000 A 
ATOM      9  O   UNL     1       0.611   3.385  19.760  0.00  0.00    +0.000 OA
ATOM     10  C   UNL     1       1.707   3.725  19.019  0.00  0.00    +0.000 A 
ATOM     11  C   UNL     1       1.449   3.959  17.583  0.00  0.00    +0.000 C 
ENDBRANCH   5   6
BRANCH   1  12
ATOM     12  C   UNL     1       4.040   6.567  19.208  0.00  0.00    +0.000 C 
BRANCH  12  13
ATOM     13  C   UNL     1       3.084   7.068  18.129  0.00  0.00    +0.000 C 
BRANCH  13  14
ATOM     14  C   UNL     1       2.204   8.208  18.631  0.00  0.00    +0.000 C 
BRANCH  14  16
ATOM     15  C   UNL     1       1.831  10.468  18.089  0.00  0.00    +0.000 C 
ATOM     16  O   UNL     1       2.015   9.152  17.580  0.00  0.00    +0.000 OA
ENDBRANCH  14  16
ENDBRANCH  13  14
ENDBRANCH  12  13
ENDBRANCH   1  12
BRANCH   2  17
ATOM     17  S   UNL     1       7.292   6.264  18.353  0.00  0.00    +0.000 S 
BRANCH  17  18
ATOM     18  C   UNL     1       6.497   7.452  17.230  0.00  0.00    +0.000 C 
BRANCH  18  19
ATOM     19  C   UNL     1       6.094   6.714  15.945  0.00  0.00    +0.000 C 
ATOM     20  O   UNL     1       4.988   6.897  15.433  0.00  0.00    +0.000 OA
ATOM     21  N   UNL     1       7.041   5.819  15.464  0.00  0.00    +0.000 N 
ATOM     22  H   UNL     1       7.844   5.605  16.049  0.00  0.00    +0.000 HD
BRANCH  21  23
ATOM     23  C   UNL     1       6.931   5.025  14.291  0.00  0.00    +0.000 A 
ATOM     24  C   UNL     1       7.676   5.239  13.128  0.00  0.00    +0.000 A 
ATOM     25  C   UNL     1       7.486   4.428  11.997  0.00  0.00    +0.000 A 
ATOM     26  C   UNL     1       6.552   3.395  12.015  0.00  0.00    +0.000 A 
ATOM     27  C   UNL     1       5.818   3.153  13.174  0.00  0.00    +0.000 A 
ATOM     28  C   UNL     1       6.021   3.955  14.299  0.00  0.00    +0.000 A 
ATOM     29  F   UNL     1       5.299   3.709  15.404  0.00  0.00    +0.000 F 
ENDBRANCH  21  23
ENDBRANCH  18  19
ENDBRANCH  17  18
ENDBRANCH   2  17
TORSDOF 9
ENDMDL
MODEL 7
REMARK VINA RESULT:      -7.2      4.150      7.062
REMARK  Name = 
REMARK  11 active torsions:
REMARK  status: ('A' for Active; 'I' for Inactive)
REMARK    1  A    between atoms: C_1  and  O_2
REMARK    2  A    between atoms: O_2  and  C_3
REMARK    3  A    between atoms: C_3  and  C_4
REMARK    4  A    between atoms: C_4  and  C_5
REMARK    5  A    between atoms: C_5  and  N_6
REMARK    6  A    between atoms: C_7  and  S_8
REMARK    7  A    between atoms: S_8  and  C_9
REMARK    8  A    between atoms: C_9  and  C_10
REMARK    9  A    between atoms: N_12  and  C_13
REMARK   10  A    between atoms: C_22  and  C_23
REMARK   11  A    between atoms: C_27  and  C_28
REMARK                            x       y       z     vdW  Elec       q    Type
REMARK                         _______ _______ _______ _____ _____    ______ ____
ROOT
ATOM      1  N   UNL     1       4.130   3.834  18.534  0.00  0.00    +0.000 N 
ATOM      2  C   UNL     1       3.017   3.131  18.940  0.00  0.00    +0.000 A 
ATOM      3  N   UNL     1       2.108   3.155  17.996  0.00  0.00    +0.000 NA
ATOM      4  N   UNL     1       2.592   3.919  16.963  0.00  0.00    +0.000 NA
ATOM      5  C   UNL     1       3.808   4.333  17.271  0.00  0.00    +0.000 A 
ENDROOT
BRANCH   5   6
ATOM      6  C   UNL     1       4.634   5.205  16.362  0.00  0.00    +0.000 A 
ATOM      7  C   UNL     1       4.631   6.614  16.184  0.00  0.00    +0.000 A 
ATOM      8  C   UNL     1       5.576   6.898  15.225  0.00  0.00    +0.000 A 
ATOM      9  O   UNL     1       6.164   5.758  14.795  0.00  0.00    +0.000 OA
ATOM     10  C   UNL     1       5.596   4.725  15.484  0.00  0.00    +0.000 A 
ATOM     11  C   UNL     1       6.100   3.381  15.133  0.00  0.00    +0.000 C 
ENDBRANCH   5   6
BRANCH   1  12
ATOM     12  C   UNL     1       5.396   4.104  19.184  0.00  0.00    +0.000 C 
BRANCH  12  13
ATOM     13  C   UNL     1       5.905   5.532  19.366  0.00  0.00    +0.000 C 
BRANCH  13  14
ATOM     14  C   UNL     1       7.427   5.606  19.315  0.00  0.00    +0.000 C 
BRANCH  14  16
ATOM     15  C   UNL     1       7.802   7.489  17.954  0.00  0.00    +0.000 C 
ATOM     16  O   UNL     1       7.832   6.068  18.029  0.00  0.00    +0.000 OA
ENDBRANCH  14  16
ENDBRANCH  13  14
ENDBRANCH  12  13
ENDBRANCH   1  12
BRANCH   2  17
ATOM     17  S   UNL     1       2.778   2.431  20.504  0.00  0.00    +0.000 S 
BRANCH  17  18
ATOM     18  C   UNL     1       2.536   3.856  21.608  0.00  0.00    +0.000 C 
BRANCH  18  19
ATOM     19  C   UNL     1       1.794   4.954  20.831  0.00  0.00    +0.000 C 
ATOM     20  O   UNL     1       0.632   4.785  20.455  0.00  0.00    +0.000 OA
ATOM     21  N   UNL     1       2.546   6.090  20.561  0.00  0.00    +0.000 N 
ATOM     22  H   UNL     1       3.545   6.064  20.753  0.00  0.00    +0.000 HD
BRANCH  21  23
ATOM     23  C   UNL     1       2.101   7.253  19.877  0.00  0.00    +0.000 A 
ATOM     24  C   UNL     1       2.294   7.481  18.512  0.00  0.00    +0.000 A 
ATOM     25  C   UNL     1       1.852   8.673  17.915  0.00  0.00    +0.000 A 
ATOM     26  C   UNL     1       1.211   9.649  18.675  0.00  0.00    +0.000 A 
ATOM     27  C   UNL     1       0.990   9.428  20.032  0.00  0.00    +0.000 A 
ATOM     28  C   UNL     1       1.420   8.235  20.615  0.00  0.00    +0.000 A 
ATOM     29  F   UNL     1       1.203   8.044  21.926  0.00  0.00    +0.000 F 
ENDBRANCH  21  23
ENDBRANCH  18  19
ENDBRANCH  17  18
ENDBRANCH   2  17
TORSDOF 9
ENDMDL
MODEL 8
REMARK VINA RESULT:      -7.2      2.388      3.436
REMARK  Name = 
REMARK  11 active torsions:
REMARK  status: ('A' for Active; 'I' for Inactive)
REMARK    1  A    between atoms: C_1  and  O_2
REMARK    2  A    between atoms: O_2  and  C_3
REMARK    3  A    between atoms: C_3  and  C_4
REMARK    4  A    between atoms: C_4  and  C_5
REMARK    5  A    between atoms: C_5  and  N_6
REMARK    6  A    between atoms: C_7  and  S_8
REMARK    7  A    between atoms: S_8  and  C_9
REMARK    8  A    between atoms: C_9  and  C_10
REMARK    9  A    between atoms: N_12  and  C_13
REMARK   10  A    between atoms: C_22  and  C_23
REMARK   11  A    between atoms: C_27  and  C_28
REMARK                            x       y       z     vdW  Elec       q    Type
REMARK                         _______ _______ _______ _____ _____    ______ ____
ROOT
ATOM      1  N   UNL     1       5.562   5.078  17.618  0.00  0.00    +0.000 N 
ATOM      2  C   UNL     1       6.567   5.805  18.216  0.00  0.00    +0.000 A 
ATOM      3  N   UNL     1       6.650   5.487  19.485  0.00  0.00    +0.000 NA
ATOM      4  N   UNL     1       5.663   4.571  19.756  0.00  0.00    +0.000 NA
ATOM      5  C   UNL     1       5.002   4.314  18.643  0.00  0.00    +0.000 A 
ENDROOT
BRANCH   5   6
ATOM      6  C   UNL     1       3.841   3.355  18.580  0.00  0.00    +0.000 A 
ATOM      7  C   UNL     1       3.806   1.942  18.716  0.00  0.00    +0.000 A 
ATOM      8  C   UNL     1       2.494   1.558  18.567  0.00  0.00    +0.000 A 
ATOM      9  O   UNL     1       1.712   2.639  18.347  0.00  0.00    +0.000 OA
ATOM     10  C   UNL     1       2.526   3.735  18.354  0.00  0.00    +0.000 A 
ATOM     11  C   UNL     1       1.849   5.026  18.106  0.00  0.00    +0.000 C 
ENDBRANCH   5   6
BRANCH   1  12
ATOM     12  C   UNL     1       5.068   5.044  16.256  0.00  0.00    +0.000 C 
BRANCH  12  13
ATOM     13  C   UNL     1       5.508   3.957  15.280  0.00  0.00    +0.000 C 
BRANCH  13  14
ATOM     14  C   UNL     1       6.286   4.531  14.100  0.00  0.00    +0.000 C 
BRANCH  14  16
ATOM     15  C   UNL     1       5.492   3.373  12.210  0.00  0.00    +0.000 C 
ATOM     16  O   UNL     1       6.546   3.492  13.159  0.00  0.00    +0.000 OA
ENDBRANCH  14  16
ENDBRANCH  13  14
ENDBRANCH  12  13
ENDBRANCH   1  12
BRANCH   2  17
ATOM     17  S   UNL     1       7.498   7.053  17.462  0.00  0.00    +0.000 S 
BRANCH  17  18
ATOM     18  C   UNL     1       8.520   7.732  18.804  0.00  0.00    +0.000 C 
BRANCH  18  19
ATOM     19  C   UNL     1       8.581   9.259  18.646  0.00  0.00    +0.000 C 
ATOM     20  O   UNL     1       7.909   9.831  17.786  0.00  0.00    +0.000 OA
ATOM     21  N   UNL     1       9.471   9.900  19.498  0.00  0.00    +0.000 N 
ATOM     22  H   UNL     1      10.110   9.329  20.046  0.00  0.00    +0.000 HD
BRANCH  21  23
ATOM     23  C   UNL     1       9.709  11.299  19.571  0.00  0.00    +0.000 A 
ATOM     24  C   UNL     1       9.287  12.110  20.628  0.00  0.00    +0.000 A 
ATOM     25  C   UNL     1       9.533  13.492  20.612  0.00  0.00    +0.000 A 
ATOM     26  C   UNL     1      10.204  14.079  19.542  0.00  0.00    +0.000 A 
ATOM     27  C   UNL     1      10.654  13.282  18.493  0.00  0.00    +0.000 A 
ATOM     28  C   UNL     1      10.417  11.906  18.522  0.00  0.00    +0.000 A 
ATOM     29  F   UNL     1      10.852  11.156  17.497  0.00  0.00    +0.000 F 
ENDBRANCH  21  23
ENDBRANCH  18  19
ENDBRANCH  17  18
ENDBRANCH   2  17
TORSDOF 9
ENDMDL
MODEL 9
REMARK VINA RESULT:      -7.2      4.112      7.848
REMARK  Name = 
REMARK  11 active torsions:
REMARK  status: ('A' for Active; 'I' for Inactive)
REMARK    1  A    between atoms: C_1  and  O_2
REMARK    2  A    between atoms: O_2  and  C_3
REMARK    3  A    between atoms: C_3  and  C_4
REMARK    4  A    between atoms: C_4  and  C_5
REMARK    5  A    between atoms: C_5  and  N_6
REMARK    6  A    between atoms: C_7  and  S_8
REMARK    7  A    between atoms: S_8  and  C_9
REMARK    8  A    between atoms: C_9  and  C_10
REMARK    9  A    between atoms: N_12  and  C_13
REMARK   10  A    between atoms: C_22  and  C_23
REMARK   11  A    between atoms: C_27  and  C_28
REMARK                            x       y       z     vdW  Elec       q    Type
REMARK                         _______ _______ _______ _____ _____    ______ ____
ROOT
ATOM      1  N   UNL     1       3.911   5.754  18.693  0.00  0.00    +0.000 N 
ATOM      2  C   UNL     1       2.813   6.501  19.058  0.00  0.00    +0.000 A 
ATOM      3  N   UNL     1       2.541   7.377  18.122  0.00  0.00    +0.000 NA
ATOM      4  N   UNL     1       3.490   7.252  17.138  0.00  0.00    +0.000 NA
ATOM      5  C   UNL     1       4.320   6.279  17.467  0.00  0.00    +0.000 A 
ENDROOT
BRANCH   5   6
ATOM      6  C   UNL     1       5.493   5.876  16.611  0.00  0.00    +0.000 A 
ATOM      7  C   UNL     1       5.573   4.956  15.532  0.00  0.00    +0.000 A 
ATOM      8  C   UNL     1       6.879   4.955  15.103  0.00  0.00    +0.000 A 
ATOM      9  O   UNL     1       7.617   5.813  15.845  0.00  0.00    +0.000 OA
ATOM     10  C   UNL     1       6.778   6.376  16.764  0.00  0.00    +0.000 A 
ATOM     11  C   UNL     1       7.412   7.336  17.692  0.00  0.00    +0.000 C 
ENDBRANCH   5   6
BRANCH   1  12
ATOM     12  C   UNL     1       4.609   4.670  19.354  0.00  0.00    +0.000 C 
BRANCH  12  13
ATOM     13  C   UNL     1       4.257   3.212  19.071  0.00  0.00    +0.000 C 
BRANCH  13  14
ATOM     14  C   UNL     1       3.222   2.674  20.053  0.00  0.00    +0.000 C 
BRANCH  14  16
ATOM     15  C   UNL     1       2.063   2.336  18.032  0.00  0.00    +0.000 C 
ATOM     16  O   UNL     1       1.946   2.639  19.418  0.00  0.00    +0.000 OA
ENDBRANCH  14  16
ENDBRANCH  13  14
ENDBRANCH  12  13
ENDBRANCH   1  12
BRANCH   2  17
ATOM     17  S   UNL     1       1.986   6.410  20.576  0.00  0.00    +0.000 S 
BRANCH  17  18
ATOM     18  C   UNL     1       1.939   8.127  21.172  0.00  0.00    +0.000 C 
BRANCH  18  19
ATOM     19  C   UNL     1       0.649   8.786  20.659  0.00  0.00    +0.000 C 
ATOM     20  O   UNL     1      -0.417   8.635  21.258  0.00  0.00    +0.000 OA
ATOM     21  N   UNL     1       0.788   9.497  19.475  0.00  0.00    +0.000 N 
ATOM     22  H   UNL     1       1.663   9.416  18.962  0.00  0.00    +0.000 HD
BRANCH  21  23
ATOM     23  C   UNL     1      -0.236  10.213  18.796  0.00  0.00    +0.000 A 
ATOM     24  C   UNL     1      -1.019   9.674  17.772  0.00  0.00    +0.000 A 
ATOM     25  C   UNL     1      -1.991  10.456  17.127  0.00  0.00    +0.000 A 
ATOM     26  C   UNL     1      -2.192  11.784  17.499  0.00  0.00    +0.000 A 
ATOM     27  C   UNL     1      -1.436  12.329  18.534  0.00  0.00    +0.000 A 
ATOM     28  C   UNL     1      -0.481  11.541  19.179  0.00  0.00    +0.000 A 
ATOM     29  F   UNL     1       0.242  12.087  20.170  0.00  0.00    +0.000 F 
ENDBRANCH  21  23
ENDBRANCH  18  19
ENDBRANCH  17  18
ENDBRANCH   2  17
TORSDOF 9
ENDMDL
