MODEL 1
REMARK VINA RESULT:      -8.4      0.000      0.000
REMARK  Name = 
REMARK  8 active torsions:
REMARK  status: ('A' for Active; 'I' for Inactive)
REMARK    1  A    between atoms: C_1  and  C_2
REMARK    2  A    between atoms: C_5  and  C_6
REMARK    3  A    between atoms: C_9  and  O_10
REMARK    4  A    between atoms: C_11  and  C_12
REMARK    5  A    between atoms: C_12  and  N_13
REMARK    6  A    between atoms: N_13  and  C_14
REMARK    7  A    between atoms: C_14  and  C_15
REMARK    8  A    between atoms: N_22  and  C_23
REMARK                            x       y       z     vdW  Elec       q    Type
REMARK                         _______ _______ _______ _____ _____    ______ ____
ROOT
ATOM      1  N   UNL     1       0.433   9.164  20.065  0.00  0.00    +0.000 N 
ATOM      2  C   UNL     1      -0.117   9.666  18.886  0.00  0.00    +0.000 C 
ATOM      3  O   UNL     1       0.510   9.769  17.838  0.00  0.00    +0.000 OA
ATOM      4  N   UNL     1      -1.439   9.994  18.981  0.00  0.00    +0.000 N 
ATOM      5  H   UNL     1      -1.812  10.083  19.902  0.00  0.00    +0.000 HD
ENDROOT
BRANCH   4   6
ATOM      6  C   UNL     1      -2.279  10.597  17.974  0.00  0.00    +0.000 C 
ATOM      7  C   UNL     1      -3.721  10.873  18.394  0.00  0.00    +0.000 C 
ATOM      8  C   UNL     1      -4.348  11.819  17.366  0.00  0.00    +0.000 C 
ATOM      9  C   UNL     1      -4.250  11.272  15.938  0.00  0.00    +0.000 C 
ATOM     10  C   UNL     1      -2.845  10.792  15.563  0.00  0.00    +0.000 C 
ATOM     11  C   UNL     1      -2.249   9.871  16.628  0.00  0.00    +0.000 C 
ENDBRANCH   4   6
BRANCH   1  12
ATOM     12  C   UNL     1       1.866   8.748  20.036  0.00  0.00    +0.000 C 
BRANCH  12  22
ATOM     13  C   UNL     1       1.271   3.430  21.014  0.00  0.00    +0.000 C 
ATOM     14  C   UNL     1       2.234   3.616  19.870  0.00  0.00    +0.000 A 
ATOM     15  C   UNL     1       2.783   2.460  19.297  0.00  0.00    +0.000 A 
ATOM     16  C   UNL     1       3.628   2.580  18.204  0.00  0.00    +0.000 A 
ATOM     17  C   UNL     1       3.885   3.841  17.634  0.00  0.00    +0.000 A 
ATOM     18  C   UNL     1       4.856   3.843  16.471  0.00  0.00    +0.000 C 
ATOM     19  C   UNL     1       3.289   5.033  18.154  0.00  0.00    +0.000 A 
ATOM     20  N   UNL     1       3.424   6.252  17.571  0.00  0.00    +0.000 NA
ATOM     21  C   UNL     1       2.888   7.335  18.199  0.00  0.00    +0.000 A 
ATOM     22  C   UNL     1       2.287   7.390  19.452  0.00  0.00    +0.000 A 
ATOM     23  C   UNL     1       2.065   6.124  19.987  0.00  0.00    +0.000 A 
ATOM     24  C   UNL     1       2.524   4.919  19.350  0.00  0.00    +0.000 A 
BRANCH  21  25
ATOM     25  O   UNL     1       2.896   8.456  17.420  0.00  0.00    +0.000 OA
ATOM     26  H   UNL     1       2.194   8.235  16.783  0.00  0.00    +0.000 HD
ENDBRANCH  21  25
ENDBRANCH  12  22
ENDBRANCH   1  12
BRANCH   1  27
ATOM     27  C   UNL     1      -0.287   9.131  21.371  0.00  0.00    +0.000 C 
BRANCH  27  28
ATOM     28  C   UNL     1      -0.172  10.319  22.395  0.00  0.00    +0.000 C 
ATOM     29  C   UNL     1      -1.360  10.924  23.143  0.00  0.00    +0.000 C 
ATOM     30  C   UNL     1      -1.504  12.335  22.631  0.00  0.00    +0.000 C 
ATOM     31  C   UNL     1      -0.271  12.576  21.791  0.00  0.00    +0.000 C 
ATOM     32  O   UNL     1       0.558  11.413  21.830  0.00  0.00    +0.000 OA
ENDBRANCH  27  28
ENDBRANCH   1  27
TORSDOF 6
ENDMDL
MODEL 2
REMARK VINA RESULT:      -8.1      3.570      7.035
REMARK  Name = 
REMARK  8 active torsions:
REMARK  status: ('A' for Active; 'I' for Inactive)
REMARK    1  A    between atoms: C_1  and  C_2
REMARK    2  A    between atoms: C_5  and  C_6
REMARK    3  A    between atoms: C_9  and  O_10
REMARK    4  A    between atoms: C_11  and  C_12
REMARK    5  A    between atoms: C_12  and  N_13
REMARK    6  A    between atoms: N_13  and  C_14
REMARK    7  A    between atoms: C_14  and  C_15
REMARK    8  A    between atoms: N_22  and  C_23
REMARK                            x       y       z     vdW  Elec       q    Type
REMARK                         _______ _______ _______ _____ _____    ______ ____
ROOT
ATOM      1  N   UNL     1       3.703   4.460  18.013  0.00  0.00    +0.000 N 
ATOM      2  C   UNL     1       3.679   5.723  18.604  0.00  0.00    +0.000 C 
ATOM      3  O   UNL     1       4.687   6.380  18.835  0.00  0.00    +0.000 OA
ATOM      4  N   UNL     1       2.424   6.193  18.867  0.00  0.00    +0.000 N 
ATOM      5  H   UNL     1       1.684   5.524  18.850  0.00  0.00    +0.000 HD
ENDROOT
BRANCH   4   6
ATOM      6  C   UNL     1       2.056   7.421  19.529  0.00  0.00    +0.000 C 
ATOM      7  C   UNL     1       1.221   7.264  20.797  0.00  0.00    +0.000 C 
ATOM      8  C   UNL     1       1.232   8.598  21.550  0.00  0.00    +0.000 C 
ATOM      9  C   UNL     1       0.754   9.761  20.675  0.00  0.00    +0.000 C 
ATOM     10  C   UNL     1       1.436   9.816  19.305  0.00  0.00    +0.000 C 
ATOM     11  C   UNL     1       1.422   8.459  18.602  0.00  0.00    +0.000 C 
ENDBRANCH   4   6
BRANCH   1  12
ATOM     12  C   UNL     1       5.037   3.889  17.662  0.00  0.00    +0.000 C 
BRANCH  12  22
ATOM     13  C   UNL     1       4.491   3.059  12.313  0.00  0.00    +0.000 C 
ATOM     14  C   UNL     1       5.787   3.784  12.570  0.00  0.00    +0.000 A 
ATOM     15  C   UNL     1       6.583   4.092  11.457  0.00  0.00    +0.000 A 
ATOM     16  C   UNL     1       7.755   4.811  11.640  0.00  0.00    +0.000 A 
ATOM     17  C   UNL     1       8.114   5.280  12.917  0.00  0.00    +0.000 A 
ATOM     18  C   UNL     1       9.437   6.015  12.991  0.00  0.00    +0.000 C 
ATOM     19  C   UNL     1       7.291   5.040  14.062  0.00  0.00    +0.000 A 
ATOM     20  N   UNL     1       7.545   5.565  15.289  0.00  0.00    +0.000 NA
ATOM     21  C   UNL     1       6.746   5.198  16.329  0.00  0.00    +0.000 A 
ATOM     22  C   UNL     1       5.732   4.248  16.339  0.00  0.00    +0.000 A 
ATOM     23  C   UNL     1       5.418   3.798  15.059  0.00  0.00    +0.000 A 
ATOM     24  C   UNL     1       6.156   4.197  13.891  0.00  0.00    +0.000 A 
BRANCH  21  25
ATOM     25  O   UNL     1       6.959   5.950  17.449  0.00  0.00    +0.000 OA
ATOM     26  H   UNL     1       6.339   6.684  17.291  0.00  0.00    +0.000 HD
ENDBRANCH  21  25
ENDBRANCH  12  22
ENDBRANCH   1  12
BRANCH   1  27
ATOM     27  C   UNL     1       2.495   3.606  17.823  0.00  0.00    +0.000 C 
BRANCH  27  28
ATOM     28  C   UNL     1       1.918   2.738  19.001  0.00  0.00    +0.000 C 
ATOM     29  C   UNL     1       0.791   3.194  19.929  0.00  0.00    +0.000 C 
ATOM     30  C   UNL     1       1.405   3.334  21.298  0.00  0.00    +0.000 C 
ATOM     31  C   UNL     1       2.788   2.740  21.171  0.00  0.00    +0.000 C 
ATOM     32  O   UNL     1       2.969   2.250  19.841  0.00  0.00    +0.000 OA
ENDBRANCH  27  28
ENDBRANCH   1  27
TORSDOF 6
ENDMDL
MODEL 3
REMARK VINA RESULT:      -7.9      1.212      2.178
REMARK  Name = 
REMARK  8 active torsions:
REMARK  status: ('A' for Active; 'I' for Inactive)
REMARK    1  A    between atoms: C_1  and  C_2
REMARK    2  A    between atoms: C_5  and  C_6
REMARK    3  A    between atoms: C_9  and  O_10
REMARK    4  A    between atoms: C_11  and  C_12
REMARK    5  A    between atoms: C_12  and  N_13
REMARK    6  A    between atoms: N_13  and  C_14
REMARK    7  A    between atoms: C_14  and  C_15
REMARK    8  A    between atoms: N_22  and  C_23
REMARK                            x       y       z     vdW  Elec       q    Type
REMARK                         _______ _______ _______ _____ _____    ______ ____
ROOT
ATOM      1  N   UNL     1       0.502   9.206  19.905  0.00  0.00    +0.000 N 
ATOM      2  C   UNL     1      -0.064   9.689  18.726  0.00  0.00    +0.000 C 
ATOM      3  O   UNL     1       0.558   9.807  17.677  0.00  0.00    +0.000 OA
ATOM      4  N   UNL     1      -1.395   9.979  18.823  0.00  0.00    +0.000 N 
ATOM      5  H   UNL     1      -1.769  10.059  19.745  0.00  0.00    +0.000 HD
ENDROOT
BRANCH   4   6
ATOM      6  C   UNL     1      -2.254  10.554  17.816  0.00  0.00    +0.000 C 
ATOM      7  C   UNL     1      -3.691  10.830  18.251  0.00  0.00    +0.000 C 
ATOM      8  C   UNL     1      -4.340  11.749  17.213  0.00  0.00    +0.000 C 
ATOM      9  C   UNL     1      -4.259  11.172  15.796  0.00  0.00    +0.000 C 
ATOM     10  C   UNL     1      -2.857  10.694  15.410  0.00  0.00    +0.000 C 
ATOM     11  C   UNL     1      -2.239   9.800  16.485  0.00  0.00    +0.000 C 
ENDBRANCH   4   6
BRANCH   1  12
ATOM     12  C   UNL     1       1.947   8.832  19.874  0.00  0.00    +0.000 C 
BRANCH  12  22
ATOM     13  C   UNL     1       5.142   6.568  16.098  0.00  0.00    +0.000 C 
ATOM     14  C   UNL     1       4.394   5.482  16.826  0.00  0.00    +0.000 A 
ATOM     15  C   UNL     1       4.628   4.159  16.424  0.00  0.00    +0.000 A 
ATOM     16  C   UNL     1       4.007   3.122  17.106  0.00  0.00    +0.000 A 
ATOM     17  C   UNL     1       3.199   3.388  18.227  0.00  0.00    +0.000 A 
ATOM     18  C   UNL     1       2.545   2.175  18.858  0.00  0.00    +0.000 C 
ATOM     19  C   UNL     1       2.992   4.720  18.703  0.00  0.00    +0.000 A 
ATOM     20  N   UNL     1       2.309   5.011  19.841  0.00  0.00    +0.000 NA
ATOM     21  C   UNL     1       2.096   6.319  20.153  0.00  0.00    +0.000 A 
ATOM     22  C   UNL     1       2.398   7.443  19.393  0.00  0.00    +0.000 A 
ATOM     23  C   UNL     1       3.185   7.136  18.286  0.00  0.00    +0.000 A 
ATOM     24  C   UNL     1       3.529   5.787  17.926  0.00  0.00    +0.000 A 
BRANCH  21  25
ATOM     25  O   UNL     1       1.598   6.487  21.413  0.00  0.00    +0.000 OA
ATOM     26  H   UNL     1       1.310   7.417  21.368  0.00  0.00    +0.000 HD
ENDBRANCH  21  25
ENDBRANCH  12  22
ENDBRANCH   1  12
BRANCH   1  27
ATOM     27  C   UNL     1      -0.214   9.156  21.213  0.00  0.00    +0.000 C 
BRANCH  27  28
ATOM     28  C   UNL     1      -0.050  10.304  22.276  0.00  0.00    +0.000 C 
ATOM     29  C   UNL     1      -1.190  10.838  23.143  0.00  0.00    +0.000 C 
ATOM     30  C   UNL     1      -1.417  12.263  22.708  0.00  0.00    +0.000 C 
ATOM     31  C   UNL     1      -0.265  12.579  21.782  0.00  0.00    +0.000 C 
ATOM     32  O   UNL     1       0.599  11.444  21.703  0.00  0.00    +0.000 OA
ENDBRANCH  27  28
ENDBRANCH   1  27
TORSDOF 6
ENDMDL
MODEL 4
REMARK VINA RESULT:      -7.8      2.233      8.359
REMARK  Name = 
REMARK  8 active torsions:
REMARK  status: ('A' for Active; 'I' for Inactive)
REMARK    1  A    between atoms: C_1  and  C_2
REMARK    2  A    between atoms: C_5  and  C_6
REMARK    3  A    between atoms: C_9  and  O_10
REMARK    4  A    between atoms: C_11  and  C_12
REMARK    5  A    between atoms: C_12  and  N_13
REMARK    6  A    between atoms: N_13  and  C_14
REMARK    7  A    between atoms: C_14  and  C_15
REMARK    8  A    between atoms: N_22  and  C_23
REMARK                            x       y       z     vdW  Elec       q    Type
REMARK                         _______ _______ _______ _____ _____    ______ ____
ROOT
ATOM      1  N   UNL     1       2.868   5.642  18.573  0.00  0.00    +0.000 N 
ATOM      2  C   UNL     1       4.125   5.590  17.973  0.00  0.00    +0.000 C 
ATOM      3  O   UNL     1       5.121   6.126  18.445  0.00  0.00    +0.000 OA
ATOM      4  N   UNL     1       4.168   4.847  16.828  0.00  0.00    +0.000 N 
ATOM      5  H   UNL     1       3.292   4.630  16.404  0.00  0.00    +0.000 HD
ENDROOT
BRANCH   4   6
ATOM      6  C   UNL     1       5.288   4.651  15.939  0.00  0.00    +0.000 C 
ATOM      7  C   UNL     1       6.373   5.724  15.995  0.00  0.00    +0.000 C 
ATOM      8  C   UNL     1       7.618   5.187  15.283  0.00  0.00    +0.000 C 
ATOM      9  C   UNL     1       7.317   4.735  13.851  0.00  0.00    +0.000 C 
ATOM     10  C   UNL     1       6.096   3.816  13.744  0.00  0.00    +0.000 C 
ATOM     11  C   UNL     1       4.887   4.380  14.489  0.00  0.00    +0.000 C 
ENDBRANCH   4   6
BRANCH   1  12
ATOM     12  C   UNL     1       2.742   6.406  19.849  0.00  0.00    +0.000 C 
BRANCH  12  22
ATOM     13  C   UNL     1       0.004   9.433  23.447  0.00  0.00    +0.000 C 
ATOM     14  C   UNL     1      -0.177  10.019  22.071  0.00  0.00    +0.000 A 
ATOM     15  C   UNL     1      -0.977  11.165  21.960  0.00  0.00    +0.000 A 
ATOM     16  C   UNL     1      -1.122  11.774  20.722  0.00  0.00    +0.000 A 
ATOM     17  C   UNL     1      -0.428  11.286  19.599  0.00  0.00    +0.000 A 
ATOM     18  C   UNL     1      -0.705  12.011  18.298  0.00  0.00    +0.000 C 
ATOM     19  C   UNL     1       0.446  10.158  19.692  0.00  0.00    +0.000 A 
ATOM     20  N   UNL     1       1.215   9.721  18.660  0.00  0.00    +0.000 NA
ATOM     21  C   UNL     1       1.945   8.584  18.832  0.00  0.00    +0.000 A 
ATOM     22  C   UNL     1       1.937   7.714  19.915  0.00  0.00    +0.000 A 
ATOM     23  C   UNL     1       1.228   8.227  20.999  0.00  0.00    +0.000 A 
ATOM     24  C   UNL     1       0.495   9.463  20.934  0.00  0.00    +0.000 A 
BRANCH  21  25
ATOM     25  O   UNL     1       2.834   8.370  17.818  0.00  0.00    +0.000 OA
ATOM     26  H   UNL     1       2.260   8.512  17.045  0.00  0.00    +0.000 HD
ENDBRANCH  21  25
ENDBRANCH  12  22
ENDBRANCH   1  12
BRANCH   1  27
ATOM     27  C   UNL     1       1.628   5.085  17.957  0.00  0.00    +0.000 C 
BRANCH  27  28
ATOM     28  C   UNL     1       1.210   3.586  18.181  0.00  0.00    +0.000 C 
ATOM     29  C   UNL     1       0.936   2.968  19.552  0.00  0.00    +0.000 C 
ATOM     30  C   UNL     1       2.018   1.942  19.774  0.00  0.00    +0.000 C 
ATOM     31  C   UNL     1       2.733   1.833  18.447  0.00  0.00    +0.000 C 
ATOM     32  O   UNL     1       2.103   2.698  17.501  0.00  0.00    +0.000 OA
ENDBRANCH  27  28
ENDBRANCH   1  27
TORSDOF 6
ENDMDL
MODEL 5
REMARK VINA RESULT:      -7.7      2.704      8.524
REMARK  Name = 
REMARK  8 active torsions:
REMARK  status: ('A' for Active; 'I' for Inactive)
REMARK    1  A    between atoms: C_1  and  C_2
REMARK    2  A    between atoms: C_5  and  C_6
REMARK    3  A    between atoms: C_9  and  O_10
REMARK    4  A    between atoms: C_11  and  C_12
REMARK    5  A    between atoms: C_12  and  N_13
REMARK    6  A    between atoms: N_13  and  C_14
REMARK    7  A    between atoms: C_14  and  C_15
REMARK    8  A    between atoms: N_22  and  C_23
REMARK                            x       y       z     vdW  Elec       q    Type
REMARK                         _______ _______ _______ _____ _____    ______ ____
ROOT
ATOM      1  N   UNL     1       2.143   7.249  19.104  0.00  0.00    +0.000 N 
ATOM      2  C   UNL     1       3.273   7.058  18.310  0.00  0.00    +0.000 C 
ATOM      3  O   UNL     1       3.435   7.603  17.224  0.00  0.00    +0.000 OA
ATOM      4  N   UNL     1       4.216   6.243  18.866  0.00  0.00    +0.000 N 
ATOM      5  H   UNL     1       3.922   5.680  19.636  0.00  0.00    +0.000 HD
ENDROOT
BRANCH   4   6
ATOM      6  C   UNL     1       5.457   5.792  18.281  0.00  0.00    +0.000 C 
ATOM      7  C   UNL     1       5.335   4.665  17.259  0.00  0.00    +0.000 C 
ATOM      8  C   UNL     1       6.657   4.566  16.493  0.00  0.00    +0.000 C 
ATOM      9  C   UNL     1       7.857   4.380  17.428  0.00  0.00    +0.000 C 
ATOM     10  C   UNL     1       7.886   5.378  18.589  0.00  0.00    +0.000 C 
ATOM     11  C   UNL     1       6.540   5.461  19.308  0.00  0.00    +0.000 C 
ENDBRANCH   4   6
BRANCH   1  12
ATOM     12  C   UNL     1       1.078   8.156  18.583  0.00  0.00    +0.000 C 
BRANCH  12  22
ATOM     13  C   UNL     1      -0.865  10.366  23.159  0.00  0.00    +0.000 C 
ATOM     14  C   UNL     1      -0.571  11.462  22.168  0.00  0.00    +0.000 A 
ATOM     15  C   UNL     1      -0.842  12.779  22.567  0.00  0.00    +0.000 A 
ATOM     16  C   UNL     1      -0.531  13.825  21.710  0.00  0.00    +0.000 A 
ATOM     17  C   UNL     1       0.103  13.576  20.479  0.00  0.00    +0.000 A 
ATOM     18  C   UNL     1       0.349  14.797  19.617  0.00  0.00    +0.000 C 
ATOM     19  C   UNL     1       0.451  12.250  20.071  0.00  0.00    +0.000 A 
ATOM     20  N   UNL     1       1.159  11.976  18.943  0.00  0.00    +0.000 NA
ATOM     21  C   UNL     1       1.358  10.673  18.604  0.00  0.00    +0.000 A 
ATOM     22  C   UNL     1       0.834   9.538  19.211  0.00  0.00    +0.000 A 
ATOM     23  C   UNL     1       0.202   9.828  20.417  0.00  0.00    +0.000 A 
ATOM     24  C   UNL     1       0.019  11.173  20.895  0.00  0.00    +0.000 A 
BRANCH  21  25
ATOM     25  O   UNL     1       2.256  10.524  17.586  0.00  0.00    +0.000 OA
ATOM     26  H   UNL     1       2.730   9.726  17.882  0.00  0.00    +0.000 HD
ENDBRANCH  21  25
ENDBRANCH  12  22
ENDBRANCH   1  12
BRANCH   1  27
ATOM     27  C   UNL     1       1.885   6.512  20.376  0.00  0.00    +0.000 C 
BRANCH  27  28
ATOM     28  C   UNL     1       1.422   5.010  20.367  0.00  0.00    +0.000 C 
ATOM     29  C   UNL     1       1.981   3.935  21.300  0.00  0.00    +0.000 C 
ATOM     30  C   UNL     1       2.718   2.957  20.421  0.00  0.00    +0.000 C 
ATOM     31  C   UNL     1       2.369   3.360  19.007  0.00  0.00    +0.000 C 
ATOM     32  O   UNL     1       1.466   4.467  19.043  0.00  0.00    +0.000 OA
ENDBRANCH  27  28
ENDBRANCH   1  27
TORSDOF 6
ENDMDL
MODEL 6
REMARK VINA RESULT:      -7.7      2.172      8.196
REMARK  Name = 
REMARK  8 active torsions:
REMARK  status: ('A' for Active; 'I' for Inactive)
REMARK    1  A    between atoms: C_1  and  C_2
REMARK    2  A    between atoms: C_5  and  C_6
REMARK    3  A    between atoms: C_9  and  O_10
REMARK    4  A    between atoms: C_11  and  C_12
REMARK    5  A    between atoms: C_12  and  N_13
REMARK    6  A    between atoms: N_13  and  C_14
REMARK    7  A    between atoms: C_14  and  C_15
REMARK    8  A    between atoms: N_22  and  C_23
REMARK                            x       y       z     vdW  Elec       q    Type
REMARK                         _______ _______ _______ _____ _____    ______ ____
ROOT
ATOM      1  N   UNL     1       3.224   5.589  18.176  0.00  0.00    +0.000 N 
ATOM      2  C   UNL     1       4.311   5.715  17.313  0.00  0.00    +0.000 C 
ATOM      3  O   UNL     1       5.237   6.495  17.502  0.00  0.00    +0.000 OA
ATOM      4  N   UNL     1       4.284   4.856  16.251  0.00  0.00    +0.000 N 
ATOM      5  H   UNL     1       3.411   4.415  16.056  0.00  0.00    +0.000 HD
ENDROOT
BRANCH   4   6
ATOM      6  C   UNL     1       5.213   4.777  15.149  0.00  0.00    +0.000 C 
ATOM      7  C   UNL     1       4.957   3.654  14.147  0.00  0.00    +0.000 C 
ATOM      8  C   UNL     1       5.784   3.933  12.889  0.00  0.00    +0.000 C 
ATOM      9  C   UNL     1       7.273   4.109  13.202  0.00  0.00    +0.000 C 
ATOM     10  C   UNL     1       7.546   5.082  14.352  0.00  0.00    +0.000 C 
ATOM     11  C   UNL     1       6.681   4.780  15.576  0.00  0.00    +0.000 C 
ENDBRANCH   4   6
BRANCH   1  12
ATOM     12  C   UNL     1       3.194   6.469  19.382  0.00  0.00    +0.000 C 
BRANCH  12  22
ATOM     13  C   UNL     1       0.452   9.351  23.093  0.00  0.00    +0.000 C 
ATOM     14  C   UNL     1       0.061   9.821  21.716  0.00  0.00    +0.000 A 
ATOM     15  C   UNL     1      -0.889  10.849  21.633  0.00  0.00    +0.000 A 
ATOM     16  C   UNL     1      -1.235  11.355  20.389  0.00  0.00    +0.000 A 
ATOM     17  C   UNL     1      -0.597  10.888  19.225  0.00  0.00    +0.000 A 
ATOM     18  C   UNL     1      -1.093  11.489  17.926  0.00  0.00    +0.000 C 
ATOM     19  C   UNL     1       0.423   9.886  19.281  0.00  0.00    +0.000 A 
ATOM     20  N   UNL     1       1.137   9.485  18.197  0.00  0.00    +0.000 NA
ATOM     21  C   UNL     1       2.022   8.461  18.347  0.00  0.00    +0.000 A 
ATOM     22  C   UNL     1       2.235   7.667  19.468  0.00  0.00    +0.000 A 
ATOM     23  C   UNL     1       1.575   8.155  20.593  0.00  0.00    +0.000 A 
ATOM     24  C   UNL     1       0.684   9.283  20.544  0.00  0.00    +0.000 A 
BRANCH  21  25
ATOM     25  O   UNL     1       2.828   8.296  17.257  0.00  0.00    +0.000 OA
ATOM     26  H   UNL     1       2.173   8.360  16.540  0.00  0.00    +0.000 HD
ENDBRANCH  21  25
ENDBRANCH  12  22
ENDBRANCH   1  12
BRANCH   1  27
ATOM     27  C   UNL     1       2.040   4.722  17.904  0.00  0.00    +0.000 C 
BRANCH  27  28
ATOM     28  C   UNL     1       1.617   3.585  18.905  0.00  0.00    +0.000 C 
ATOM     29  C   UNL     1       0.871   3.831  20.216  0.00  0.00    +0.000 C 
ATOM     30  C   UNL     1       1.824   3.448  21.320  0.00  0.00    +0.000 C 
ATOM     31  C   UNL     1       2.987   2.782  20.621  0.00  0.00    +0.000 C 
ATOM     32  O   UNL     1       2.728   2.737  19.217  0.00  0.00    +0.000 OA
ENDBRANCH  27  28
ENDBRANCH   1  27
TORSDOF 6
ENDMDL
MODEL 7
REMARK VINA RESULT:      -7.6      1.574      2.081
REMARK  Name = 
REMARK  8 active torsions:
REMARK  status: ('A' for Active; 'I' for Inactive)
REMARK    1  A    between atoms: C_1  and  C_2
REMARK    2  A    between atoms: C_5  and  C_6
REMARK    3  A    between atoms: C_9  and  O_10
REMARK    4  A    between atoms: C_11  and  C_12
REMARK    5  A    between atoms: C_12  and  N_13
REMARK    6  A    between atoms: N_13  and  C_14
REMARK    7  A    between atoms: C_14  and  C_15
REMARK    8  A    between atoms: N_22  and  C_23
REMARK                            x       y       z     vdW  Elec       q    Type
REMARK                         _______ _______ _______ _____ _____    ______ ____
ROOT
ATOM      1  N   UNL     1      -0.353  10.699  20.336  0.00  0.00    +0.000 N 
ATOM      2  C   UNL     1      -1.162  11.227  19.331  0.00  0.00    +0.000 C 
ATOM      3  O   UNL     1      -0.730  11.622  18.254  0.00  0.00    +0.000 OA
ATOM      4  N   UNL     1      -2.494  11.227  19.628  0.00  0.00    +0.000 N 
ATOM      5  H   UNL     1      -2.739  11.094  20.586  0.00  0.00    +0.000 HD
ENDROOT
BRANCH   4   6
ATOM      6  C   UNL     1      -3.580  11.761  18.840  0.00  0.00    +0.000 C 
ATOM      7  C   UNL     1      -4.794  12.246  19.629  0.00  0.00    +0.000 C 
ATOM      8  C   UNL     1      -5.667  13.092  18.698  0.00  0.00    +0.000 C 
ATOM      9  C   UNL     1      -6.061  12.334  17.426  0.00  0.00    +0.000 C 
ATOM     10  C   UNL     1      -4.878  11.661  16.725  0.00  0.00    +0.000 C 
ATOM     11  C   UNL     1      -4.022  10.848  17.696  0.00  0.00    +0.000 C 
ENDBRANCH   4   6
BRANCH   1  12
ATOM     12  C   UNL     1       1.116  10.632  20.076  0.00  0.00    +0.000 C 
BRANCH  12  22
ATOM     13  C   UNL     1       1.590   5.269  20.860  0.00  0.00    +0.000 C 
ATOM     14  C   UNL     1       2.430   5.670  19.676  0.00  0.00    +0.000 A 
ATOM     15  C   UNL     1       3.152   4.658  19.027  0.00  0.00    +0.000 A 
ATOM     16  C   UNL     1       3.891   4.970  17.895  0.00  0.00    +0.000 A 
ATOM     17  C   UNL     1       3.872   6.274  17.367  0.00  0.00    +0.000 A 
ATOM     18  C   UNL     1       4.754   6.497  16.155  0.00  0.00    +0.000 C 
ATOM     19  C   UNL     1       3.095   7.314  17.967  0.00  0.00    +0.000 A 
ATOM     20  N   UNL     1       2.963   8.555  17.429  0.00  0.00    +0.000 NA
ATOM     21  C   UNL     1       2.272   9.496  18.130  0.00  0.00    +0.000 A 
ATOM     22  C   UNL     1       1.749   9.397  19.414  0.00  0.00    +0.000 A 
ATOM     23  C   UNL     1       1.801   8.095  19.906  0.00  0.00    +0.000 A 
ATOM     24  C   UNL     1       2.439   7.020  19.196  0.00  0.00    +0.000 A 
BRANCH  21  25
ATOM     25  O   UNL     1       2.023  10.622  17.400  0.00  0.00    +0.000 OA
ATOM     26  H   UNL     1       1.076  10.504  17.208  0.00  0.00    +0.000 HD
ENDBRANCH  21  25
ENDBRANCH  12  22
ENDBRANCH   1  12
BRANCH   1  27
ATOM     27  C   UNL     1      -0.851  10.314  21.689  0.00  0.00    +0.000 C 
BRANCH  27  28
ATOM     28  C   UNL     1      -1.092  11.394  22.806  0.00  0.00    +0.000 C 
ATOM     29  C   UNL     1      -2.473  11.885  23.239  0.00  0.00    +0.000 C 
ATOM     30  C   UNL     1      -2.548  13.337  22.837  0.00  0.00    +0.000 C 
ATOM     31  C   UNL     1      -1.145  13.697  22.405  0.00  0.00    +0.000 C 
ATOM     32  O   UNL     1      -0.296  12.560  22.572  0.00  0.00    +0.000 OA
ENDBRANCH  27  28
ENDBRANCH   1  27
TORSDOF 6
ENDMDL
MODEL 8
REMARK VINA RESULT:      -7.6      1.738      4.904
REMARK  Name = 
REMARK  8 active torsions:
REMARK  status: ('A' for Active; 'I' for Inactive)
REMARK    1  A    between atoms: C_1  and  C_2
REMARK    2  A    between atoms: C_5  and  C_6
REMARK    3  A    between atoms: C_9  and  O_10
REMARK    4  A    between atoms: C_11  and  C_12
REMARK    5  A    between atoms: C_12  and  N_13
REMARK    6  A    between atoms: N_13  and  C_14
REMARK    7  A    between atoms: C_14  and  C_15
REMARK    8  A    between atoms: N_22  and  C_23
REMARK                            x       y       z     vdW  Elec       q    Type
REMARK                         _______ _______ _______ _____ _____    ______ ____
ROOT
ATOM      1  N   UNL     1      -0.262  10.880  19.800  0.00  0.00    +0.000 N 
ATOM      2  C   UNL     1      -0.351  11.577  21.004  0.00  0.00    +0.000 C 
ATOM      3  O   UNL     1       0.623  11.876  21.685  0.00  0.00    +0.000 OA
ATOM      4  N   UNL     1      -1.621  11.944  21.345  0.00  0.00    +0.000 N 
ATOM      5  H   UNL     1      -2.364  11.485  20.861  0.00  0.00    +0.000 HD
ENDROOT
BRANCH   4   6
ATOM      6  C   UNL     1      -2.061  12.608  22.549  0.00  0.00    +0.000 C 
ATOM      7  C   UNL     1      -3.546  12.472  22.875  0.00  0.00    +0.000 C 
ATOM      8  C   UNL     1      -3.763  12.908  24.326  0.00  0.00    +0.000 C 
ATOM      9  C   UNL     1      -3.233  14.322  24.591  0.00  0.00    +0.000 C 
ATOM     10  C   UNL     1      -1.806  14.545  24.082  0.00  0.00    +0.000 C 
ATOM     11  C   UNL     1      -1.631  14.073  22.639  0.00  0.00    +0.000 C 
ENDBRANCH   4   6
BRANCH   1  12
ATOM     12  C   UNL     1       1.098  10.472  19.337  0.00  0.00    +0.000 C 
BRANCH  12  22
ATOM     13  C   UNL     1       4.244   6.917  16.680  0.00  0.00    +0.000 C 
ATOM     14  C   UNL     1       3.537   6.206  17.803  0.00  0.00    +0.000 A 
ATOM     15  C   UNL     1       3.788   4.834  17.955  0.00  0.00    +0.000 A 
ATOM     16  C   UNL     1       3.205   4.151  19.013  0.00  0.00    +0.000 A 
ATOM     17  C   UNL     1       2.420   4.834  19.960  0.00  0.00    +0.000 A 
ATOM     18  C   UNL     1       1.806   3.968  21.041  0.00  0.00    +0.000 C 
ATOM     19  C   UNL     1       2.197   6.244  19.870  0.00  0.00    +0.000 A 
ATOM     20  N   UNL     1       1.537   6.959  20.819  0.00  0.00    +0.000 NA
ATOM     21  C   UNL     1       1.305   8.281  20.590  0.00  0.00    +0.000 A 
ATOM     22  C   UNL     1       1.564   9.011  19.436  0.00  0.00    +0.000 A 
ATOM     23  C   UNL     1       2.330   8.294  18.519  0.00  0.00    +0.000 A 
ATOM     24  C   UNL     1       2.693   6.917  18.717  0.00  0.00    +0.000 A 
BRANCH  21  25
ATOM     25  O   UNL     1       0.835   8.933  21.693  0.00  0.00    +0.000 OA
ATOM     26  H   UNL     1       0.129   9.472  21.294  0.00  0.00    +0.000 HD
ENDBRANCH  21  25
ENDBRANCH  12  22
ENDBRANCH   1  12
BRANCH   1  27
ATOM     27  C   UNL     1      -1.444  10.418  19.015  0.00  0.00    +0.000 C 
BRANCH  27  28
ATOM     28  C   UNL     1      -2.258  11.412  18.108  0.00  0.00    +0.000 C 
ATOM     29  C   UNL     1      -3.774  11.596  18.182  0.00  0.00    +0.000 C 
ATOM     30  C   UNL     1      -4.323  11.092  16.872  0.00  0.00    +0.000 C 
ATOM     31  C   UNL     1      -3.110  10.855  16.002  0.00  0.00    +0.000 C 
ATOM     32  O   UNL     1      -1.935  11.225  16.725  0.00  0.00    +0.000 OA
ENDBRANCH  27  28
ENDBRANCH   1  27
TORSDOF 6
ENDMDL
MODEL 9
REMARK VINA RESULT:      -7.5      1.868      8.559
REMARK  Name = 
REMARK  8 active torsions:
REMARK  status: ('A' for Active; 'I' for Inactive)
REMARK    1  A    between atoms: C_1  and  C_2
REMARK    2  A    between atoms: C_5  and  C_6
REMARK    3  A    between atoms: C_9  and  O_10
REMARK    4  A    between atoms: C_11  and  C_12
REMARK    5  A    between atoms: C_12  and  N_13
REMARK    6  A    between atoms: N_13  and  C_14
REMARK    7  A    between atoms: C_14  and  C_15
REMARK    8  A    between atoms: N_22  and  C_23
REMARK                            x       y       z     vdW  Elec       q    Type
REMARK                         _______ _______ _______ _____ _____    ______ ____
ROOT
ATOM      1  N   UNL     1       2.406   7.907  18.420  0.00  0.00    +0.000 N 
ATOM      2  C   UNL     1       2.233   7.043  19.501  0.00  0.00    +0.000 C 
ATOM      3  O   UNL     1       1.884   7.416  20.615  0.00  0.00    +0.000 OA
ATOM      4  N   UNL     1       2.442   5.727  19.203  0.00  0.00    +0.000 N 
ATOM      5  H   UNL     1       2.923   5.532  18.350  0.00  0.00    +0.000 HD
ENDROOT
BRANCH   4   6
ATOM      6  C   UNL     1       2.412   4.597  20.102  0.00  0.00    +0.000 C 
ATOM      7  C   UNL     1       3.440   3.503  19.823  0.00  0.00    +0.000 C 
ATOM      8  C   UNL     1       3.513   2.588  21.049  0.00  0.00    +0.000 C 
ATOM      9  C   UNL     1       2.142   2.019  21.429  0.00  0.00    +0.000 C 
ATOM     10  C   UNL     1       1.042   3.081  21.513  0.00  0.00    +0.000 C 
ATOM     11  C   UNL     1       1.023   3.985  20.280  0.00  0.00    +0.000 C 
ENDBRANCH   4   6
BRANCH   1  12
ATOM     12  C   UNL     1       2.162   9.361  18.653  0.00  0.00    +0.000 C 
BRANCH  12  22
ATOM     13  C   UNL     1      -2.427   9.533  15.736  0.00  0.00    +0.000 C 
ATOM     14  C   UNL     1      -2.589  10.394  16.961  0.00  0.00    +0.000 A 
ATOM     15  C   UNL     1      -3.814  11.057  17.124  0.00  0.00    +0.000 A 
ATOM     16  C   UNL     1      -4.031  11.812  18.267  0.00  0.00    +0.000 A 
ATOM     17  C   UNL     1      -3.058  11.866  19.283  0.00  0.00    +0.000 A 
ATOM     18  C   UNL     1      -3.397  12.759  20.460  0.00  0.00    +0.000 C 
ATOM     19  C   UNL     1      -1.825  11.149  19.178  0.00  0.00    +0.000 A 
ATOM     20  N   UNL     1      -0.908  11.087  20.178  0.00  0.00    +0.000 NA
ATOM     21  C   UNL     1       0.272  10.451  19.938  0.00  0.00    +0.000 A 
ATOM     22  C   UNL     1       0.734   9.923  18.739  0.00  0.00    +0.000 A 
ATOM     23  C   UNL     1      -0.253   9.902  17.756  0.00  0.00    +0.000 A 
ATOM     24  C   UNL     1      -1.556  10.478  17.951  0.00  0.00    +0.000 A 
BRANCH  21  25
ATOM     25  O   UNL     1       1.011  10.265  21.071  0.00  0.00    +0.000 OA
ATOM     26  H   UNL     1       1.332  11.171  21.224  0.00  0.00    +0.000 HD
ENDBRANCH  21  25
ENDBRANCH  12  22
ENDBRANCH   1  12
BRANCH   1  27
ATOM     27  C   UNL     1       2.931   7.482  17.090  0.00  0.00    +0.000 C 
BRANCH  27  28
ATOM     28  C   UNL     1       4.446   7.111  16.893  0.00  0.00    +0.000 C 
ATOM     29  C   UNL     1       5.081   6.788  15.540  0.00  0.00    +0.000 C 
ATOM     30  C   UNL     1       5.484   5.336  15.600  0.00  0.00    +0.000 C 
ATOM     31  C   UNL     1       5.287   4.934  17.044  0.00  0.00    +0.000 C 
ATOM     32  O   UNL     1       4.840   6.067  17.790  0.00  0.00    +0.000 OA
ENDBRANCH  27  28
ENDBRANCH   1  27
TORSDOF 6
ENDMDL
