MODEL 1
REMARK VINA RESULT:      -6.8      0.000      0.000
REMARK  Name = 
REMARK  12 active torsions:
REMARK  status: ('A' for Active; 'I' for Inactive)
REMARK    1  A    between atoms: C_1  and  C_2
REMARK    2  A    between atoms: C_2  and  C_3
REMARK    3  A    between atoms: C_3  and  C_4
REMARK    4  A    between atoms: C_4  and  C_5
REMARK    5  A    between atoms: C_4  and  N_14
REMARK    6  A    between atoms: N_9  and  C_10
REMARK    7  A    between atoms: C_10  and  C_11
REMARK    8  A    between atoms: C_11  and  O_12
REMARK    9  A    between atoms: O_12  and  C_13
REMARK   10  A    between atoms: N_17  and  C_18
REMARK   11  A    between atoms: C_22  and  O_23
REMARK   12  A    between atoms: O_23  and  C_24
REMARK                            x       y       z     vdW  Elec       q    Type
REMARK                         _______ _______ _______ _____ _____    ______ ____
ROOT
ATOM      1  N   UNL     1       3.476   5.027  17.339  0.00  0.00    +0.000 NA
ATOM      2  C   UNL     1       2.082   5.092  17.828  0.00  0.00    +0.000 C 
ATOM      3  C   UNL     1       1.902   5.715  19.222  0.00  0.00    +0.000 C 
ATOM      4  N   UNL     1       2.627   6.992  19.374  0.00  0.00    +0.000 N 
ATOM      5  C   UNL     1       3.922   7.180  18.698  0.00  0.00    +0.000 C 
ATOM      6  C   UNL     1       4.016   6.406  17.365  0.00  0.00    +0.000 C 
ENDROOT
BRANCH   4   7
ATOM      7  C   UNL     1       1.904   8.160  19.585  0.00  0.00    +0.000 A 
ATOM      8  C   UNL     1       1.493   8.931  18.492  0.00  0.00    +0.000 A 
ATOM      9  C   UNL     1       0.757  10.097  18.674  0.00  0.00    +0.000 A 
ATOM     10  C   UNL     1       0.427  10.507  19.966  0.00  0.00    +0.000 A 
ATOM     11  C   UNL     1       0.826   9.755  21.067  0.00  0.00    +0.000 A 
ATOM     12  C   UNL     1       1.551   8.586  20.868  0.00  0.00    +0.000 A 
BRANCH  11  13
ATOM     13  O   UNL     1       0.444  10.246  22.290  0.00  0.00    +0.000 OA
ATOM     14  C   UNL     1      -0.510   9.470  23.010  0.00  0.00    +0.000 C 
ENDBRANCH  11  13
ENDBRANCH   4   7
BRANCH   1  15
ATOM     15  C   UNL     1       4.345   4.011  17.977  0.00  0.00    +0.000 C 
BRANCH  15  16
ATOM     16  C   UNL     1       5.781   4.205  17.561  0.00  0.00    +0.000 A 
ATOM     17  N   UNL     1       6.799   4.383  18.387  0.00  0.00    +0.000 NA
ATOM     18  N   UNL     1       7.905   4.580  17.613  0.00  0.00    +0.000 NA
ATOM     19  N   UNL     1       7.601   4.500  16.329  0.00  0.00    +0.000 NA
ATOM     20  N   UNL     1       6.270   4.283  16.281  0.00  0.00    +0.000 N 
BRANCH  20  21
ATOM     21  C   UNL     1       5.662   4.023  14.998  0.00  0.00    +0.000 C 
BRANCH  21  22
ATOM     22  C   UNL     1       6.524   4.301  13.771  0.00  0.00    +0.000 C 
BRANCH  22  23
ATOM     23  O   UNL     1       6.367   3.284  12.786  0.00  0.00    +0.000 OA
ATOM     24  C   UNL     1       5.143   3.432  12.072  0.00  0.00    +0.000 C 
ENDBRANCH  22  23
ENDBRANCH  21  22
ENDBRANCH  20  21
ENDBRANCH  15  16
BRANCH  15  25
ATOM     25  C   UNL     1       3.990   2.504  17.841  0.00  0.00    +0.000 C 
BRANCH  25  27
ATOM     26  C   UNL     1       1.939   1.930  19.171  0.00  0.00    +0.000 C 
ATOM     27  C   UNL     1       3.460   1.870  19.132  0.00  0.00    +0.000 C 
ENDBRANCH  25  27
ENDBRANCH  15  25
ENDBRANCH   1  15
TORSDOF 9
ENDMDL
MODEL 2
REMARK VINA RESULT:      -6.7      2.599      4.403
REMARK  Name = 
REMARK  12 active torsions:
REMARK  status: ('A' for Active; 'I' for Inactive)
REMARK    1  A    between atoms: C_1  and  C_2
REMARK    2  A    between atoms: C_2  and  C_3
REMARK    3  A    between atoms: C_3  and  C_4
REMARK    4  A    between atoms: C_4  and  C_5
REMARK    5  A    between atoms: C_4  and  N_14
REMARK    6  A    between atoms: N_9  and  C_10
REMARK    7  A    between atoms: C_10  and  C_11
REMARK    8  A    between atoms: C_11  and  O_12
REMARK    9  A    between atoms: O_12  and  C_13
REMARK   10  A    between atoms: N_17  and  C_18
REMARK   11  A    between atoms: C_22  and  O_23
REMARK   12  A    between atoms: O_23  and  C_24
REMARK                            x       y       z     vdW  Elec       q    Type
REMARK                         _______ _______ _______ _____ _____    ______ ____
ROOT
ATOM      1  N   UNL     1       4.513   6.005  18.263  0.00  0.00    +0.000 NA
ATOM      2  C   UNL     1       4.270   7.275  17.545  0.00  0.00    +0.000 C 
ATOM      3  C   UNL     1       2.795   7.689  17.419  0.00  0.00    +0.000 C 
ATOM      4  N   UNL     1       2.067   7.602  18.700  0.00  0.00    +0.000 N 
ATOM      5  C   UNL     1       2.404   6.536  19.659  0.00  0.00    +0.000 C 
ATOM      6  C   UNL     1       3.894   6.131  19.602  0.00  0.00    +0.000 C 
ENDROOT
BRANCH   4   7
ATOM      7  C   UNL     1       1.563   8.764  19.272  0.00  0.00    +0.000 A 
ATOM      8  C   UNL     1       1.201   8.774  20.624  0.00  0.00    +0.000 A 
ATOM      9  C   UNL     1       0.706   9.927  21.225  0.00  0.00    +0.000 A 
ATOM     10  C   UNL     1       0.564  11.090  20.467  0.00  0.00    +0.000 A 
ATOM     11  C   UNL     1       0.917  11.101  19.120  0.00  0.00    +0.000 A 
ATOM     12  C   UNL     1       1.422   9.945  18.538  0.00  0.00    +0.000 A 
BRANCH  11  13
ATOM     13  O   UNL     1       0.742  12.297  18.473  0.00  0.00    +0.000 OA
ATOM     14  C   UNL     1      -0.598  12.772  18.377  0.00  0.00    +0.000 C 
ENDBRANCH  11  13
ENDBRANCH   4   7
BRANCH   1  15
ATOM     15  C   UNL     1       4.160   4.765  17.533  0.00  0.00    +0.000 C 
BRANCH  15  16
ATOM     16  C   UNL     1       4.268   3.567  18.442  0.00  0.00    +0.000 A 
ATOM     17  N   UNL     1       5.240   3.354  19.314  0.00  0.00    +0.000 NA
ATOM     18  N   UNL     1       4.998   2.138  19.885  0.00  0.00    +0.000 NA
ATOM     19  N   UNL     1       3.886   1.607  19.407  0.00  0.00    +0.000 NA
ATOM     20  N   UNL     1       3.426   2.483  18.489  0.00  0.00    +0.000 N 
BRANCH  20  21
ATOM     21  C   UNL     1       2.142   2.232  17.882  0.00  0.00    +0.000 C 
BRANCH  21  22
ATOM     22  C   UNL     1       0.935   2.265  18.814  0.00  0.00    +0.000 C 
BRANCH  22  23
ATOM     23  O   UNL     1       0.965   3.409  19.662  0.00  0.00    +0.000 OA
ATOM     24  C   UNL     1       1.135   3.044  21.028  0.00  0.00    +0.000 C 
ENDBRANCH  22  23
ENDBRANCH  21  22
ENDBRANCH  20  21
ENDBRANCH  15  16
BRANCH  15  25
ATOM     25  C   UNL     1       4.873   4.435  16.192  0.00  0.00    +0.000 C 
BRANCH  25  27
ATOM     26  C   UNL     1       7.002   4.805  14.914  0.00  0.00    +0.000 C 
ATOM     27  C   UNL     1       6.403   4.475  16.274  0.00  0.00    +0.000 C 
ENDBRANCH  25  27
ENDBRANCH  15  25
ENDBRANCH   1  15
TORSDOF 9
ENDMDL
MODEL 3
REMARK VINA RESULT:      -6.7      2.124      3.012
REMARK  Name = 
REMARK  12 active torsions:
REMARK  status: ('A' for Active; 'I' for Inactive)
REMARK    1  A    between atoms: C_1  and  C_2
REMARK    2  A    between atoms: C_2  and  C_3
REMARK    3  A    between atoms: C_3  and  C_4
REMARK    4  A    between atoms: C_4  and  C_5
REMARK    5  A    between atoms: C_4  and  N_14
REMARK    6  A    between atoms: N_9  and  C_10
REMARK    7  A    between atoms: C_10  and  C_11
REMARK    8  A    between atoms: C_11  and  O_12
REMARK    9  A    between atoms: O_12  and  C_13
REMARK   10  A    between atoms: N_17  and  C_18
REMARK   11  A    between atoms: C_22  and  O_23
REMARK   12  A    between atoms: O_23  and  C_24
REMARK                            x       y       z     vdW  Elec       q    Type
REMARK                         _______ _______ _______ _____ _____    ______ ____
ROOT
ATOM      1  N   UNL     1       3.308   5.119  17.399  0.00  0.00    +0.000 NA
ATOM      2  C   UNL     1       2.079   4.961  18.206  0.00  0.00    +0.000 C 
ATOM      3  C   UNL     1       2.108   5.632  19.588  0.00  0.00    +0.000 C 
ATOM      4  N   UNL     1       2.587   7.027  19.534  0.00  0.00    +0.000 N 
ATOM      5  C   UNL     1       3.630   7.403  18.565  0.00  0.00    +0.000 C 
ATOM      6  C   UNL     1       3.563   6.572  17.265  0.00  0.00    +0.000 C 
ENDROOT
BRANCH   4   7
ATOM      7  C   UNL     1       1.719   8.055  19.887  0.00  0.00    +0.000 A 
ATOM      8  C   UNL     1       1.132   8.064  21.157  0.00  0.00    +0.000 A 
ATOM      9  C   UNL     1       0.270   9.086  21.540  0.00  0.00    +0.000 A 
ATOM     10  C   UNL     1      -0.017  10.116  20.643  0.00  0.00    +0.000 A 
ATOM     11  C   UNL     1       0.557  10.125  19.375  0.00  0.00    +0.000 A 
ATOM     12  C   UNL     1       1.426   9.103  19.011  0.00  0.00    +0.000 A 
BRANCH  11  13
ATOM     13  O   UNL     1       0.212  11.186  18.577  0.00  0.00    +0.000 OA
ATOM     14  C   UNL     1      -0.825  12.032  19.068  0.00  0.00    +0.000 C 
ENDBRANCH  11  13
ENDBRANCH   4   7
BRANCH   1  15
ATOM     15  C   UNL     1       4.482   4.324  17.833  0.00  0.00    +0.000 C 
BRANCH  15  16
ATOM     16  C   UNL     1       5.560   4.353  16.781  0.00  0.00    +0.000 A 
ATOM     17  N   UNL     1       5.360   4.244  15.478  0.00  0.00    +0.000 NA
ATOM     18  N   UNL     1       6.590   4.257  14.887  0.00  0.00    +0.000 NA
ATOM     19  N   UNL     1       7.544   4.399  15.791  0.00  0.00    +0.000 NA
ATOM     20  N   UNL     1       6.915   4.443  16.984  0.00  0.00    +0.000 N 
BRANCH  20  21
ATOM     21  C   UNL     1       7.697   4.724  18.164  0.00  0.00    +0.000 C 
BRANCH  21  22
ATOM     22  C   UNL     1       7.331   5.990  18.932  0.00  0.00    +0.000 C 
BRANCH  22  23
ATOM     23  O   UNL     1       8.217   7.061  18.620  0.00  0.00    +0.000 OA
ATOM     24  C   UNL     1       7.689   7.896  17.596  0.00  0.00    +0.000 C 
ENDBRANCH  22  23
ENDBRANCH  21  22
ENDBRANCH  20  21
ENDBRANCH  15  16
BRANCH  15  25
ATOM     25  C   UNL     1       4.282   2.854  18.298  0.00  0.00    +0.000 C 
BRANCH  25  27
ATOM     26  C   UNL     1       3.288   2.432  20.565  0.00  0.00    +0.000 C 
ATOM     27  C   UNL     1       4.581   2.625  19.783  0.00  0.00    +0.000 C 
ENDBRANCH  25  27
ENDBRANCH  15  25
ENDBRANCH   1  15
TORSDOF 9
ENDMDL
MODEL 4
REMARK VINA RESULT:      -6.7      2.423      4.132
REMARK  Name = 
REMARK  12 active torsions:
REMARK  status: ('A' for Active; 'I' for Inactive)
REMARK    1  A    between atoms: C_1  and  C_2
REMARK    2  A    between atoms: C_2  and  C_3
REMARK    3  A    between atoms: C_3  and  C_4
REMARK    4  A    between atoms: C_4  and  C_5
REMARK    5  A    between atoms: C_4  and  N_14
REMARK    6  A    between atoms: N_9  and  C_10
REMARK    7  A    between atoms: C_10  and  C_11
REMARK    8  A    between atoms: C_11  and  O_12
REMARK    9  A    between atoms: O_12  and  C_13
REMARK   10  A    between atoms: N_17  and  C_18
REMARK   11  A    between atoms: C_22  and  O_23
REMARK   12  A    between atoms: O_23  and  C_24
REMARK                            x       y       z     vdW  Elec       q    Type
REMARK                         _______ _______ _______ _____ _____    ______ ____
ROOT
ATOM      1  N   UNL     1       4.516   6.080  18.088  0.00  0.00    +0.000 NA
ATOM      2  C   UNL     1       4.129   7.350  17.436  0.00  0.00    +0.000 C 
ATOM      3  C   UNL     1       2.629   7.683  17.480  0.00  0.00    +0.000 C 
ATOM      4  N   UNL     1       2.049   7.525  18.828  0.00  0.00    +0.000 N 
ATOM      5  C   UNL     1       2.544   6.459  19.715  0.00  0.00    +0.000 C 
ATOM      6  C   UNL     1       4.038   6.141  19.488  0.00  0.00    +0.000 C 
ENDROOT
BRANCH   4   7
ATOM      7  C   UNL     1       1.547   8.644  19.483  0.00  0.00    +0.000 A 
ATOM      8  C   UNL     1       1.306   9.820  18.765  0.00  0.00    +0.000 A 
ATOM      9  C   UNL     1       0.793  10.951  19.393  0.00  0.00    +0.000 A 
ATOM     10  C   UNL     1       0.518  10.912  20.760  0.00  0.00    +0.000 A 
ATOM     11  C   UNL     1       0.751   9.752  21.493  0.00  0.00    +0.000 A 
ATOM     12  C   UNL     1       1.253   8.627  20.849  0.00  0.00    +0.000 A 
BRANCH  11  13
ATOM     13  O   UNL     1       0.441   9.822  22.827  0.00  0.00    +0.000 OA
ATOM     14  C   UNL     1      -0.872  10.277  23.145  0.00  0.00    +0.000 C 
ENDBRANCH  11  13
ENDBRANCH   4   7
BRANCH   1  15
ATOM     15  C   UNL     1       4.154   4.838  17.364  0.00  0.00    +0.000 C 
BRANCH  15  16
ATOM     16  C   UNL     1       4.268   3.643  18.275  0.00  0.00    +0.000 A 
ATOM     17  N   UNL     1       5.295   3.379  19.066  0.00  0.00    +0.000 NA
ATOM     18  N   UNL     1       5.031   2.184  19.669  0.00  0.00    +0.000 NA
ATOM     19  N   UNL     1       3.854   1.716  19.292  0.00  0.00    +0.000 NA
ATOM     20  N   UNL     1       3.371   2.610  18.404  0.00  0.00    +0.000 N 
BRANCH  20  21
ATOM     21  C   UNL     1       2.028   2.432  17.908  0.00  0.00    +0.000 C 
BRANCH  21  22
ATOM     22  C   UNL     1       0.946   2.189  18.955  0.00  0.00    +0.000 C 
BRANCH  22  23
ATOM     23  O   UNL     1       0.691   3.365  19.719  0.00  0.00    +0.000 OA
ATOM     24  C   UNL     1       1.164   3.234  21.055  0.00  0.00    +0.000 C 
ENDBRANCH  22  23
ENDBRANCH  21  22
ENDBRANCH  20  21
ENDBRANCH  15  16
BRANCH  15  25
ATOM     25  C   UNL     1       4.854   4.505  16.018  0.00  0.00    +0.000 C 
BRANCH  25  27
ATOM     26  C   UNL     1       6.977   4.670  14.686  0.00  0.00    +0.000 C 
ATOM     27  C   UNL     1       6.112   5.338  15.747  0.00  0.00    +0.000 C 
ENDBRANCH  25  27
ENDBRANCH  15  25
ENDBRANCH   1  15
TORSDOF 9
ENDMDL
MODEL 5
REMARK VINA RESULT:      -6.7      1.044      1.663
REMARK  Name = 
REMARK  12 active torsions:
REMARK  status: ('A' for Active; 'I' for Inactive)
REMARK    1  A    between atoms: C_1  and  C_2
REMARK    2  A    between atoms: C_2  and  C_3
REMARK    3  A    between atoms: C_3  and  C_4
REMARK    4  A    between atoms: C_4  and  C_5
REMARK    5  A    between atoms: C_4  and  N_14
REMARK    6  A    between atoms: N_9  and  C_10
REMARK    7  A    between atoms: C_10  and  C_11
REMARK    8  A    between atoms: C_11  and  O_12
REMARK    9  A    between atoms: O_12  and  C_13
REMARK   10  A    between atoms: N_17  and  C_18
REMARK   11  A    between atoms: C_22  and  O_23
REMARK   12  A    between atoms: O_23  and  C_24
REMARK                            x       y       z     vdW  Elec       q    Type
REMARK                         _______ _______ _______ _____ _____    ______ ____
ROOT
ATOM      1  N   UNL     1       3.476   4.937  17.468  0.00  0.00    +0.000 NA
ATOM      2  C   UNL     1       2.071   4.910  17.929  0.00  0.00    +0.000 C 
ATOM      3  C   UNL     1       1.842   5.389  19.371  0.00  0.00    +0.000 C 
ATOM      4  N   UNL     1       2.520   6.667  19.663  0.00  0.00    +0.000 N 
ATOM      5  C   UNL     1       3.821   6.961  19.039  0.00  0.00    +0.000 C 
ATOM      6  C   UNL     1       3.969   6.324  17.640  0.00  0.00    +0.000 C 
ENDROOT
BRANCH   4   7
ATOM      7  C   UNL     1       1.753   7.785  19.969  0.00  0.00    +0.000 A 
ATOM      8  C   UNL     1       1.145   7.889  21.226  0.00  0.00    +0.000 A 
ATOM      9  C   UNL     1       0.383   9.002  21.563  0.00  0.00    +0.000 A 
ATOM     10  C   UNL     1       0.218  10.030  20.633  0.00  0.00    +0.000 A 
ATOM     11  C   UNL     1       0.814   9.945  19.378  0.00  0.00    +0.000 A 
ATOM     12  C   UNL     1       1.582   8.832  19.060  0.00  0.00    +0.000 A 
BRANCH  11  13
ATOM     13  O   UNL     1       0.591  11.012  18.545  0.00  0.00    +0.000 OA
ATOM     14  C   UNL     1      -0.705  11.600  18.607  0.00  0.00    +0.000 C 
ENDBRANCH  11  13
ENDBRANCH   4   7
BRANCH   1  15
ATOM     15  C   UNL     1       4.367   3.892  18.025  0.00  0.00    +0.000 C 
BRANCH  15  16
ATOM     16  C   UNL     1       5.800   4.158  17.642  0.00  0.00    +0.000 A 
ATOM     17  N   UNL     1       6.769   4.481  18.483  0.00  0.00    +0.000 NA
ATOM     18  N   UNL     1       7.888   4.694  17.732  0.00  0.00    +0.000 NA
ATOM     19  N   UNL     1       7.642   4.482  16.451  0.00  0.00    +0.000 NA
ATOM     20  N   UNL     1       6.333   4.162  16.377  0.00  0.00    +0.000 N 
BRANCH  20  21
ATOM     21  C   UNL     1       5.797   3.748  15.103  0.00  0.00    +0.000 C 
BRANCH  21  22
ATOM     22  C   UNL     1       6.510   4.277  13.863  0.00  0.00    +0.000 C 
BRANCH  22  23
ATOM     23  O   UNL     1       6.094   3.586  12.690  0.00  0.00    +0.000 OA
ATOM     24  C   UNL     1       7.106   3.596  11.689  0.00  0.00    +0.000 C 
ENDBRANCH  22  23
ENDBRANCH  21  22
ENDBRANCH  20  21
ENDBRANCH  15  16
BRANCH  15  25
ATOM     25  C   UNL     1       4.051   2.394  17.756  0.00  0.00    +0.000 C 
BRANCH  25  27
ATOM     26  C   UNL     1       3.931   2.296  20.263  0.00  0.00    +0.000 C 
ATOM     27  C   UNL     1       3.461   1.656  18.963  0.00  0.00    +0.000 C 
ENDBRANCH  25  27
ENDBRANCH  15  25
ENDBRANCH   1  15
TORSDOF 9
ENDMDL
MODEL 6
REMARK VINA RESULT:      -6.5      2.022      3.128
REMARK  Name = 
REMARK  12 active torsions:
REMARK  status: ('A' for Active; 'I' for Inactive)
REMARK    1  A    between atoms: C_1  and  C_2
REMARK    2  A    between atoms: C_2  and  C_3
REMARK    3  A    between atoms: C_3  and  C_4
REMARK    4  A    between atoms: C_4  and  C_5
REMARK    5  A    between atoms: C_4  and  N_14
REMARK    6  A    between atoms: N_9  and  C_10
REMARK    7  A    between atoms: C_10  and  C_11
REMARK    8  A    between atoms: C_11  and  O_12
REMARK    9  A    between atoms: O_12  and  C_13
REMARK   10  A    between atoms: N_17  and  C_18
REMARK   11  A    between atoms: C_22  and  O_23
REMARK   12  A    between atoms: O_23  and  C_24
REMARK                            x       y       z     vdW  Elec       q    Type
REMARK                         _______ _______ _______ _____ _____    ______ ____
ROOT
ATOM      1  N   UNL     1       4.658   5.154  18.726  0.00  0.00    +0.000 NA
ATOM      2  C   UNL     1       4.719   6.546  18.231  0.00  0.00    +0.000 C 
ATOM      3  C   UNL     1       3.377   7.143  17.775  0.00  0.00    +0.000 C 
ATOM      4  N   UNL     1       2.294   6.925  18.755  0.00  0.00    +0.000 N 
ATOM      5  C   UNL     1       2.263   5.681  19.543  0.00  0.00    +0.000 C 
ATOM      6  C   UNL     1       3.674   5.123  19.833  0.00  0.00    +0.000 C 
ENDROOT
BRANCH   4   7
ATOM      7  C   UNL     1       1.713   8.024  19.375  0.00  0.00    +0.000 A 
ATOM      8  C   UNL     1       1.432   7.982  20.746  0.00  0.00    +0.000 A 
ATOM      9  C   UNL     1       0.862   9.072  21.395  0.00  0.00    +0.000 A 
ATOM     10  C   UNL     1       0.562  10.225  20.668  0.00  0.00    +0.000 A 
ATOM     11  C   UNL     1       0.832  10.287  19.304  0.00  0.00    +0.000 A 
ATOM     12  C   UNL     1       1.413   9.194  18.672  0.00  0.00    +0.000 A 
BRANCH  11  13
ATOM     13  O   UNL     1       0.502  11.468  18.689  0.00  0.00    +0.000 OA
ATOM     14  C   UNL     1       0.289  12.586  19.546  0.00  0.00    +0.000 C 
ENDBRANCH  11  13
ENDBRANCH   4   7
BRANCH   1  15
ATOM     15  C   UNL     1       4.466   4.103  17.699  0.00  0.00    +0.000 C 
BRANCH  15  16
ATOM     16  C   UNL     1       5.388   4.332  16.529  0.00  0.00    +0.000 A 
ATOM     17  N   UNL     1       5.013   4.403  15.262  0.00  0.00    +0.000 NA
ATOM     18  N   UNL     1       6.149   4.556  14.522  0.00  0.00    +0.000 NA
ATOM     19  N   UNL     1       7.215   4.608  15.302  0.00  0.00    +0.000 NA
ATOM     20  N   UNL     1       6.756   4.452  16.561  0.00  0.00    +0.000 N 
BRANCH  20  21
ATOM     21  C   UNL     1       7.685   4.594  17.656  0.00  0.00    +0.000 C 
BRANCH  21  22
ATOM     22  C   UNL     1       7.903   6.010  18.179  0.00  0.00    +0.000 C 
BRANCH  22  23
ATOM     23  O   UNL     1       7.859   6.966  17.123  0.00  0.00    +0.000 OA
ATOM     24  C   UNL     1       7.883   8.299  17.623  0.00  0.00    +0.000 C 
ENDBRANCH  22  23
ENDBRANCH  21  22
ENDBRANCH  20  21
ENDBRANCH  15  16
BRANCH  15  25
ATOM     25  C   UNL     1       3.039   3.815  17.156  0.00  0.00    +0.000 C 
BRANCH  25  27
ATOM     26  C   UNL     1       3.496   1.690  18.414  0.00  0.00    +0.000 C 
ATOM     27  C   UNL     1       2.485   2.443  17.560  0.00  0.00    +0.000 C 
ENDBRANCH  25  27
ENDBRANCH  15  25
ENDBRANCH   1  15
TORSDOF 9
ENDMDL
MODEL 7
REMARK VINA RESULT:      -6.4      2.438      3.235
REMARK  Name = 
REMARK  12 active torsions:
REMARK  status: ('A' for Active; 'I' for Inactive)
REMARK    1  A    between atoms: C_1  and  C_2
REMARK    2  A    between atoms: C_2  and  C_3
REMARK    3  A    between atoms: C_3  and  C_4
REMARK    4  A    between atoms: C_4  and  C_5
REMARK    5  A    between atoms: C_4  and  N_14
REMARK    6  A    between atoms: N_9  and  C_10
REMARK    7  A    between atoms: C_10  and  C_11
REMARK    8  A    between atoms: C_11  and  O_12
REMARK    9  A    between atoms: O_12  and  C_13
REMARK   10  A    between atoms: N_17  and  C_18
REMARK   11  A    between atoms: C_22  and  O_23
REMARK   12  A    between atoms: O_23  and  C_24
REMARK                            x       y       z     vdW  Elec       q    Type
REMARK                         _______ _______ _______ _____ _____    ______ ____
ROOT
ATOM      1  N   UNL     1       2.266   4.784  18.502  0.00  0.00    +0.000 NA
ATOM      2  C   UNL     1       1.322   4.880  19.637  0.00  0.00    +0.000 C 
ATOM      3  C   UNL     1       1.716   5.878  20.738  0.00  0.00    +0.000 C 
ATOM      4  N   UNL     1       2.108   7.196  20.200  0.00  0.00    +0.000 N 
ATOM      5  C   UNL     1       2.819   7.275  18.912  0.00  0.00    +0.000 C 
ATOM      6  C   UNL     1       2.417   6.145  17.939  0.00  0.00    +0.000 C 
ENDROOT
BRANCH   4   7
ATOM      7  C   UNL     1       1.338   8.310  20.512  0.00  0.00    +0.000 A 
ATOM      8  C   UNL     1       1.172   8.688  21.849  0.00  0.00    +0.000 A 
ATOM      9  C   UNL     1       0.417   9.806  22.189  0.00  0.00    +0.000 A 
ATOM     10  C   UNL     1      -0.187  10.560  21.181  0.00  0.00    +0.000 A 
ATOM     11  C   UNL     1      -0.034  10.200  19.845  0.00  0.00    +0.000 A 
ATOM     12  C   UNL     1       0.733   9.088  19.521  0.00  0.00    +0.000 A 
BRANCH  11  13
ATOM     13  O   UNL     1      -0.665  11.013  18.938  0.00  0.00    +0.000 OA
ATOM     14  C   UNL     1      -1.255  10.364  17.815  0.00  0.00    +0.000 C 
ENDBRANCH  11  13
ENDBRANCH   4   7
BRANCH   1  15
ATOM     15  C   UNL     1       3.543   4.082  18.773  0.00  0.00    +0.000 C 
BRANCH  15  16
ATOM     16  C   UNL     1       4.495   4.251  17.617  0.00  0.00    +0.000 A 
ATOM     17  N   UNL     1       4.359   3.693  16.425  0.00  0.00    +0.000 NA
ATOM     18  N   UNL     1       5.456   4.047  15.696  0.00  0.00    +0.000 NA
ATOM     19  N   UNL     1       6.254   4.832  16.398  0.00  0.00    +0.000 NA
ATOM     20  N   UNL     1       5.674   4.955  17.610  0.00  0.00    +0.000 N 
BRANCH  20  21
ATOM     21  C   UNL     1       6.258   5.869  18.562  0.00  0.00    +0.000 C 
BRANCH  21  22
ATOM     22  C   UNL     1       7.780   5.875  18.649  0.00  0.00    +0.000 C 
BRANCH  22  23
ATOM     23  O   UNL     1       8.294   7.204  18.659  0.00  0.00    +0.000 OA
ATOM     24  C   UNL     1       7.742   7.987  17.605  0.00  0.00    +0.000 C 
ENDBRANCH  22  23
ENDBRANCH  21  22
ENDBRANCH  20  21
ENDBRANCH  15  16
BRANCH  15  25
ATOM     25  C   UNL     1       3.521   2.582  19.181  0.00  0.00    +0.000 C 
BRANCH  25  27
ATOM     26  C   UNL     1       2.619   2.445  21.521  0.00  0.00    +0.000 C 
ATOM     27  C   UNL     1       3.866   2.334  20.654  0.00  0.00    +0.000 C 
ENDBRANCH  25  27
ENDBRANCH  15  25
ENDBRANCH   1  15
TORSDOF 9
ENDMDL
MODEL 8
REMARK VINA RESULT:      -6.3      2.047      2.903
REMARK  Name = 
REMARK  12 active torsions:
REMARK  status: ('A' for Active; 'I' for Inactive)
REMARK    1  A    between atoms: C_1  and  C_2
REMARK    2  A    between atoms: C_2  and  C_3
REMARK    3  A    between atoms: C_3  and  C_4
REMARK    4  A    between atoms: C_4  and  C_5
REMARK    5  A    between atoms: C_4  and  N_14
REMARK    6  A    between atoms: N_9  and  C_10
REMARK    7  A    between atoms: C_10  and  C_11
REMARK    8  A    between atoms: C_11  and  O_12
REMARK    9  A    between atoms: O_12  and  C_13
REMARK   10  A    between atoms: N_17  and  C_18
REMARK   11  A    between atoms: C_22  and  O_23
REMARK   12  A    between atoms: O_23  and  C_24
REMARK                            x       y       z     vdW  Elec       q    Type
REMARK                         _______ _______ _______ _____ _____    ______ ____
ROOT
ATOM      1  N   UNL     1       4.607   5.295  18.615  0.00  0.00    +0.000 NA
ATOM      2  C   UNL     1       4.495   6.638  18.005  0.00  0.00    +0.000 C 
ATOM      3  C   UNL     1       3.060   7.131  17.758  0.00  0.00    +0.000 C 
ATOM      4  N   UNL     1       2.186   6.957  18.934  0.00  0.00    +0.000 N 
ATOM      5  C   UNL     1       2.371   5.789  19.813  0.00  0.00    +0.000 C 
ATOM      6  C   UNL     1       3.842   5.322  19.882  0.00  0.00    +0.000 C 
ENDROOT
BRANCH   4   7
ATOM      7  C   UNL     1       1.662   8.082  19.560  0.00  0.00    +0.000 A 
ATOM      8  C   UNL     1       1.413   9.239  18.815  0.00  0.00    +0.000 A 
ATOM      9  C   UNL     1       0.877  10.375  19.413  0.00  0.00    +0.000 A 
ATOM     10  C   UNL     1       0.587  10.361  20.778  0.00  0.00    +0.000 A 
ATOM     11  C   UNL     1       0.827   9.220  21.537  0.00  0.00    +0.000 A 
ATOM     12  C   UNL     1       1.352   8.089  20.922  0.00  0.00    +0.000 A 
BRANCH  11  13
ATOM     13  O   UNL     1       0.500   9.314  22.866  0.00  0.00    +0.000 OA
ATOM     14  C   UNL     1      -0.702  10.015  23.171  0.00  0.00    +0.000 C 
ENDBRANCH  11  13
ENDBRANCH   4   7
BRANCH   1  15
ATOM     15  C   UNL     1       4.296   4.148  17.729  0.00  0.00    +0.000 C 
BRANCH  15  16
ATOM     16  C   UNL     1       5.131   4.204  16.476  0.00  0.00    +0.000 A 
ATOM     17  N   UNL     1       4.682   4.004  15.248  0.00  0.00    +0.000 NA
ATOM     18  N   UNL     1       5.761   4.083  14.416  0.00  0.00    +0.000 NA
ATOM     19  N   UNL     1       6.861   4.353  15.097  0.00  0.00    +0.000 NA
ATOM     20  N   UNL     1       6.486   4.415  16.391  0.00  0.00    +0.000 N 
BRANCH  20  21
ATOM     21  C   UNL     1       7.461   4.826  17.372  0.00  0.00    +0.000 C 
BRANCH  21  22
ATOM     22  C   UNL     1       7.680   6.328  17.520  0.00  0.00    +0.000 C 
BRANCH  22  23
ATOM     23  O   UNL     1       8.158   6.656  18.822  0.00  0.00    +0.000 OA
ATOM     24  C   UNL     1       7.907   5.608  19.751  0.00  0.00    +0.000 C 
ENDBRANCH  22  23
ENDBRANCH  21  22
ENDBRANCH  20  21
ENDBRANCH  15  16
BRANCH  15  25
ATOM     25  C   UNL     1       2.820   3.867  17.329  0.00  0.00    +0.000 C 
BRANCH  25  27
ATOM     26  C   UNL     1       1.090   2.565  18.600  0.00  0.00    +0.000 C 
ATOM     27  C   UNL     1       2.326   2.469  17.715  0.00  0.00    +0.000 C 
ENDBRANCH  25  27
ENDBRANCH  15  25
ENDBRANCH   1  15
TORSDOF 9
ENDMDL
MODEL 9
REMARK VINA RESULT:      -6.3      2.322      3.207
REMARK  Name = 
REMARK  12 active torsions:
REMARK  status: ('A' for Active; 'I' for Inactive)
REMARK    1  A    between atoms: C_1  and  C_2
REMARK    2  A    between atoms: C_2  and  C_3
REMARK    3  A    between atoms: C_3  and  C_4
REMARK    4  A    between atoms: C_4  and  C_5
REMARK    5  A    between atoms: C_4  and  N_14
REMARK    6  A    between atoms: N_9  and  C_10
REMARK    7  A    between atoms: C_10  and  C_11
REMARK    8  A    between atoms: C_11  and  O_12
REMARK    9  A    between atoms: O_12  and  C_13
REMARK   10  A    between atoms: N_17  and  C_18
REMARK   11  A    between atoms: C_22  and  O_23
REMARK   12  A    between atoms: O_23  and  C_24
REMARK                            x       y       z     vdW  Elec       q    Type
REMARK                         _______ _______ _______ _____ _____    ______ ____
ROOT
ATOM      1  N   UNL     1       2.765   5.193  18.389  0.00  0.00    +0.000 NA
ATOM      2  C   UNL     1       2.059   5.187  19.689  0.00  0.00    +0.000 C 
ATOM      3  C   UNL     1       2.352   6.387  20.603  0.00  0.00    +0.000 C 
ATOM      4  N   UNL     1       2.252   7.680  19.898  0.00  0.00    +0.000 N 
ATOM      5  C   UNL     1       2.661   7.774  18.486  0.00  0.00    +0.000 C 
ATOM      6  C   UNL     1       2.420   6.462  17.707  0.00  0.00    +0.000 C 
ENDROOT
BRANCH   4   7
ATOM      7  C   UNL     1       1.271   8.586  20.283  0.00  0.00    +0.000 A 
ATOM      8  C   UNL     1       0.882   8.661  21.625  0.00  0.00    +0.000 A 
ATOM      9  C   UNL     1      -0.088   9.568  22.041  0.00  0.00    +0.000 A 
ATOM     10  C   UNL     1      -0.685  10.412  21.105  0.00  0.00    +0.000 A 
ATOM     11  C   UNL     1      -0.313  10.353  19.765  0.00  0.00    +0.000 A 
ATOM     12  C   UNL     1       0.666   9.451  19.367  0.00  0.00    +0.000 A 
BRANCH  11  13
ATOM     13  O   UNL     1      -0.959  11.231  18.932  0.00  0.00    +0.000 OA
ATOM     14  C   UNL     1      -1.659  10.657  17.832  0.00  0.00    +0.000 C 
ENDBRANCH  11  13
ENDBRANCH   4   7
BRANCH   1  15
ATOM     15  C   UNL     1       4.215   4.889  18.432  0.00  0.00    +0.000 C 
BRANCH  15  16
ATOM     16  C   UNL     1       4.808   4.941  17.048  0.00  0.00    +0.000 A 
ATOM     17  N   UNL     1       4.607   4.046  16.095  0.00  0.00    +0.000 NA
ATOM     18  N   UNL     1       5.366   4.428  15.028  0.00  0.00    +0.000 NA
ATOM     19  N   UNL     1       6.011   5.552  15.288  0.00  0.00    +0.000 NA
ATOM     20  N   UNL     1       5.685   5.877  16.556  0.00  0.00    +0.000 N 
BRANCH  20  21
ATOM     21  C   UNL     1       6.142   7.140  17.082  0.00  0.00    +0.000 C 
BRANCH  21  22
ATOM     22  C   UNL     1       7.480   7.124  17.814  0.00  0.00    +0.000 C 
BRANCH  22  23
ATOM     23  O   UNL     1       7.850   5.801  18.190  0.00  0.00    +0.000 OA
ATOM     24  C   UNL     1       7.883   5.650  19.606  0.00  0.00    +0.000 C 
ENDBRANCH  22  23
ENDBRANCH  21  22
ENDBRANCH  20  21
ENDBRANCH  15  16
BRANCH  15  25
ATOM     25  C   UNL     1       4.704   3.590  19.132  0.00  0.00    +0.000 C 
BRANCH  25  27
ATOM     26  C   UNL     1       3.454   1.603  18.241  0.00  0.00    +0.000 C 
ATOM     27  C   UNL     1       3.591   2.573  19.407  0.00  0.00    +0.000 C 
ENDBRANCH  25  27
ENDBRANCH  15  25
ENDBRANCH   1  15
TORSDOF 9
ENDMDL
