MODEL 1
REMARK VINA RESULT:      -7.4      0.000      0.000
REMARK  Name = 
REMARK  3 active torsions:
REMARK  status: ('A' for Active; 'I' for Inactive)
REMARK    1  A    between atoms: C_4  and  C_5
REMARK    2  A    between atoms: C_12  and  O_13
REMARK    3  A    between atoms: O_13  and  C_14
REMARK                            x       y       z     vdW  Elec       q    Type
REMARK                         _______ _______ _______ _____ _____    ______ ____
ROOT
ATOM      1  C   UNL     1       4.196   4.060  19.165  0.00  0.00    +0.000 A 
ATOM      2  N   UNL     1       5.260   3.263  19.363  0.00  0.00    +0.000 NA
ATOM      3  N   UNL     1       6.239   3.850  18.662  0.00  0.00    +0.000 N 
ATOM      4  C   UNL     1       5.865   5.003  18.031  0.00  0.00    +0.000 A 
ATOM      5  C   UNL     1       6.575   5.891  17.227  0.00  0.00    +0.000 A 
ATOM      6  C   UNL     1       5.839   6.972  16.772  0.00  0.00    +0.000 A 
ATOM      7  N   UNL     1       4.543   7.205  17.065  0.00  0.00    +0.000 NA
ATOM      8  C   UNL     1       3.871   6.325  17.856  0.00  0.00    +0.000 A 
ATOM      9  C   UNL     1       4.519   5.183  18.349  0.00  0.00    +0.000 A 
ATOM     10  H   UNL     1       7.153   3.412  18.656  0.00  0.00    +0.000 HD
ENDROOT
BRANCH   1  14
ATOM     11  C   UNL     1       1.223   3.195  21.208  0.00  0.00    +0.000 A 
ATOM     12  C   UNL     1       0.713   3.294  19.937  0.00  0.00    +0.000 A 
ATOM     13  O   UNL     1       1.692   3.624  19.060  0.00  0.00    +0.000 OA
ATOM     14  C   UNL     1       2.861   3.733  19.759  0.00  0.00    +0.000 A 
ATOM     15  C   UNL     1       2.607   3.476  21.095  0.00  0.00    +0.000 A 
ENDBRANCH   1  14
BRANCH   8  16
ATOM     16  O   UNL     1       2.556   6.583  18.167  0.00  0.00    +0.000 OA
BRANCH  16  17
ATOM     17  C   UNL     1       2.353   7.684  19.059  0.00  0.00    +0.000 C 
ATOM     18  C   UNL     1       1.643   7.244  20.344  0.00  0.00    +0.000 C 
ATOM     19  C   UNL     1       1.238   8.454  21.168  0.00  0.00    +0.000 C 
ATOM     20  O   UNL     1       0.408   9.329  20.405  0.00  0.00    +0.000 OA
ATOM     21  C   UNL     1       1.076   9.835  19.251  0.00  0.00    +0.000 C 
ATOM     22  C   UNL     1       1.477   8.701  18.321  0.00  0.00    +0.000 C 
ENDBRANCH  16  17
ENDBRANCH   8  16
TORSDOF 3
ENDMDL
MODEL 2
REMARK VINA RESULT:      -7.2      2.483      4.998
REMARK  Name = 
REMARK  3 active torsions:
REMARK  status: ('A' for Active; 'I' for Inactive)
REMARK    1  A    between atoms: C_4  and  C_5
REMARK    2  A    between atoms: C_12  and  O_13
REMARK    3  A    between atoms: O_13  and  C_14
REMARK                            x       y       z     vdW  Elec       q    Type
REMARK                         _______ _______ _______ _____ _____    ______ ____
ROOT
ATOM      1  C   UNL     1       2.654   4.757  19.867  0.00  0.00    +0.000 A 
ATOM      2  N   UNL     1       1.989   4.986  21.012  0.00  0.00    +0.000 NA
ATOM      3  N   UNL     1       1.690   6.291  20.957  0.00  0.00    +0.000 N 
ATOM      4  C   UNL     1       2.114   6.917  19.819  0.00  0.00    +0.000 A 
ATOM      5  C   UNL     1       1.997   8.236  19.389  0.00  0.00    +0.000 A 
ATOM      6  C   UNL     1       2.556   8.492  18.148  0.00  0.00    +0.000 A 
ATOM      7  N   UNL     1       3.162   7.572  17.369  0.00  0.00    +0.000 NA
ATOM      8  C   UNL     1       3.261   6.288  17.808  0.00  0.00    +0.000 A 
ATOM      9  C   UNL     1       2.748   5.931  19.064  0.00  0.00    +0.000 A 
ATOM     10  H   UNL     1       1.185   6.700  21.735  0.00  0.00    +0.000 HD
ENDROOT
BRANCH   1  14
ATOM     11  C   UNL     1       3.531   1.372  18.630  0.00  0.00    +0.000 A 
ATOM     12  C   UNL     1       4.436   1.581  19.642  0.00  0.00    +0.000 A 
ATOM     13  O   UNL     1       4.250   2.803  20.196  0.00  0.00    +0.000 OA
ATOM     14  C   UNL     1       3.205   3.402  19.548  0.00  0.00    +0.000 A 
ATOM     15  C   UNL     1       2.737   2.543  18.569  0.00  0.00    +0.000 A 
ENDBRANCH   1  14
BRANCH   8  16
ATOM     16  O   UNL     1       3.862   5.354  16.997  0.00  0.00    +0.000 OA
BRANCH  16  17
ATOM     17  C   UNL     1       5.255   5.574  16.753  0.00  0.00    +0.000 C 
ATOM     18  C   UNL     1       5.690   4.988  15.405  0.00  0.00    +0.000 C 
ATOM     19  C   UNL     1       7.202   5.033  15.270  0.00  0.00    +0.000 C 
ATOM     20  O   UNL     1       7.826   4.337  16.348  0.00  0.00    +0.000 OA
ATOM     21  C   UNL     1       7.518   4.921  17.614  0.00  0.00    +0.000 C 
ATOM     22  C   UNL     1       6.022   4.875  17.879  0.00  0.00    +0.000 C 
ENDBRANCH  16  17
ENDBRANCH   8  16
TORSDOF 3
ENDMDL
MODEL 3
REMARK VINA RESULT:      -7.1      1.827      4.294
REMARK  Name = 
REMARK  3 active torsions:
REMARK  status: ('A' for Active; 'I' for Inactive)
REMARK    1  A    between atoms: C_4  and  C_5
REMARK    2  A    between atoms: C_12  and  O_13
REMARK    3  A    between atoms: O_13  and  C_14
REMARK                            x       y       z     vdW  Elec       q    Type
REMARK                         _______ _______ _______ _____ _____    ______ ____
ROOT
ATOM      1  C   UNL     1       3.963   3.641  18.035  0.00  0.00    +0.000 A 
ATOM      2  N   UNL     1       3.957   2.400  17.519  0.00  0.00    +0.000 NA
ATOM      3  N   UNL     1       3.051   1.747  18.259  0.00  0.00    +0.000 N 
ATOM      4  C   UNL     1       2.453   2.511  19.221  0.00  0.00    +0.000 A 
ATOM      5  C   UNL     1       1.478   2.212  20.168  0.00  0.00    +0.000 A 
ATOM      6  C   UNL     1       1.114   3.274  20.978  0.00  0.00    +0.000 A 
ATOM      7  N   UNL     1       1.618   4.523  20.889  0.00  0.00    +0.000 NA
ATOM      8  C   UNL     1       2.567   4.793  19.952  0.00  0.00    +0.000 A 
ATOM      9  C   UNL     1       3.023   3.778  19.098  0.00  0.00    +0.000 A 
ATOM     10  H   UNL     1       2.879   0.769  18.052  0.00  0.00    +0.000 HD
ENDROOT
BRANCH   1  14
ATOM     11  C   UNL     1       5.866   6.226  16.178  0.00  0.00    +0.000 A 
ATOM     12  C   UNL     1       6.563   6.109  17.355  0.00  0.00    +0.000 A 
ATOM     13  O   UNL     1       5.974   5.194  18.162  0.00  0.00    +0.000 OA
ATOM     14  C   UNL     1       4.883   4.696  17.505  0.00  0.00    +0.000 A 
ATOM     15  C   UNL     1       4.785   5.316  16.272  0.00  0.00    +0.000 A 
ENDBRANCH   1  14
BRANCH   8  16
ATOM     16  O   UNL     1       3.058   6.074  19.855  0.00  0.00    +0.000 OA
BRANCH  16  17
ATOM     17  C   UNL     1       2.134   7.035  19.333  0.00  0.00    +0.000 C 
ATOM     18  C   UNL     1       2.742   7.825  18.168  0.00  0.00    +0.000 C 
ATOM     19  C   UNL     1       1.836   8.982  17.782  0.00  0.00    +0.000 C 
ATOM     20  O   UNL     1       1.600   9.834  18.902  0.00  0.00    +0.000 OA
ATOM     21  C   UNL     1       0.945   9.150  19.969  0.00  0.00    +0.000 C 
ATOM     22  C   UNL     1       1.798   7.998  20.476  0.00  0.00    +0.000 C 
ENDBRANCH  16  17
ENDBRANCH   8  16
TORSDOF 3
ENDMDL
MODEL 4
REMARK VINA RESULT:      -7.1      1.811      4.213
REMARK  Name = 
REMARK  3 active torsions:
REMARK  status: ('A' for Active; 'I' for Inactive)
REMARK    1  A    between atoms: C_4  and  C_5
REMARK    2  A    between atoms: C_12  and  O_13
REMARK    3  A    between atoms: O_13  and  C_14
REMARK                            x       y       z     vdW  Elec       q    Type
REMARK                         _______ _______ _______ _____ _____    ______ ____
ROOT
ATOM      1  C   UNL     1       4.856   3.859  19.133  0.00  0.00    +0.000 A 
ATOM      2  N   UNL     1       5.134   2.556  18.961  0.00  0.00    +0.000 NA
ATOM      3  N   UNL     1       4.031   1.930  19.395  0.00  0.00    +0.000 N 
ATOM      4  C   UNL     1       3.041   2.768  19.825  0.00  0.00    +0.000 A 
ATOM      5  C   UNL     1       1.770   2.516  20.333  0.00  0.00    +0.000 A 
ATOM      6  C   UNL     1       1.041   3.648  20.654  0.00  0.00    +0.000 A 
ATOM      7  N   UNL     1       1.471   4.917  20.493  0.00  0.00    +0.000 NA
ATOM      8  C   UNL     1       2.716   5.139  19.990  0.00  0.00    +0.000 A 
ATOM      9  C   UNL     1       3.545   4.058  19.656  0.00  0.00    +0.000 A 
ATOM     10  H   UNL     1       4.014   0.917  19.369  0.00  0.00    +0.000 HD
ENDROOT
BRANCH   1  14
ATOM     11  C   UNL     1       6.969   6.583  17.765  0.00  0.00    +0.000 A 
ATOM     12  C   UNL     1       7.652   6.191  18.890  0.00  0.00    +0.000 A 
ATOM     13  O   UNL     1       6.988   5.192  19.520  0.00  0.00    +0.000 OA
ATOM     14  C   UNL     1       5.860   4.917  18.797  0.00  0.00    +0.000 A 
ATOM     15  C   UNL     1       5.816   5.763  17.702  0.00  0.00    +0.000 A 
ENDBRANCH   1  14
BRANCH   8  16
ATOM     16  O   UNL     1       3.137   6.436  19.809  0.00  0.00    +0.000 OA
BRANCH  16  17
ATOM     17  C   UNL     1       2.145   7.324  19.284  0.00  0.00    +0.000 C 
ATOM     18  C   UNL     1       2.690   8.147  18.111  0.00  0.00    +0.000 C 
ATOM     19  C   UNL     1       1.702   9.232  17.720  0.00  0.00    +0.000 C 
ATOM     20  O   UNL     1       1.408  10.073  18.835  0.00  0.00    +0.000 OA
ATOM     21  C   UNL     1       0.807   9.351  19.909  0.00  0.00    +0.000 C 
ATOM     22  C   UNL     1       1.742   8.268  20.421  0.00  0.00    +0.000 C 
ENDBRANCH  16  17
ENDBRANCH   8  16
TORSDOF 3
ENDMDL
MODEL 5
REMARK VINA RESULT:      -6.9      2.061      4.242
REMARK  Name = 
REMARK  3 active torsions:
REMARK  status: ('A' for Active; 'I' for Inactive)
REMARK    1  A    between atoms: C_4  and  C_5
REMARK    2  A    between atoms: C_12  and  O_13
REMARK    3  A    between atoms: O_13  and  C_14
REMARK                            x       y       z     vdW  Elec       q    Type
REMARK                         _______ _______ _______ _____ _____    ______ ____
ROOT
ATOM      1  C   UNL     1       5.748   4.999  17.206  0.00  0.00    +0.000 A 
ATOM      2  N   UNL     1       6.285   3.922  16.608  0.00  0.00    +0.000 NA
ATOM      3  N   UNL     1       5.269   3.050  16.542  0.00  0.00    +0.000 N 
ATOM      4  C   UNL     1       4.091   3.518  17.053  0.00  0.00    +0.000 A 
ATOM      5  C   UNL     1       2.833   2.934  17.162  0.00  0.00    +0.000 A 
ATOM      6  C   UNL     1       1.868   3.744  17.739  0.00  0.00    +0.000 A 
ATOM      7  N   UNL     1       2.073   5.008  18.163  0.00  0.00    +0.000 NA
ATOM      8  C   UNL     1       3.311   5.559  18.042  0.00  0.00    +0.000 A 
ATOM      9  C   UNL     1       4.364   4.813  17.493  0.00  0.00    +0.000 A 
ATOM     10  H   UNL     1       5.445   2.141  16.128  0.00  0.00    +0.000 HD
ENDROOT
BRANCH   1  14
ATOM     11  C   UNL     1       8.077   7.622  18.412  0.00  0.00    +0.000 A 
ATOM     12  C   UNL     1       7.342   8.272  17.453  0.00  0.00    +0.000 A 
ATOM     13  O   UNL     1       6.438   7.428  16.898  0.00  0.00    +0.000 OA
ATOM     14  C   UNL     1       6.574   6.211  17.506  0.00  0.00    +0.000 A 
ATOM     15  C   UNL     1       7.583   6.294  18.449  0.00  0.00    +0.000 A 
ENDBRANCH   1  14
BRANCH   8  16
ATOM     16  O   UNL     1       3.504   6.856  18.457  0.00  0.00    +0.000 OA
BRANCH  16  17
ATOM     17  C   UNL     1       2.306   7.626  18.604  0.00  0.00    +0.000 C 
ATOM     18  C   UNL     1       2.396   8.957  17.849  0.00  0.00    +0.000 C 
ATOM     19  C   UNL     1       1.217   9.847  18.201  0.00  0.00    +0.000 C 
ATOM     20  O   UNL     1       1.153  10.068  19.609  0.00  0.00    +0.000 OA
ATOM     21  C   UNL     1       0.970   8.854  20.336  0.00  0.00    +0.000 C 
ATOM     22  C   UNL     1       2.133   7.904  20.100  0.00  0.00    +0.000 C 
ENDBRANCH  16  17
ENDBRANCH   8  16
TORSDOF 3
ENDMDL
MODEL 6
REMARK VINA RESULT:      -6.8      2.405      4.808
REMARK  Name = 
REMARK  3 active torsions:
REMARK  status: ('A' for Active; 'I' for Inactive)
REMARK    1  A    between atoms: C_4  and  C_5
REMARK    2  A    between atoms: C_12  and  O_13
REMARK    3  A    between atoms: O_13  and  C_14
REMARK                            x       y       z     vdW  Elec       q    Type
REMARK                         _______ _______ _______ _____ _____    ______ ____
ROOT
ATOM      1  C   UNL     1       2.577   4.839  19.920  0.00  0.00    +0.000 A 
ATOM      2  N   UNL     1       1.966   4.966  21.110  0.00  0.00    +0.000 NA
ATOM      3  N   UNL     1       1.625   6.261  21.161  0.00  0.00    +0.000 N 
ATOM      4  C   UNL     1       1.971   6.978  20.050  0.00  0.00    +0.000 A 
ATOM      5  C   UNL     1       1.792   8.319  19.721  0.00  0.00    +0.000 A 
ATOM      6  C   UNL     1       2.278   8.677  18.475  0.00  0.00    +0.000 A 
ATOM      7  N   UNL     1       2.871   7.834  17.604  0.00  0.00    +0.000 NA
ATOM      8  C   UNL     1       3.031   6.527  17.947  0.00  0.00    +0.000 A 
ATOM      9  C   UNL     1       2.595   6.068  19.198  0.00  0.00    +0.000 A 
ATOM     10  H   UNL     1       1.149   6.599  21.990  0.00  0.00    +0.000 HD
ENDROOT
BRANCH   1  14
ATOM     11  C   UNL     1       3.470   1.559  18.436  0.00  0.00    +0.000 A 
ATOM     12  C   UNL     1       4.466   1.768  19.357  0.00  0.00    +0.000 A 
ATOM     13  O   UNL     1       4.285   2.954  19.987  0.00  0.00    +0.000 OA
ATOM     14  C   UNL     1       3.152   3.528  19.481  0.00  0.00    +0.000 A 
ATOM     15  C   UNL     1       2.622   2.691  18.515  0.00  0.00    +0.000 A 
ENDBRANCH   1  14
BRANCH   8  16
ATOM     16  O   UNL     1       3.617   5.671  17.044  0.00  0.00    +0.000 OA
BRANCH  16  17
ATOM     17  C   UNL     1       5.028   5.495  17.207  0.00  0.00    +0.000 C 
ATOM     18  C   UNL     1       5.770   6.836  17.176  0.00  0.00    +0.000 C 
ATOM     19  C   UNL     1       7.271   6.610  17.125  0.00  0.00    +0.000 C 
ATOM     20  O   UNL     1       7.623   5.811  15.996  0.00  0.00    +0.000 OA
ATOM     21  C   UNL     1       7.025   4.517  16.047  0.00  0.00    +0.000 C 
ATOM     22  C   UNL     1       5.508   4.624  16.043  0.00  0.00    +0.000 C 
ENDBRANCH  16  17
ENDBRANCH   8  16
TORSDOF 3
ENDMDL
MODEL 7
REMARK VINA RESULT:      -6.7      2.487      5.697
REMARK  Name = 
REMARK  3 active torsions:
REMARK  status: ('A' for Active; 'I' for Inactive)
REMARK    1  A    between atoms: C_4  and  C_5
REMARK    2  A    between atoms: C_12  and  O_13
REMARK    3  A    between atoms: O_13  and  C_14
REMARK                            x       y       z     vdW  Elec       q    Type
REMARK                         _______ _______ _______ _____ _____    ______ ____
ROOT
ATOM      1  C   UNL     1       2.273   5.594  19.430  0.00  0.00    +0.000 A 
ATOM      2  N   UNL     1       1.686   5.603  20.639  0.00  0.00    +0.000 NA
ATOM      3  N   UNL     1       1.573   4.305  20.953  0.00  0.00    +0.000 N 
ATOM      4  C   UNL     1       2.077   3.452  20.011  0.00  0.00    +0.000 A 
ATOM      5  C   UNL     1       2.154   2.063  19.966  0.00  0.00    +0.000 A 
ATOM      6  C   UNL     1       2.756   1.555  18.827  0.00  0.00    +0.000 A 
ATOM      7  N   UNL     1       3.259   2.299  17.820  0.00  0.00    +0.000 NA
ATOM      8  C   UNL     1       3.176   3.656  17.888  0.00  0.00    +0.000 A 
ATOM      9  C   UNL     1       2.562   4.269  18.990  0.00  0.00    +0.000 A 
ATOM     10  H   UNL     1       1.141   4.062  21.837  0.00  0.00    +0.000 HD
ENDROOT
BRANCH   1  14
ATOM     11  C   UNL     1       2.379   8.947  17.847  0.00  0.00    +0.000 A 
ATOM     12  C   UNL     1       3.531   8.351  17.398  0.00  0.00    +0.000 A 
ATOM     13  O   UNL     1       3.646   7.101  17.909  0.00  0.00    +0.000 OA
ATOM     14  C   UNL     1       2.552   6.868  18.695  0.00  0.00    +0.000 A 
ATOM     15  C   UNL     1       1.746   7.992  18.682  0.00  0.00    +0.000 A 
ENDBRANCH   1  14
BRANCH   8  16
ATOM     16  O   UNL     1       3.711   4.406  16.867  0.00  0.00    +0.000 OA
BRANCH  16  17
ATOM     17  C   UNL     1       5.084   4.129  16.572  0.00  0.00    +0.000 C 
ATOM     18  C   UNL     1       6.013   4.639  17.681  0.00  0.00    +0.000 C 
ATOM     19  C   UNL     1       7.464   4.538  17.245  0.00  0.00    +0.000 C 
ATOM     20  O   UNL     1       7.679   5.261  16.034  0.00  0.00    +0.000 OA
ATOM     21  C   UNL     1       6.900   4.746  14.955  0.00  0.00    +0.000 C 
ATOM     22  C   UNL     1       5.415   4.853  15.264  0.00  0.00    +0.000 C 
ENDBRANCH  16  17
ENDBRANCH   8  16
TORSDOF 3
ENDMDL
MODEL 8
REMARK VINA RESULT:      -6.7      1.841      3.956
REMARK  Name = 
REMARK  3 active torsions:
REMARK  status: ('A' for Active; 'I' for Inactive)
REMARK    1  A    between atoms: C_4  and  C_5
REMARK    2  A    between atoms: C_12  and  O_13
REMARK    3  A    between atoms: O_13  and  C_14
REMARK                            x       y       z     vdW  Elec       q    Type
REMARK                         _______ _______ _______ _____ _____    ______ ____
ROOT
ATOM      1  C   UNL     1       4.896   3.701  19.129  0.00  0.00    +0.000 A 
ATOM      2  N   UNL     1       5.164   2.543  19.755  0.00  0.00    +0.000 NA
ATOM      3  N   UNL     1       3.972   1.937  19.837  0.00  0.00    +0.000 N 
ATOM      4  C   UNL     1       2.943   2.641  19.277  0.00  0.00    +0.000 A 
ATOM      5  C   UNL     1       1.586   2.358  19.156  0.00  0.00    +0.000 A 
ATOM      6  C   UNL     1       0.849   3.332  18.502  0.00  0.00    +0.000 A 
ATOM      7  N   UNL     1       1.357   4.473  17.991  0.00  0.00    +0.000 NA
ATOM      8  C   UNL     1       2.687   4.725  18.118  0.00  0.00    +0.000 A 
ATOM      9  C   UNL     1       3.517   3.813  18.786  0.00  0.00    +0.000 A 
ATOM     10  H   UNL     1       3.925   1.031  20.290  0.00  0.00    +0.000 HD
ENDROOT
BRANCH   1  14
ATOM     11  C   UNL     1       7.397   6.119  17.842  0.00  0.00    +0.000 A 
ATOM     12  C   UNL     1       7.647   6.098  19.192  0.00  0.00    +0.000 A 
ATOM     13  O   UNL     1       6.790   5.255  19.817  0.00  0.00    +0.000 OA
ATOM     14  C   UNL     1       5.974   4.707  18.867  0.00  0.00    +0.000 A 
ATOM     15  C   UNL     1       6.321   5.223  17.630  0.00  0.00    +0.000 A 
ENDBRANCH   1  14
BRANCH   8  16
ATOM     16  O   UNL     1       3.199   5.880  17.574  0.00  0.00    +0.000 OA
BRANCH  16  17
ATOM     17  C   UNL     1       3.028   7.052  18.378  0.00  0.00    +0.000 C 
ATOM     18  C   UNL     1       2.239   6.748  19.657  0.00  0.00    +0.000 C 
ATOM     19  C   UNL     1       1.879   8.036  20.377  0.00  0.00    +0.000 C 
ATOM     20  O   UNL     1       1.138   8.903  19.520  0.00  0.00    +0.000 OA
ATOM     21  C   UNL     1       1.885   9.284  18.365  0.00  0.00    +0.000 C 
ATOM     22  C   UNL     1       2.251   8.066  17.534  0.00  0.00    +0.000 C 
ENDBRANCH  16  17
ENDBRANCH   8  16
TORSDOF 3
ENDMDL
MODEL 9
REMARK VINA RESULT:      -6.7      1.775      4.145
REMARK  Name = 
REMARK  3 active torsions:
REMARK  status: ('A' for Active; 'I' for Inactive)
REMARK    1  A    between atoms: C_4  and  C_5
REMARK    2  A    between atoms: C_12  and  O_13
REMARK    3  A    between atoms: O_13  and  C_14
REMARK                            x       y       z     vdW  Elec       q    Type
REMARK                         _______ _______ _______ _____ _____    ______ ____
ROOT
ATOM      1  C   UNL     1       4.879   4.278  17.720  0.00  0.00    +0.000 A 
ATOM      2  N   UNL     1       5.188   3.141  17.073  0.00  0.00    +0.000 NA
ATOM      3  N   UNL     1       4.145   2.336  17.320  0.00  0.00    +0.000 N 
ATOM      4  C   UNL     1       3.164   2.904  18.082  0.00  0.00    +0.000 A 
ATOM      5  C   UNL     1       1.946   2.410  18.542  0.00  0.00    +0.000 A 
ATOM      6  C   UNL     1       1.206   3.308  19.293  0.00  0.00    +0.000 A 
ATOM      7  N   UNL     1       1.578   4.574  19.573  0.00  0.00    +0.000 NA
ATOM      8  C   UNL     1       2.771   5.036  19.109  0.00  0.00    +0.000 A 
ATOM      9  C   UNL     1       3.607   4.197  18.358  0.00  0.00    +0.000 A 
ATOM     10  H   UNL     1       4.161   1.399  16.932  0.00  0.00    +0.000 HD
ENDROOT
BRANCH   1  14
ATOM     11  C   UNL     1       7.560   6.804  18.156  0.00  0.00    +0.000 A 
ATOM     12  C   UNL     1       6.665   7.435  17.327  0.00  0.00    +0.000 A 
ATOM     13  O   UNL     1       5.616   6.621  17.058  0.00  0.00    +0.000 OA
ATOM     14  C   UNL     1       5.817   5.445  17.726  0.00  0.00    +0.000 A 
ATOM     15  C   UNL     1       7.014   5.523  18.415  0.00  0.00    +0.000 A 
ENDBRANCH   1  14
BRANCH   8  16
ATOM     16  O   UNL     1       3.131   6.335  19.381  0.00  0.00    +0.000 OA
BRANCH  16  17
ATOM     17  C   UNL     1       2.139   7.315  19.060  0.00  0.00    +0.000 C 
ATOM     18  C   UNL     1       2.644   8.302  18.001  0.00  0.00    +0.000 C 
ATOM     19  C   UNL     1       1.668   9.456  17.843  0.00  0.00    +0.000 C 
ATOM     20  O   UNL     1       1.460  10.116  19.090  0.00  0.00    +0.000 OA
ATOM     21  C   UNL     1       0.897   9.246  20.071  0.00  0.00    +0.000 C 
ATOM     22  C   UNL     1       1.826   8.076  20.352  0.00  0.00    +0.000 C 
ENDBRANCH  16  17
ENDBRANCH   8  16
TORSDOF 3
ENDMDL
