MODEL 1
REMARK VINA RESULT:      -6.0      0.000      0.000
REMARK  Name = 
REMARK  12 active torsions:
REMARK  status: ('A' for Active; 'I' for Inactive)
REMARK    1  A    between atoms: C_1  and  C_2
REMARK    2  A    between atoms: C_2  and  C_3
REMARK    3  A    between atoms: C_3  and  C_4
REMARK    4  A    between atoms: C_4  and  C_5
REMARK    5  A    between atoms: C_5  and  C_6
REMARK    6  A    between atoms: C_6  and  C_7
REMARK    7  A    between atoms: C_7  and  C_8
REMARK    8  A    between atoms: C_8  and  C_9
REMARK    9  A    between atoms: C_9  and  C_10
REMARK   10  A    between atoms: C_10  and  C_11
REMARK   11  A    between atoms: C_10  and  C_14
REMARK   12  A    between atoms: C_11  and  O_13
REMARK                            x       y       z     vdW  Elec       q    Type
REMARK                         _______ _______ _______ _____ _____    ______ ____
ROOT
ATOM      1  C   UNL     1       6.388   4.123  15.597  0.00  0.00    +0.000 C 
ENDROOT
BRANCH   1   2
ATOM      2  C   UNL     1       7.179   5.155  16.424  0.00  0.00    +0.000 C 
ATOM      3  C   UNL     1       6.365   6.399  16.781  0.00  0.00    +0.000 C 
ATOM      4  C   UNL     1       7.156   7.045  17.905  0.00  0.00    +0.000 C 
ATOM      5  C   UNL     1       7.838   5.899  18.643  0.00  0.00    +0.000 C 
ATOM      6  C   UNL     1       7.619   4.645  17.797  0.00  0.00    +0.000 C 
ENDBRANCH   1   2
BRANCH   1   7
ATOM      7  C   UNL     1       6.620   4.376  14.117  0.00  0.00    +0.000 C 
ATOM      8  O   UNL     1       6.069   3.758  13.219  0.00  0.00    +0.000 OA
BRANCH   7   9
ATOM      9  O   UNL     1       7.498   5.370  13.866  0.00  0.00    +0.000 OA
ATOM     10  H   UNL     1       7.952   5.307  13.006  0.00  0.00    +0.000 HD
ENDBRANCH   7   9
ENDBRANCH   1   7
BRANCH   1  11
ATOM     11  C   UNL     1       4.884   4.212  15.914  0.00  0.00    +0.000 C 
BRANCH  11  12
ATOM     12  C   UNL     1       4.379   3.082  16.811  0.00  0.00    +0.000 C 
BRANCH  12  13
ATOM     13  C   UNL     1       3.526   3.656  17.942  0.00  0.00    +0.000 C 
BRANCH  13  14
ATOM     14  C   UNL     1       4.396   4.107  19.109  0.00  0.00    +0.000 C 
BRANCH  14  15
ATOM     15  C   UNL     1       4.013   5.512  19.568  0.00  0.00    +0.000 C 
BRANCH  15  16
ATOM     16  C   UNL     1       2.515   5.746  19.385  0.00  0.00    +0.000 C 
BRANCH  16  17
ATOM     17  C   UNL     1       1.741   5.382  20.648  0.00  0.00    +0.000 C 
BRANCH  17  19
ATOM     18  C   UNL     1       1.555   2.950  21.253  0.00  0.00    +0.000 C 
ATOM     19  C   UNL     1       0.951   4.090  20.451  0.00  0.00    +0.000 C 
ENDBRANCH  17  19
ENDBRANCH  16  17
ENDBRANCH  15  16
ENDBRANCH  14  15
ENDBRANCH  13  14
ENDBRANCH  12  13
ENDBRANCH  11  12
ENDBRANCH   1  11
TORSDOF 11
ENDMDL
MODEL 2
REMARK VINA RESULT:      -6.0      1.792      3.546
REMARK  Name = 
REMARK  12 active torsions:
REMARK  status: ('A' for Active; 'I' for Inactive)
REMARK    1  A    between atoms: C_1  and  C_2
REMARK    2  A    between atoms: C_2  and  C_3
REMARK    3  A    between atoms: C_3  and  C_4
REMARK    4  A    between atoms: C_4  and  C_5
REMARK    5  A    between atoms: C_5  and  C_6
REMARK    6  A    between atoms: C_6  and  C_7
REMARK    7  A    between atoms: C_7  and  C_8
REMARK    8  A    between atoms: C_8  and  C_9
REMARK    9  A    between atoms: C_9  and  C_10
REMARK   10  A    between atoms: C_10  and  C_11
REMARK   11  A    between atoms: C_10  and  C_14
REMARK   12  A    between atoms: C_11  and  O_13
REMARK                            x       y       z     vdW  Elec       q    Type
REMARK                         _______ _______ _______ _____ _____    ______ ____
ROOT
ATOM      1  C   UNL     1       5.985   5.042  15.506  0.00  0.00    +0.000 C 
ENDROOT
BRANCH   1   2
ATOM      2  C   UNL     1       6.363   4.137  14.316  0.00  0.00    +0.000 C 
ATOM      3  C   UNL     1       5.174   3.786  13.421  0.00  0.00    +0.000 C 
ATOM      4  C   UNL     1       5.817   3.281  12.140  0.00  0.00    +0.000 C 
ATOM      5  C   UNL     1       7.135   4.036  12.013  0.00  0.00    +0.000 C 
ATOM      6  C   UNL     1       7.338   4.784  13.330  0.00  0.00    +0.000 C 
ENDBRANCH   1   2
BRANCH   1   7
ATOM      7  C   UNL     1       7.220   5.304  16.353  0.00  0.00    +0.000 C 
ATOM      8  O   UNL     1       7.893   4.429  16.876  0.00  0.00    +0.000 OA
BRANCH   7   9
ATOM      9  O   UNL     1       7.527   6.613  16.476  0.00  0.00    +0.000 OA
ATOM     10  H   UNL     1       8.462   6.831  16.305  0.00  0.00    +0.000 HD
ENDBRANCH   7   9
ENDBRANCH   1   7
BRANCH   1  11
ATOM     11  C   UNL     1       4.892   4.381  16.365  0.00  0.00    +0.000 C 
BRANCH  11  12
ATOM     12  C   UNL     1       4.125   5.368  17.244  0.00  0.00    +0.000 C 
BRANCH  12  13
ATOM     13  C   UNL     1       4.273   4.980  18.715  0.00  0.00    +0.000 C 
BRANCH  13  14
ATOM     14  C   UNL     1       4.979   3.637  18.859  0.00  0.00    +0.000 C 
BRANCH  14  15
ATOM     15  C   UNL     1       4.117   2.644  19.635  0.00  0.00    +0.000 C 
BRANCH  15  16
ATOM     16  C   UNL     1       3.204   1.872  18.686  0.00  0.00    +0.000 C 
BRANCH  16  17
ATOM     17  C   UNL     1       1.795   2.457  18.677  0.00  0.00    +0.000 C 
BRANCH  17  19
ATOM     18  C   UNL     1       0.944   4.142  20.337  0.00  0.00    +0.000 C 
ATOM     19  C   UNL     1       1.286   2.680  20.099  0.00  0.00    +0.000 C 
ENDBRANCH  17  19
ENDBRANCH  16  17
ENDBRANCH  15  16
ENDBRANCH  14  15
ENDBRANCH  13  14
ENDBRANCH  12  13
ENDBRANCH  11  12
ENDBRANCH   1  11
TORSDOF 11
ENDMDL
MODEL 3
REMARK VINA RESULT:      -5.8      1.333      1.969
REMARK  Name = 
REMARK  12 active torsions:
REMARK  status: ('A' for Active; 'I' for Inactive)
REMARK    1  A    between atoms: C_1  and  C_2
REMARK    2  A    between atoms: C_2  and  C_3
REMARK    3  A    between atoms: C_3  and  C_4
REMARK    4  A    between atoms: C_4  and  C_5
REMARK    5  A    between atoms: C_5  and  C_6
REMARK    6  A    between atoms: C_6  and  C_7
REMARK    7  A    between atoms: C_7  and  C_8
REMARK    8  A    between atoms: C_8  and  C_9
REMARK    9  A    between atoms: C_9  and  C_10
REMARK   10  A    between atoms: C_10  and  C_11
REMARK   11  A    between atoms: C_10  and  C_14
REMARK   12  A    between atoms: C_11  and  O_13
REMARK                            x       y       z     vdW  Elec       q    Type
REMARK                         _______ _______ _______ _____ _____    ______ ____
ROOT
ATOM      1  C   UNL     1       6.264   4.802  16.066  0.00  0.00    +0.000 C 
ENDROOT
BRANCH   1   2
ATOM      2  C   UNL     1       7.347   5.373  17.003  0.00  0.00    +0.000 C 
ATOM      3  C   UNL     1       7.180   6.867  17.282  0.00  0.00    +0.000 C 
ATOM      4  C   UNL     1       8.046   7.110  18.506  0.00  0.00    +0.000 C 
ATOM      5  C   UNL     1       8.016   5.808  19.299  0.00  0.00    +0.000 C 
ATOM      6  C   UNL     1       7.330   4.772  18.409  0.00  0.00    +0.000 C 
ENDBRANCH   1   2
BRANCH   1   7
ATOM      7  C   UNL     1       6.800   4.752  14.645  0.00  0.00    +0.000 C 
ATOM      8  O   UNL     1       7.721   5.440  14.233  0.00  0.00    +0.000 OA
BRANCH   7   9
ATOM      9  O   UNL     1       6.169   3.854  13.857  0.00  0.00    +0.000 OA
ATOM     10  H   UNL     1       5.357   4.186  13.431  0.00  0.00    +0.000 HD
ENDBRANCH   7   9
ENDBRANCH   1   7
BRANCH   1  11
ATOM     11  C   UNL     1       4.993   5.668  16.114  0.00  0.00    +0.000 C 
BRANCH  11  12
ATOM     12  C   UNL     1       3.944   5.162  17.104  0.00  0.00    +0.000 C 
BRANCH  12  13
ATOM     13  C   UNL     1       3.870   3.636  17.051  0.00  0.00    +0.000 C 
BRANCH  13  14
ATOM     14  C   UNL     1       2.454   3.146  17.325  0.00  0.00    +0.000 C 
BRANCH  14  15
ATOM     15  C   UNL     1       1.612   4.238  17.981  0.00  0.00    +0.000 C 
BRANCH  15  16
ATOM     16  C   UNL     1       1.200   3.822  19.391  0.00  0.00    +0.000 C 
BRANCH  16  17
ATOM     17  C   UNL     1       1.867   2.512  19.798  0.00  0.00    +0.000 C 
BRANCH  17  19
ATOM     18  C   UNL     1       4.284   2.249  20.429  0.00  0.00    +0.000 C 
ATOM     19  C   UNL     1       2.920   2.746  20.877  0.00  0.00    +0.000 C 
ENDBRANCH  17  19
ENDBRANCH  16  17
ENDBRANCH  15  16
ENDBRANCH  14  15
ENDBRANCH  13  14
ENDBRANCH  12  13
ENDBRANCH  11  12
ENDBRANCH   1  11
TORSDOF 11
ENDMDL
MODEL 4
REMARK VINA RESULT:      -5.8      1.728      3.585
REMARK  Name = 
REMARK  12 active torsions:
REMARK  status: ('A' for Active; 'I' for Inactive)
REMARK    1  A    between atoms: C_1  and  C_2
REMARK    2  A    between atoms: C_2  and  C_3
REMARK    3  A    between atoms: C_3  and  C_4
REMARK    4  A    between atoms: C_4  and  C_5
REMARK    5  A    between atoms: C_5  and  C_6
REMARK    6  A    between atoms: C_6  and  C_7
REMARK    7  A    between atoms: C_7  and  C_8
REMARK    8  A    between atoms: C_8  and  C_9
REMARK    9  A    between atoms: C_9  and  C_10
REMARK   10  A    between atoms: C_10  and  C_11
REMARK   11  A    between atoms: C_10  and  C_14
REMARK   12  A    between atoms: C_11  and  O_13
REMARK                            x       y       z     vdW  Elec       q    Type
REMARK                         _______ _______ _______ _____ _____    ______ ____
ROOT
ATOM      1  C   UNL     1       6.120   5.203  15.372  0.00  0.00    +0.000 C 
ENDROOT
BRANCH   1   2
ATOM      2  C   UNL     1       6.530   4.281  14.206  0.00  0.00    +0.000 C 
ATOM      3  C   UNL     1       5.342   3.780  13.384  0.00  0.00    +0.000 C 
ATOM      4  C   UNL     1       5.974   3.275  12.098  0.00  0.00    +0.000 C 
ATOM      5  C   UNL     1       7.209   4.141  11.876  0.00  0.00    +0.000 C 
ATOM      6  C   UNL     1       7.396   4.967  13.149  0.00  0.00    +0.000 C 
ENDBRANCH   1   2
BRANCH   1   7
ATOM      7  C   UNL     1       7.287   5.350  16.334  0.00  0.00    +0.000 C 
ATOM      8  O   UNL     1       7.873   4.413  16.853  0.00  0.00    +0.000 OA
BRANCH   7   9
ATOM      9  O   UNL     1       7.641   6.632  16.567  0.00  0.00    +0.000 OA
ATOM     10  H   UNL     1       8.232   6.760  17.332  0.00  0.00    +0.000 HD
ENDBRANCH   7   9
ENDBRANCH   1   7
BRANCH   1  11
ATOM     11  C   UNL     1       4.899   4.630  16.114  0.00  0.00    +0.000 C 
BRANCH  11  12
ATOM     12  C   UNL     1       4.788   5.099  17.564  0.00  0.00    +0.000 C 
BRANCH  12  13
ATOM     13  C   UNL     1       4.529   3.904  18.481  0.00  0.00    +0.000 C 
BRANCH  13  14
ATOM     14  C   UNL     1       3.544   2.931  17.846  0.00  0.00    +0.000 C 
BRANCH  14  15
ATOM     15  C   UNL     1       3.087   1.877  18.852  0.00  0.00    +0.000 C 
BRANCH  15  16
ATOM     16  C   UNL     1       1.595   2.023  19.141  0.00  0.00    +0.000 C 
BRANCH  16  17
ATOM     17  C   UNL     1       1.357   2.710  20.482  0.00  0.00    +0.000 C 
BRANCH  17  19
ATOM     18  C   UNL     1       1.988   5.128  20.746  0.00  0.00    +0.000 C 
ATOM     19  C   UNL     1       0.914   4.157  20.284  0.00  0.00    +0.000 C 
ENDBRANCH  17  19
ENDBRANCH  16  17
ENDBRANCH  15  16
ENDBRANCH  14  15
ENDBRANCH  13  14
ENDBRANCH  12  13
ENDBRANCH  11  12
ENDBRANCH   1  11
TORSDOF 11
ENDMDL
MODEL 5
REMARK VINA RESULT:      -5.8      1.906      3.599
REMARK  Name = 
REMARK  12 active torsions:
REMARK  status: ('A' for Active; 'I' for Inactive)
REMARK    1  A    between atoms: C_1  and  C_2
REMARK    2  A    between atoms: C_2  and  C_3
REMARK    3  A    between atoms: C_3  and  C_4
REMARK    4  A    between atoms: C_4  and  C_5
REMARK    5  A    between atoms: C_5  and  C_6
REMARK    6  A    between atoms: C_6  and  C_7
REMARK    7  A    between atoms: C_7  and  C_8
REMARK    8  A    between atoms: C_8  and  C_9
REMARK    9  A    between atoms: C_9  and  C_10
REMARK   10  A    between atoms: C_10  and  C_11
REMARK   11  A    between atoms: C_10  and  C_14
REMARK   12  A    between atoms: C_11  and  O_13
REMARK                            x       y       z     vdW  Elec       q    Type
REMARK                         _______ _______ _______ _____ _____    ______ ____
ROOT
ATOM      1  C   UNL     1       6.036   5.228  15.464  0.00  0.00    +0.000 C 
ENDROOT
BRANCH   1   2
ATOM      2  C   UNL     1       6.441   4.276  14.321  0.00  0.00    +0.000 C 
ATOM      3  C   UNL     1       5.255   3.803  13.478  0.00  0.00    +0.000 C 
ATOM      4  C   UNL     1       5.899   3.258  12.215  0.00  0.00    +0.000 C 
ATOM      5  C   UNL     1       7.168   4.078  12.009  0.00  0.00    +0.000 C 
ATOM      6  C   UNL     1       7.354   4.916  13.274  0.00  0.00    +0.000 C 
ENDBRANCH   1   2
BRANCH   1   7
ATOM      7  C   UNL     1       7.256   5.543  16.314  0.00  0.00    +0.000 C 
ATOM      8  O   UNL     1       7.641   6.673  16.572  0.00  0.00    +0.000 OA
BRANCH   7   9
ATOM      9  O   UNL     1       7.889   4.447  16.783  0.00  0.00    +0.000 OA
ATOM     10  H   UNL     1       7.625   3.610  16.359  0.00  0.00    +0.000 HD
ENDBRANCH   7   9
ENDBRANCH   1   7
BRANCH   1  11
ATOM     11  C   UNL     1       4.939   4.594  16.337  0.00  0.00    +0.000 C 
BRANCH  11  12
ATOM     12  C   UNL     1       4.727   5.309  17.671  0.00  0.00    +0.000 C 
BRANCH  12  13
ATOM     13  C   UNL     1       3.372   6.015  17.674  0.00  0.00    +0.000 C 
BRANCH  13  14
ATOM     14  C   UNL     1       2.375   5.280  18.562  0.00  0.00    +0.000 C 
BRANCH  14  15
ATOM     15  C   UNL     1       1.512   4.323  17.743  0.00  0.00    +0.000 C 
BRANCH  15  16
ATOM     16  C   UNL     1       1.960   2.880  17.959  0.00  0.00    +0.000 C 
BRANCH  16  17
ATOM     17  C   UNL     1       2.584   2.696  19.339  0.00  0.00    +0.000 C 
BRANCH  17  19
ATOM     18  C   UNL     1       1.856   3.075  21.714  0.00  0.00    +0.000 C 
ATOM     19  C   UNL     1       1.513   2.413  20.390  0.00  0.00    +0.000 C 
ENDBRANCH  17  19
ENDBRANCH  16  17
ENDBRANCH  15  16
ENDBRANCH  14  15
ENDBRANCH  13  14
ENDBRANCH  12  13
ENDBRANCH  11  12
ENDBRANCH   1  11
TORSDOF 11
ENDMDL
MODEL 6
REMARK VINA RESULT:      -5.8      1.816      3.430
REMARK  Name = 
REMARK  12 active torsions:
REMARK  status: ('A' for Active; 'I' for Inactive)
REMARK    1  A    between atoms: C_1  and  C_2
REMARK    2  A    between atoms: C_2  and  C_3
REMARK    3  A    between atoms: C_3  and  C_4
REMARK    4  A    between atoms: C_4  and  C_5
REMARK    5  A    between atoms: C_5  and  C_6
REMARK    6  A    between atoms: C_6  and  C_7
REMARK    7  A    between atoms: C_7  and  C_8
REMARK    8  A    between atoms: C_8  and  C_9
REMARK    9  A    between atoms: C_9  and  C_10
REMARK   10  A    between atoms: C_10  and  C_11
REMARK   11  A    between atoms: C_10  and  C_14
REMARK   12  A    between atoms: C_11  and  O_13
REMARK                            x       y       z     vdW  Elec       q    Type
REMARK                         _______ _______ _______ _____ _____    ______ ____
ROOT
ATOM      1  C   UNL     1       6.110   4.750  15.425  0.00  0.00    +0.000 C 
ENDROOT
BRANCH   1   2
ATOM      2  C   UNL     1       6.678   4.111  14.143  0.00  0.00    +0.000 C 
ATOM      3  C   UNL     1       5.597   3.579  13.201  0.00  0.00    +0.000 C 
ATOM      4  C   UNL     1       6.320   3.400  11.877  0.00  0.00    +0.000 C 
ATOM      5  C   UNL     1       7.407   4.469  11.851  0.00  0.00    +0.000 C 
ATOM      6  C   UNL     1       7.442   5.088  13.248  0.00  0.00    +0.000 C 
ENDBRANCH   1   2
BRANCH   1   7
ATOM      7  C   UNL     1       7.249   5.054  16.385  0.00  0.00    +0.000 C 
ATOM      8  O   UNL     1       7.988   4.208  16.865  0.00  0.00    +0.000 OA
BRANCH   7   9
ATOM      9  O   UNL     1       7.390   6.368  16.664  0.00  0.00    +0.000 OA
ATOM     10  H   UNL     1       7.865   6.881  15.984  0.00  0.00    +0.000 HD
ENDBRANCH   7   9
ENDBRANCH   1   7
BRANCH   1  11
ATOM     11  C   UNL     1       5.096   3.809  16.098  0.00  0.00    +0.000 C 
BRANCH  11  12
ATOM     12  C   UNL     1       4.410   4.420  17.320  0.00  0.00    +0.000 C 
BRANCH  12  13
ATOM     13  C   UNL     1       4.011   3.317  18.300  0.00  0.00    +0.000 C 
BRANCH  13  14
ATOM     14  C   UNL     1       2.664   2.713  17.926  0.00  0.00    +0.000 C 
BRANCH  14  15
ATOM     15  C   UNL     1       1.539   3.732  18.096  0.00  0.00    +0.000 C 
BRANCH  15  16
ATOM     16  C   UNL     1       0.905   3.603  19.479  0.00  0.00    +0.000 C 
BRANCH  16  17
ATOM     17  C   UNL     1       1.458   4.651  20.440  0.00  0.00    +0.000 C 
BRANCH  17  19
ATOM     18  C   UNL     1       1.890   2.503  21.669  0.00  0.00    +0.000 C 
ATOM     19  C   UNL     1       2.185   3.992  21.609  0.00  0.00    +0.000 C 
ENDBRANCH  17  19
ENDBRANCH  16  17
ENDBRANCH  15  16
ENDBRANCH  14  15
ENDBRANCH  13  14
ENDBRANCH  12  13
ENDBRANCH  11  12
ENDBRANCH   1  11
TORSDOF 11
ENDMDL
MODEL 7
REMARK VINA RESULT:      -5.8      1.829      3.570
REMARK  Name = 
REMARK  12 active torsions:
REMARK  status: ('A' for Active; 'I' for Inactive)
REMARK    1  A    between atoms: C_1  and  C_2
REMARK    2  A    between atoms: C_2  and  C_3
REMARK    3  A    between atoms: C_3  and  C_4
REMARK    4  A    between atoms: C_4  and  C_5
REMARK    5  A    between atoms: C_5  and  C_6
REMARK    6  A    between atoms: C_6  and  C_7
REMARK    7  A    between atoms: C_7  and  C_8
REMARK    8  A    between atoms: C_8  and  C_9
REMARK    9  A    between atoms: C_9  and  C_10
REMARK   10  A    between atoms: C_10  and  C_11
REMARK   11  A    between atoms: C_10  and  C_14
REMARK   12  A    between atoms: C_11  and  O_13
REMARK                            x       y       z     vdW  Elec       q    Type
REMARK                         _______ _______ _______ _____ _____    ______ ____
ROOT
ATOM      1  C   UNL     1       6.054   5.248  15.377  0.00  0.00    +0.000 C 
ENDROOT
BRANCH   1   2
ATOM      2  C   UNL     1       6.464   4.270  14.258  0.00  0.00    +0.000 C 
ATOM      3  C   UNL     1       5.281   3.771  13.426  0.00  0.00    +0.000 C 
ATOM      4  C   UNL     1       5.927   3.199  12.177  0.00  0.00    +0.000 C 
ATOM      5  C   UNL     1       7.192   4.020  11.952  0.00  0.00    +0.000 C 
ATOM      6  C   UNL     1       7.374   4.889  13.196  0.00  0.00    +0.000 C 
ENDBRANCH   1   2
BRANCH   1   7
ATOM      7  C   UNL     1       7.267   5.571  16.234  0.00  0.00    +0.000 C 
ATOM      8  O   UNL     1       7.633   6.703  16.509  0.00  0.00    +0.000 OA
BRANCH   7   9
ATOM      9  O   UNL     1       7.917   4.478  16.689  0.00  0.00    +0.000 OA
ATOM     10  H   UNL     1       8.037   4.448  17.656  0.00  0.00    +0.000 HD
ENDBRANCH   7   9
ENDBRANCH   1   7
BRANCH   1  11
ATOM     11  C   UNL     1       4.943   4.639  16.250  0.00  0.00    +0.000 C 
BRANCH  11  12
ATOM     12  C   UNL     1       4.903   5.202  17.671  0.00  0.00    +0.000 C 
BRANCH  12  13
ATOM     13  C   UNL     1       3.801   4.511  18.474  0.00  0.00    +0.000 C 
BRANCH  13  14
ATOM     14  C   UNL     1       4.255   3.141  18.962  0.00  0.00    +0.000 C 
BRANCH  14  15
ATOM     15  C   UNL     1       3.282   2.051  18.520  0.00  0.00    +0.000 C 
BRANCH  15  16
ATOM     16  C   UNL     1       1.975   2.668  18.027  0.00  0.00    +0.000 C 
BRANCH  16  17
ATOM     17  C   UNL     1       0.830   2.385  18.995  0.00  0.00    +0.000 C 
BRANCH  17  19
ATOM     18  C   UNL     1       1.282   2.884  21.416  0.00  0.00    +0.000 C 
ATOM     19  C   UNL     1       0.773   3.440  20.096  0.00  0.00    +0.000 C 
ENDBRANCH  17  19
ENDBRANCH  16  17
ENDBRANCH  15  16
ENDBRANCH  14  15
ENDBRANCH  13  14
ENDBRANCH  12  13
ENDBRANCH  11  12
ENDBRANCH   1  11
TORSDOF 11
ENDMDL
MODEL 8
REMARK VINA RESULT:      -5.7      2.514      6.249
REMARK  Name = 
REMARK  12 active torsions:
REMARK  status: ('A' for Active; 'I' for Inactive)
REMARK    1  A    between atoms: C_1  and  C_2
REMARK    2  A    between atoms: C_2  and  C_3
REMARK    3  A    between atoms: C_3  and  C_4
REMARK    4  A    between atoms: C_4  and  C_5
REMARK    5  A    between atoms: C_5  and  C_6
REMARK    6  A    between atoms: C_6  and  C_7
REMARK    7  A    between atoms: C_7  and  C_8
REMARK    8  A    between atoms: C_8  and  C_9
REMARK    9  A    between atoms: C_9  and  C_10
REMARK   10  A    between atoms: C_10  and  C_11
REMARK   11  A    between atoms: C_10  and  C_14
REMARK   12  A    between atoms: C_11  and  O_13
REMARK                            x       y       z     vdW  Elec       q    Type
REMARK                         _______ _______ _______ _____ _____    ______ ____
ROOT
ATOM      1  C   UNL     1       4.012   4.203  18.607  0.00  0.00    +0.000 C 
ENDROOT
BRANCH   1   2
ATOM      2  C   UNL     1       2.841   3.344  19.123  0.00  0.00    +0.000 C 
ATOM      3  C   UNL     1       1.957   4.070  20.137  0.00  0.00    +0.000 C 
ATOM      4  C   UNL     1       0.686   3.239  20.176  0.00  0.00    +0.000 C 
ATOM      5  C   UNL     1       0.538   2.643  18.781  0.00  0.00    +0.000 C 
ATOM      6  C   UNL     1       1.838   2.947  18.038  0.00  0.00    +0.000 C 
ENDBRANCH   1   2
BRANCH   1   7
ATOM      7  C   UNL     1       5.297   3.771  19.295  0.00  0.00    +0.000 C 
ATOM      8  O   UNL     1       6.269   4.494  19.453  0.00  0.00    +0.000 OA
BRANCH   7   9
ATOM      9  O   UNL     1       5.273   2.496  19.739  0.00  0.00    +0.000 OA
ATOM     10  H   UNL     1       4.458   2.242  20.209  0.00  0.00    +0.000 HD
ENDBRANCH   7   9
ENDBRANCH   1   7
BRANCH   1  11
ATOM     11  C   UNL     1       3.751   5.695  18.877  0.00  0.00    +0.000 C 
BRANCH  11  12
ATOM     12  C   UNL     1       3.484   6.509  17.611  0.00  0.00    +0.000 C 
BRANCH  12  13
ATOM     13  C   UNL     1       4.802   7.027  17.036  0.00  0.00    +0.000 C 
BRANCH  13  14
ATOM     14  C   UNL     1       5.260   6.173  15.861  0.00  0.00    +0.000 C 
BRANCH  14  15
ATOM     15  C   UNL     1       6.661   5.615  16.101  0.00  0.00    +0.000 C 
BRANCH  15  16
ATOM     16  C   UNL     1       6.836   4.280  15.380  0.00  0.00    +0.000 C 
BRANCH  16  17
ATOM     17  C   UNL     1       5.663   3.999  14.446  0.00  0.00    +0.000 C 
BRANCH  17  19
ATOM     18  C   UNL     1       4.988   3.482  12.081  0.00  0.00    +0.000 C 
ATOM     19  C   UNL     1       6.153   3.661  13.040  0.00  0.00    +0.000 C 
ENDBRANCH  17  19
ENDBRANCH  16  17
ENDBRANCH  15  16
ENDBRANCH  14  15
ENDBRANCH  13  14
ENDBRANCH  12  13
ENDBRANCH  11  12
ENDBRANCH   1  11
TORSDOF 11
ENDMDL
MODEL 9
REMARK VINA RESULT:      -5.7      0.714      1.090
REMARK  Name = 
REMARK  12 active torsions:
REMARK  status: ('A' for Active; 'I' for Inactive)
REMARK    1  A    between atoms: C_1  and  C_2
REMARK    2  A    between atoms: C_2  and  C_3
REMARK    3  A    between atoms: C_3  and  C_4
REMARK    4  A    between atoms: C_4  and  C_5
REMARK    5  A    between atoms: C_5  and  C_6
REMARK    6  A    between atoms: C_6  and  C_7
REMARK    7  A    between atoms: C_7  and  C_8
REMARK    8  A    between atoms: C_8  and  C_9
REMARK    9  A    between atoms: C_9  and  C_10
REMARK   10  A    between atoms: C_10  and  C_11
REMARK   11  A    between atoms: C_10  and  C_14
REMARK   12  A    between atoms: C_11  and  O_13
REMARK                            x       y       z     vdW  Elec       q    Type
REMARK                         _______ _______ _______ _____ _____    ______ ____
ROOT
ATOM      1  C   UNL     1       6.368   4.589  16.003  0.00  0.00    +0.000 C 
ENDROOT
BRANCH   1   2
ATOM      2  C   UNL     1       7.386   5.366  16.860  0.00  0.00    +0.000 C 
ATOM      3  C   UNL     1       6.966   6.810  17.140  0.00  0.00    +0.000 C 
ATOM      4  C   UNL     1       7.850   7.231  18.302  0.00  0.00    +0.000 C 
ATOM      5  C   UNL     1       8.111   5.961  19.104  0.00  0.00    +0.000 C 
ATOM      6  C   UNL     1       7.572   4.799  18.269  0.00  0.00    +0.000 C 
ENDBRANCH   1   2
BRANCH   1   7
ATOM      7  C   UNL     1       6.774   4.670  14.540  0.00  0.00    +0.000 C 
ATOM      8  O   UNL     1       7.646   5.408  14.108  0.00  0.00    +0.000 OA
BRANCH   7   9
ATOM      9  O   UNL     1       6.085   3.830  13.738  0.00  0.00    +0.000 OA
ATOM     10  H   UNL     1       5.334   4.239  13.268  0.00  0.00    +0.000 HD
ENDBRANCH   7   9
ENDBRANCH   1   7
BRANCH   1  11
ATOM     11  C   UNL     1       4.953   5.165  16.185  0.00  0.00    +0.000 C 
BRANCH  11  12
ATOM     12  C   UNL     1       3.931   4.137  16.670  0.00  0.00    +0.000 C 
BRANCH  12  13
ATOM     13  C   UNL     1       4.100   3.903  18.171  0.00  0.00    +0.000 C 
BRANCH  13  14
ATOM     14  C   UNL     1       4.144   5.223  18.930  0.00  0.00    +0.000 C 
BRANCH  14  15
ATOM     15  C   UNL     1       2.870   6.031  18.700  0.00  0.00    +0.000 C 
BRANCH  15  16
ATOM     16  C   UNL     1       2.031   6.083  19.975  0.00  0.00    +0.000 C 
BRANCH  16  17
ATOM     17  C   UNL     1       2.303   4.874  20.865  0.00  0.00    +0.000 C 
BRANCH  17  19
ATOM     18  C   UNL     1       1.508   2.586  21.534  0.00  0.00    +0.000 C 
ATOM     19  C   UNL     1       1.188   3.839  20.737  0.00  0.00    +0.000 C 
ENDBRANCH  17  19
ENDBRANCH  16  17
ENDBRANCH  15  16
ENDBRANCH  14  15
ENDBRANCH  13  14
ENDBRANCH  12  13
ENDBRANCH  11  12
ENDBRANCH   1  11
TORSDOF 11
ENDMDL
