MODEL 1
REMARK VINA RESULT:      -7.6      0.000      0.000
REMARK  Name = 
REMARK  5 active torsions:
REMARK  status: ('A' for Active; 'I' for Inactive)
REMARK    1  A    between atoms: C_2  and  C_3
REMARK    2  A    between atoms: C_3  and  O_4
REMARK    3  A    between atoms: O_4  and  C_5
REMARK    4  A    between atoms: C_5  and  C_7
REMARK    5  A    between atoms: N_13  and  C_14
REMARK                            x       y       z     vdW  Elec       q    Type
REMARK                         _______ _______ _______ _____ _____    ______ ____
ROOT
ATOM      1  O   UNL     1       4.121   6.496  17.072  0.00  0.00    +0.000 OA
ATOM      2  C   UNL     1       5.096   6.021  17.650  0.00  0.00    +0.000 C 
ATOM      3  N   UNL     1       5.135   4.814  18.338  0.00  0.00    +0.000 N 
ATOM      4  H   UNL     1       5.991   4.629  18.851  0.00  0.00    +0.000 HD
ENDROOT
BRANCH   3   5
ATOM      5  C   UNL     1       4.067   3.907  18.502  0.00  0.00    +0.000 A 
ATOM      6  C   UNL     1       3.619   3.059  17.485  0.00  0.00    +0.000 A 
ATOM      7  C   UNL     1       2.528   2.211  17.684  0.00  0.00    +0.000 A 
ATOM      8  C   UNL     1       1.873   2.197  18.911  0.00  0.00    +0.000 A 
ATOM      9  C   UNL     1       2.330   3.018  19.939  0.00  0.00    +0.000 A 
ATOM     10 CL   UNL     1       1.519   3.002  21.458  0.00  0.00    +0.000 Cl
ATOM     11  C   UNL     1       3.428   3.862  19.748  0.00  0.00    +0.000 A 
ENDBRANCH   3   5
BRANCH   2  12
ATOM     12  C   UNL     1       6.447   6.730  17.596  0.00  0.00    +0.000 C 
BRANCH  12  13
ATOM     13  O   UNL     1       7.201   6.463  16.417  0.00  0.00    +0.000 OA
BRANCH  13  14
ATOM     14  C   UNL     1       7.485   5.149  16.201  0.00  0.00    +0.000 C 
ATOM     15  O   UNL     1       7.919   4.367  17.032  0.00  0.00    +0.000 OA
BRANCH  14  16
ATOM     16  C   UNL     1       7.182   4.784  14.784  0.00  0.00    +0.000 A 
ATOM     17  C   UNL     1       6.183   3.849  14.529  0.00  0.00    +0.000 A 
ATOM     18  C   UNL     1       5.915   3.518  13.204  0.00  0.00    +0.000 A 
ATOM     19  C   UNL     1       6.650   4.120  12.187  0.00  0.00    +0.000 A 
ATOM     20  C   UNL     1       7.627   5.038  12.535  0.00  0.00    +0.000 A 
ATOM     21  N   UNL     1       7.906   5.392  13.806  0.00  0.00    +0.000 NA
ENDBRANCH  14  16
ENDBRANCH  13  14
ENDBRANCH  12  13
ENDBRANCH   2  12
TORSDOF 5
ENDMDL
MODEL 2
REMARK VINA RESULT:      -7.3      1.420      1.817
REMARK  Name = 
REMARK  5 active torsions:
REMARK  status: ('A' for Active; 'I' for Inactive)
REMARK    1  A    between atoms: C_2  and  C_3
REMARK    2  A    between atoms: C_3  and  O_4
REMARK    3  A    between atoms: O_4  and  C_5
REMARK    4  A    between atoms: C_5  and  C_7
REMARK    5  A    between atoms: N_13  and  C_14
REMARK                            x       y       z     vdW  Elec       q    Type
REMARK                         _______ _______ _______ _____ _____    ______ ____
ROOT
ATOM      1  O   UNL     1       6.109   5.591  19.574  0.00  0.00    +0.000 OA
ATOM      2  C   UNL     1       6.375   4.749  18.720  0.00  0.00    +0.000 C 
ATOM      3  N   UNL     1       5.480   3.857  18.140  0.00  0.00    +0.000 N 
ATOM      4  H   UNL     1       5.891   3.155  17.533  0.00  0.00    +0.000 HD
ENDROOT
BRANCH   3   5
ATOM      5  C   UNL     1       4.102   3.751  18.421  0.00  0.00    +0.000 A 
ATOM      6  C   UNL     1       3.104   4.103  17.507  0.00  0.00    +0.000 A 
ATOM      7  C   UNL     1       1.753   4.022  17.849  0.00  0.00    +0.000 A 
ATOM      8  C   UNL     1       1.382   3.580  19.116  0.00  0.00    +0.000 A 
ATOM      9  C   UNL     1       2.368   3.200  20.023  0.00  0.00    +0.000 A 
ATOM     10 CL   UNL     1       1.910   2.653  21.590  0.00  0.00    +0.000 Cl
ATOM     11  C   UNL     1       3.722   3.270  19.681  0.00  0.00    +0.000 A 
ENDBRANCH   3   5
BRANCH   2  12
ATOM     12  C   UNL     1       7.784   4.655  18.139  0.00  0.00    +0.000 C 
BRANCH  12  13
ATOM     13  O   UNL     1       7.823   4.322  16.754  0.00  0.00    +0.000 OA
BRANCH  13  14
ATOM     14  C   UNL     1       7.438   5.319  15.911  0.00  0.00    +0.000 C 
ATOM     15  O   UNL     1       7.490   6.516  16.151  0.00  0.00    +0.000 OA
BRANCH  14  16
ATOM     16  C   UNL     1       6.941   4.743  14.626  0.00  0.00    +0.000 A 
ATOM     17  C   UNL     1       7.662   4.978  13.459  0.00  0.00    +0.000 A 
ATOM     18  C   UNL     1       7.183   4.436  12.270  0.00  0.00    +0.000 A 
ATOM     19  C   UNL     1       6.008   3.690  12.282  0.00  0.00    +0.000 A 
ATOM     20  C   UNL     1       5.355   3.510  13.491  0.00  0.00    +0.000 A 
ATOM     21  N   UNL     1       5.795   4.009  14.663  0.00  0.00    +0.000 NA
ENDBRANCH  14  16
ENDBRANCH  13  14
ENDBRANCH  12  13
ENDBRANCH   2  12
TORSDOF 5
ENDMDL
MODEL 3
REMARK VINA RESULT:      -7.2      1.512      2.169
REMARK  Name = 
REMARK  5 active torsions:
REMARK  status: ('A' for Active; 'I' for Inactive)
REMARK    1  A    between atoms: C_2  and  C_3
REMARK    2  A    between atoms: C_3  and  O_4
REMARK    3  A    between atoms: O_4  and  C_5
REMARK    4  A    between atoms: C_5  and  C_7
REMARK    5  A    between atoms: N_13  and  C_14
REMARK                            x       y       z     vdW  Elec       q    Type
REMARK                         _______ _______ _______ _____ _____    ______ ____
ROOT
ATOM      1  O   UNL     1       6.638   5.060  19.673  0.00  0.00    +0.000 OA
ATOM      2  C   UNL     1       6.190   4.634  18.612  0.00  0.00    +0.000 C 
ATOM      3  N   UNL     1       4.846   4.498  18.283  0.00  0.00    +0.000 N 
ATOM      4  H   UNL     1       4.653   4.025  17.407  0.00  0.00    +0.000 HD
ENDROOT
BRANCH   3   5
ATOM      5  C   UNL     1       3.746   4.827  19.103  0.00  0.00    +0.000 A 
ATOM      6  C   UNL     1       3.207   6.114  19.184  0.00  0.00    +0.000 A 
ATOM      7  C   UNL     1       2.145   6.397  20.045  0.00  0.00    +0.000 A 
ATOM      8  C   UNL     1       1.603   5.388  20.836  0.00  0.00    +0.000 A 
ATOM      9  C   UNL     1       2.115   4.096  20.741  0.00  0.00    +0.000 A 
ATOM     10 CL   UNL     1       1.445   2.847  21.719  0.00  0.00    +0.000 Cl
ATOM     11  C   UNL     1       3.172   3.806  19.873  0.00  0.00    +0.000 A 
ENDBRANCH   3   5
BRANCH   2  12
ATOM     12  C   UNL     1       7.131   4.259  17.469  0.00  0.00    +0.000 C 
BRANCH  12  13
ATOM     13  O   UNL     1       7.556   5.363  16.676  0.00  0.00    +0.000 OA
BRANCH  13  14
ATOM     14  C   UNL     1       6.614   5.858  15.827  0.00  0.00    +0.000 C 
ATOM     15  O   UNL     1       5.833   6.763  16.078  0.00  0.00    +0.000 OA
BRANCH  14  16
ATOM     16  C   UNL     1       6.669   5.136  14.520  0.00  0.00    +0.000 A 
ATOM     17  C   UNL     1       5.664   4.224  14.212  0.00  0.00    +0.000 A 
ATOM     18  C   UNL     1       5.731   3.559  12.992  0.00  0.00    +0.000 A 
ATOM     19  C   UNL     1       6.793   3.817  12.130  0.00  0.00    +0.000 A 
ATOM     20  C   UNL     1       7.750   4.740  12.521  0.00  0.00    +0.000 A 
ATOM     21  N   UNL     1       7.710   5.412  13.689  0.00  0.00    +0.000 NA
ENDBRANCH  14  16
ENDBRANCH  13  14
ENDBRANCH  12  13
ENDBRANCH   2  12
TORSDOF 5
ENDMDL
MODEL 4
REMARK VINA RESULT:      -7.2      2.837      6.632
REMARK  Name = 
REMARK  5 active torsions:
REMARK  status: ('A' for Active; 'I' for Inactive)
REMARK    1  A    between atoms: C_2  and  C_3
REMARK    2  A    between atoms: C_3  and  O_4
REMARK    3  A    between atoms: O_4  and  C_5
REMARK    4  A    between atoms: C_5  and  C_7
REMARK    5  A    between atoms: N_13  and  C_14
REMARK                            x       y       z     vdW  Elec       q    Type
REMARK                         _______ _______ _______ _____ _____    ______ ____
ROOT
ATOM      1  O   UNL     1       5.101   6.815  15.656  0.00  0.00    +0.000 OA
ATOM      2  C   UNL     1       5.763   6.006  16.301  0.00  0.00    +0.000 C 
ATOM      3  N   UNL     1       6.591   5.019  15.778  0.00  0.00    +0.000 N 
ATOM      4  H   UNL     1       6.975   4.365  16.452  0.00  0.00    +0.000 HD
ENDROOT
BRANCH   3   5
ATOM      5  C   UNL     1       6.831   4.764  14.412  0.00  0.00    +0.000 A 
ATOM      6  C   UNL     1       7.746   5.491  13.645  0.00  0.00    +0.000 A 
ATOM      7  C   UNL     1       7.914   5.228  12.284  0.00  0.00    +0.000 A 
ATOM      8  C   UNL     1       7.168   4.225  11.672  0.00  0.00    +0.000 A 
ATOM      9  C   UNL     1       6.274   3.477  12.435  0.00  0.00    +0.000 A 
ATOM     10 CL   UNL     1       5.350   2.236  11.678  0.00  0.00    +0.000 Cl
ATOM     11  C   UNL     1       6.110   3.730  13.800  0.00  0.00    +0.000 A 
ENDBRANCH   3   5
BRANCH   2  12
ATOM     12  C   UNL     1       5.783   6.065  17.827  0.00  0.00    +0.000 C 
BRANCH  12  13
ATOM     13  O   UNL     1       4.569   5.648  18.444  0.00  0.00    +0.000 OA
BRANCH  13  14
ATOM     14  C   UNL     1       4.615   4.422  19.035  0.00  0.00    +0.000 C 
ATOM     15  O   UNL     1       5.629   3.820  19.351  0.00  0.00    +0.000 OA
BRANCH  14  16
ATOM     16  C   UNL     1       3.231   3.905  19.254  0.00  0.00    +0.000 A 
ATOM     17  C   UNL     1       2.576   4.215  20.442  0.00  0.00    +0.000 A 
ATOM     18  C   UNL     1       1.288   3.723  20.631  0.00  0.00    +0.000 A 
ATOM     19  C   UNL     1       0.703   2.939  19.641  0.00  0.00    +0.000 A 
ATOM     20  C   UNL     1       1.430   2.680  18.491  0.00  0.00    +0.000 A 
ATOM     21  N   UNL     1       2.675   3.149  18.268  0.00  0.00    +0.000 NA
ENDBRANCH  14  16
ENDBRANCH  13  14
ENDBRANCH  12  13
ENDBRANCH   2  12
TORSDOF 5
ENDMDL
MODEL 5
REMARK VINA RESULT:      -7.1      1.522      1.909
REMARK  Name = 
REMARK  5 active torsions:
REMARK  status: ('A' for Active; 'I' for Inactive)
REMARK    1  A    between atoms: C_2  and  C_3
REMARK    2  A    between atoms: C_3  and  O_4
REMARK    3  A    between atoms: O_4  and  C_5
REMARK    4  A    between atoms: C_5  and  C_7
REMARK    5  A    between atoms: N_13  and  C_14
REMARK                            x       y       z     vdW  Elec       q    Type
REMARK                         _______ _______ _______ _____ _____    ______ ____
ROOT
ATOM      1  O   UNL     1       5.601   6.176  18.937  0.00  0.00    +0.000 OA
ATOM      2  C   UNL     1       5.016   6.275  17.861  0.00  0.00    +0.000 C 
ATOM      3  N   UNL     1       3.699   5.914  17.605  0.00  0.00    +0.000 N 
ATOM      4  H   UNL     1       3.411   5.958  16.633  0.00  0.00    +0.000 HD
ENDROOT
BRANCH   3   5
ATOM      5  C   UNL     1       2.785   5.369  18.532  0.00  0.00    +0.000 A 
ATOM      6  C   UNL     1       2.494   5.965  19.763  0.00  0.00    +0.000 A 
ATOM      7  C   UNL     1       1.614   5.362  20.665  0.00  0.00    +0.000 A 
ATOM      8  C   UNL     1       1.007   4.153  20.340  0.00  0.00    +0.000 A 
ATOM      9  C   UNL     1       1.269   3.567  19.104  0.00  0.00    +0.000 A 
ATOM     10 CL   UNL     1       0.517   2.070  18.702  0.00  0.00    +0.000 Cl
ATOM     11  C   UNL     1       2.141   4.171  18.194  0.00  0.00    +0.000 A 
ENDBRANCH   3   5
BRANCH   2  12
ATOM     12  C   UNL     1       5.713   6.907  16.657  0.00  0.00    +0.000 C 
BRANCH  12  13
ATOM     13  O   UNL     1       7.040   6.436  16.437  0.00  0.00    +0.000 OA
BRANCH  13  14
ATOM     14  C   UNL     1       7.147   5.096  16.223  0.00  0.00    +0.000 C 
ATOM     15  O   UNL     1       7.271   4.243  17.088  0.00  0.00    +0.000 OA
BRANCH  14  16
ATOM     16  C   UNL     1       7.084   4.803  14.759  0.00  0.00    +0.000 A 
ATOM     17  C   UNL     1       6.199   3.829  14.305  0.00  0.00    +0.000 A 
ATOM     18  C   UNL     1       6.155   3.566  12.940  0.00  0.00    +0.000 A 
ATOM     19  C   UNL     1       6.991   4.272  12.080  0.00  0.00    +0.000 A 
ATOM     20  C   UNL     1       7.842   5.222  12.621  0.00  0.00    +0.000 A 
ATOM     21  N   UNL     1       7.903   5.512  13.936  0.00  0.00    +0.000 NA
ENDBRANCH  14  16
ENDBRANCH  13  14
ENDBRANCH  12  13
ENDBRANCH   2  12
TORSDOF 5
ENDMDL
MODEL 6
REMARK VINA RESULT:      -7.1      1.363      1.678
REMARK  Name = 
REMARK  5 active torsions:
REMARK  status: ('A' for Active; 'I' for Inactive)
REMARK    1  A    between atoms: C_2  and  C_3
REMARK    2  A    between atoms: C_3  and  O_4
REMARK    3  A    between atoms: O_4  and  C_5
REMARK    4  A    between atoms: C_5  and  C_7
REMARK    5  A    between atoms: N_13  and  C_14
REMARK                            x       y       z     vdW  Elec       q    Type
REMARK                         _______ _______ _______ _____ _____    ______ ____
ROOT
ATOM      1  O   UNL     1       6.225   5.202  19.567  0.00  0.00    +0.000 OA
ATOM      2  C   UNL     1       6.271   4.500  18.560  0.00  0.00    +0.000 C 
ATOM      3  N   UNL     1       5.273   3.645  18.108  0.00  0.00    +0.000 N 
ATOM      4  H   UNL     1       5.522   3.056  17.320  0.00  0.00    +0.000 HD
ENDROOT
BRANCH   3   5
ATOM      5  C   UNL     1       4.020   3.424  18.718  0.00  0.00    +0.000 A 
ATOM      6  C   UNL     1       3.357   2.194  18.683  0.00  0.00    +0.000 A 
ATOM      7  C   UNL     1       2.096   2.039  19.265  0.00  0.00    +0.000 A 
ATOM      8  C   UNL     1       1.485   3.118  19.896  0.00  0.00    +0.000 A 
ATOM      9  C   UNL     1       2.151   4.339  19.961  0.00  0.00    +0.000 A 
ATOM     10 CL   UNL     1       1.395   5.675  20.743  0.00  0.00    +0.000 Cl
ATOM     11  C   UNL     1       3.417   4.496  19.389  0.00  0.00    +0.000 A 
ENDBRANCH   3   5
BRANCH   2  12
ATOM     12  C   UNL     1       7.478   4.566  17.626  0.00  0.00    +0.000 C 
BRANCH  12  13
ATOM     13  O   UNL     1       7.442   5.649  16.701  0.00  0.00    +0.000 OA
BRANCH  13  14
ATOM     14  C   UNL     1       6.318   5.717  15.937  0.00  0.00    +0.000 C 
ATOM     15  O   UNL     1       5.258   6.225  16.270  0.00  0.00    +0.000 OA
BRANCH  14  16
ATOM     16  C   UNL     1       6.560   5.080  14.608  0.00  0.00    +0.000 A 
ATOM     17  C   UNL     1       5.681   4.098  14.161  0.00  0.00    +0.000 A 
ATOM     18  C   UNL     1       5.922   3.513  12.922  0.00  0.00    +0.000 A 
ATOM     19  C   UNL     1       7.027   3.917  12.178  0.00  0.00    +0.000 A 
ATOM     20  C   UNL     1       7.849   4.901  12.703  0.00  0.00    +0.000 A 
ATOM     21  N   UNL     1       7.640   5.498  13.893  0.00  0.00    +0.000 NA
ENDBRANCH  14  16
ENDBRANCH  13  14
ENDBRANCH  12  13
ENDBRANCH   2  12
TORSDOF 5
ENDMDL
MODEL 7
REMARK VINA RESULT:      -7.0      2.774      6.533
REMARK  Name = 
REMARK  5 active torsions:
REMARK  status: ('A' for Active; 'I' for Inactive)
REMARK    1  A    between atoms: C_2  and  C_3
REMARK    2  A    between atoms: C_3  and  O_4
REMARK    3  A    between atoms: O_4  and  C_5
REMARK    4  A    between atoms: C_5  and  C_7
REMARK    5  A    between atoms: N_13  and  C_14
REMARK                            x       y       z     vdW  Elec       q    Type
REMARK                         _______ _______ _______ _____ _____    ______ ____
ROOT
ATOM      1  O   UNL     1       8.209   4.183  17.020  0.00  0.00    +0.000 OA
ATOM      2  C   UNL     1       7.156   4.815  17.024  0.00  0.00    +0.000 C 
ATOM      3  N   UNL     1       6.407   5.170  15.908  0.00  0.00    +0.000 N 
ATOM      4  H   UNL     1       5.622   5.788  16.084  0.00  0.00    +0.000 HD
ENDROOT
BRANCH   3   5
ATOM      5  C   UNL     1       6.712   4.869  14.564  0.00  0.00    +0.000 A 
ATOM      6  C   UNL     1       7.691   5.545  13.830  0.00  0.00    +0.000 A 
ATOM      7  C   UNL     1       7.924   5.238  12.487  0.00  0.00    +0.000 A 
ATOM      8  C   UNL     1       7.181   4.242  11.863  0.00  0.00    +0.000 A 
ATOM      9  C   UNL     1       6.224   3.543  12.594  0.00  0.00    +0.000 A 
ATOM     10 CL   UNL     1       5.303   2.309  11.822  0.00  0.00    +0.000 Cl
ATOM     11  C   UNL     1       5.994   3.839  13.941  0.00  0.00    +0.000 A 
ENDBRANCH   3   5
BRANCH   2  12
ATOM     12  C   UNL     1       6.507   5.230  18.343  0.00  0.00    +0.000 C 
BRANCH  12  13
ATOM     13  O   UNL     1       5.497   4.337  18.803  0.00  0.00    +0.000 OA
BRANCH  13  14
ATOM     14  C   UNL     1       4.326   4.929  19.162  0.00  0.00    +0.000 C 
ATOM     15  O   UNL     1       4.200   6.073  19.569  0.00  0.00    +0.000 OA
BRANCH  14  16
ATOM     16  C   UNL     1       3.191   3.975  18.981  0.00  0.00    +0.000 A 
ATOM     17  C   UNL     1       3.288   2.989  18.004  0.00  0.00    +0.000 A 
ATOM     18  C   UNL     1       2.221   2.110  17.847  0.00  0.00    +0.000 A 
ATOM     19  C   UNL     1       1.098   2.246  18.658  0.00  0.00    +0.000 A 
ATOM     20  C   UNL     1       1.087   3.258  19.604  0.00  0.00    +0.000 A 
ATOM     21  N   UNL     1       2.107   4.120  19.792  0.00  0.00    +0.000 NA
ENDBRANCH  14  16
ENDBRANCH  13  14
ENDBRANCH  12  13
ENDBRANCH   2  12
TORSDOF 5
ENDMDL
MODEL 8
REMARK VINA RESULT:      -6.9      1.447      1.914
REMARK  Name = 
REMARK  5 active torsions:
REMARK  status: ('A' for Active; 'I' for Inactive)
REMARK    1  A    between atoms: C_2  and  C_3
REMARK    2  A    between atoms: C_3  and  O_4
REMARK    3  A    between atoms: O_4  and  C_5
REMARK    4  A    between atoms: C_5  and  C_7
REMARK    5  A    between atoms: N_13  and  C_14
REMARK                            x       y       z     vdW  Elec       q    Type
REMARK                         _______ _______ _______ _____ _____    ______ ____
ROOT
ATOM      1  O   UNL     1       5.799   5.816  19.402  0.00  0.00    +0.000 OA
ATOM      2  C   UNL     1       6.262   4.786  18.919  0.00  0.00    +0.000 C 
ATOM      3  N   UNL     1       5.646   3.540  18.897  0.00  0.00    +0.000 N 
ATOM      4  H   UNL     1       6.218   2.773  18.559  0.00  0.00    +0.000 HD
ENDROOT
BRANCH   3   5
ATOM      5  C   UNL     1       4.375   3.224  19.421  0.00  0.00    +0.000 A 
ATOM      6  C   UNL     1       4.187   2.632  20.673  0.00  0.00    +0.000 A 
ATOM      7  C   UNL     1       2.909   2.299  21.127  0.00  0.00    +0.000 A 
ATOM      8  C   UNL     1       1.798   2.561  20.330  0.00  0.00    +0.000 A 
ATOM      9  C   UNL     1       1.974   3.177  19.094  0.00  0.00    +0.000 A 
ATOM     10 CL   UNL     1       0.599   3.502  18.108  0.00  0.00    +0.000 Cl
ATOM     11  C   UNL     1       3.250   3.522  18.640  0.00  0.00    +0.000 A 
ENDBRANCH   3   5
BRANCH   2  12
ATOM     12  C   UNL     1       7.608   4.807  18.198  0.00  0.00    +0.000 C 
BRANCH  12  13
ATOM     13  O   UNL     1       7.536   4.463  16.817  0.00  0.00    +0.000 OA
BRANCH  13  14
ATOM     14  C   UNL     1       7.079   5.451  16.001  0.00  0.00    +0.000 C 
ATOM     15  O   UNL     1       6.780   6.583  16.349  0.00  0.00    +0.000 OA
BRANCH  14  16
ATOM     16  C   UNL     1       6.998   4.958  14.593  0.00  0.00    +0.000 A 
ATOM     17  C   UNL     1       6.082   3.959  14.281  0.00  0.00    +0.000 A 
ATOM     18  C   UNL     1       6.021   3.510  12.965  0.00  0.00    +0.000 A 
ATOM     19  C   UNL     1       6.873   4.062  12.014  0.00  0.00    +0.000 A 
ATOM     20  C   UNL     1       7.756   5.051  12.415  0.00  0.00    +0.000 A 
ATOM     21  N   UNL     1       7.835   5.520  13.677  0.00  0.00    +0.000 NA
ENDBRANCH  14  16
ENDBRANCH  13  14
ENDBRANCH  12  13
ENDBRANCH   2  12
TORSDOF 5
ENDMDL
MODEL 9
REMARK VINA RESULT:      -6.9      2.881      6.649
REMARK  Name = 
REMARK  5 active torsions:
REMARK  status: ('A' for Active; 'I' for Inactive)
REMARK    1  A    between atoms: C_2  and  C_3
REMARK    2  A    between atoms: C_3  and  O_4
REMARK    3  A    between atoms: O_4  and  C_5
REMARK    4  A    between atoms: C_5  and  C_7
REMARK    5  A    between atoms: N_13  and  C_14
REMARK                            x       y       z     vdW  Elec       q    Type
REMARK                         _______ _______ _______ _____ _____    ______ ____
ROOT
ATOM      1  O   UNL     1       5.075   6.935  15.563  0.00  0.00    +0.000 OA
ATOM      2  C   UNL     1       5.656   6.094  16.245  0.00  0.00    +0.000 C 
ATOM      3  N   UNL     1       6.449   5.056  15.770  0.00  0.00    +0.000 N 
ATOM      4  H   UNL     1       6.761   4.387  16.466  0.00  0.00    +0.000 HD
ENDROOT
BRANCH   3   5
ATOM      5  C   UNL     1       6.738   4.775  14.418  0.00  0.00    +0.000 A 
ATOM      6  C   UNL     1       7.712   5.458  13.684  0.00  0.00    +0.000 A 
ATOM      7  C   UNL     1       7.930   5.172  12.334  0.00  0.00    +0.000 A 
ATOM      8  C   UNL     1       7.175   4.188  11.702  0.00  0.00    +0.000 A 
ATOM      9  C   UNL     1       6.223   3.482  12.433  0.00  0.00    +0.000 A 
ATOM     10 CL   UNL     1       5.289   2.264  11.652  0.00  0.00    +0.000 Cl
ATOM     11  C   UNL     1       6.008   3.758  13.787  0.00  0.00    +0.000 A 
ENDBRANCH   3   5
BRANCH   2  12
ATOM     12  C   UNL     1       5.606   6.166  17.770  0.00  0.00    +0.000 C 
BRANCH  12  13
ATOM     13  O   UNL     1       4.754   5.197  18.373  0.00  0.00    +0.000 OA
BRANCH  13  14
ATOM     14  C   UNL     1       3.503   5.638  18.675  0.00  0.00    +0.000 C 
ATOM     15  O   UNL     1       3.164   6.807  18.777  0.00  0.00    +0.000 OA
BRANCH  14  16
ATOM     16  C   UNL     1       2.580   4.479  18.863  0.00  0.00    +0.000 A 
ATOM     17  C   UNL     1       1.656   4.515  19.902  0.00  0.00    +0.000 A 
ATOM     18  C   UNL     1       0.805   3.426  20.064  0.00  0.00    +0.000 A 
ATOM     19  C   UNL     1       0.907   2.343  19.196  0.00  0.00    +0.000 A 
ATOM     20  C   UNL     1       1.858   2.393  18.191  0.00  0.00    +0.000 A 
ATOM     21  N   UNL     1       2.691   3.435  17.996  0.00  0.00    +0.000 NA
ENDBRANCH  14  16
ENDBRANCH  13  14
ENDBRANCH  12  13
ENDBRANCH   2  12
TORSDOF 5
ENDMDL
