MODEL 1
REMARK VINA RESULT:      -7.0      0.000      0.000
REMARK  Name = 
REMARK  4 active torsions:
REMARK  status: ('A' for Active; 'I' for Inactive)
REMARK    1  A    between atoms: C_2  and  C_3
REMARK    2  A    between atoms: C_3  and  S_4
REMARK    3  A    between atoms: S_4  and  C_5
REMARK    4  A    between atoms: N_15  and  C_16
REMARK                            x       y       z     vdW  Elec       q    Type
REMARK                         _______ _______ _______ _____ _____    ______ ____
ROOT
ATOM      1  C   UNL     1       2.043   4.328  19.250  0.00  0.00    +0.000 C 
ENDROOT
BRANCH   1   3
ATOM      2  O   UNL     1       3.259   2.531  18.201  0.00  0.00    +0.000 OA
ATOM      3  C   UNL     1       3.258   3.705  18.559  0.00  0.00    +0.000 C 
ATOM      4  N   UNL     1       4.358   4.522  18.435  0.00  0.00    +0.000 N 
ATOM      5  H   UNL     1       4.223   5.469  18.777  0.00  0.00    +0.000 HD
BRANCH   4   6
ATOM      6  C   UNL     1       5.650   4.217  17.830  0.00  0.00    +0.000 C 
ATOM      7  C   UNL     1       6.870   5.039  18.273  0.00  0.00    +0.000 C 
ATOM      8  C   UNL     1       7.080   6.198  17.307  0.00  0.00    +0.000 C 
ATOM      9  S   UNL     1       6.434   5.658  15.742  0.00  0.00    +0.000 S 
ATOM     10  O   UNL     1       7.545   5.245  14.904  0.00  0.00    +0.000 OA
ATOM     11  O   UNL     1       5.440   6.600  15.271  0.00  0.00    +0.000 OA
ATOM     12  C   UNL     1       5.609   4.193  16.307  0.00  0.00    +0.000 C 
ENDBRANCH   4   6
ENDBRANCH   1   3
BRANCH   1  13
ATOM     13  S   UNL     1       2.454   5.598  20.511  0.00  0.00    +0.000 S 
BRANCH  13  14
ATOM     14  C   UNL     1       2.115   7.119  19.614  0.00  0.00    +0.000 A 
ATOM     15  N   UNL     1       2.625   7.166  18.371  0.00  0.00    +0.000 NA
ATOM     16  C   UNL     1       2.484   8.316  17.710  0.00  0.00    +0.000 A 
ATOM     17  N   UNL     1       1.893   9.416  18.178  0.00  0.00    +0.000 NA
ATOM     18  C   UNL     1       1.370   9.349  19.406  0.00  0.00    +0.000 A 
ATOM     19  C   UNL     1       0.746  10.485  19.905  0.00  0.00    +0.000 A 
ATOM     20  C   UNL     1       0.154  10.511  21.171  0.00  0.00    +0.000 A 
ATOM     21  C   UNL     1       0.182   9.373  21.961  0.00  0.00    +0.000 A 
ATOM     22  C   UNL     1       0.817   8.223  21.492  0.00  0.00    +0.000 A 
ATOM     23  C   UNL     1       1.429   8.198  20.205  0.00  0.00    +0.000 A 
ENDBRANCH  13  14
ENDBRANCH   1  13
TORSDOF 4
ENDMDL
MODEL 2
REMARK VINA RESULT:      -6.8      2.752      3.613
REMARK  Name = 
REMARK  4 active torsions:
REMARK  status: ('A' for Active; 'I' for Inactive)
REMARK    1  A    between atoms: C_2  and  C_3
REMARK    2  A    between atoms: C_3  and  S_4
REMARK    3  A    between atoms: S_4  and  C_5
REMARK    4  A    between atoms: N_15  and  C_16
REMARK                            x       y       z     vdW  Elec       q    Type
REMARK                         _______ _______ _______ _____ _____    ______ ____
ROOT
ATOM      1  C   UNL     1       1.878   7.959  19.661  0.00  0.00    +0.000 C 
ENDROOT
BRANCH   1   3
ATOM      2  O   UNL     1       2.247   5.601  19.996  0.00  0.00    +0.000 OA
ATOM      3  C   UNL     1       2.558   6.617  19.381  0.00  0.00    +0.000 C 
ATOM      4  N   UNL     1       3.576   6.646  18.457  0.00  0.00    +0.000 N 
ATOM      5  H   UNL     1       3.733   7.552  18.026  0.00  0.00    +0.000 HD
BRANCH   4   6
ATOM      6  C   UNL     1       4.404   5.541  17.984  0.00  0.00    +0.000 C 
ATOM      7  C   UNL     1       5.425   4.933  18.957  0.00  0.00    +0.000 C 
ATOM      8  C   UNL     1       6.784   5.587  18.740  0.00  0.00    +0.000 C 
ATOM      9  S   UNL     1       6.821   6.092  17.036  0.00  0.00    +0.000 S 
ATOM     10  O   UNL     1       7.586   5.115  16.283  0.00  0.00    +0.000 OA
ATOM     11  O   UNL     1       7.111   7.509  16.951  0.00  0.00    +0.000 OA
ATOM     12  C   UNL     1       5.106   5.837  16.665  0.00  0.00    +0.000 C 
ENDBRANCH   4   6
ENDBRANCH   1   3
BRANCH   1  13
ATOM     13  S   UNL     1       1.565   8.979  18.167  0.00  0.00    +0.000 S 
BRANCH  13  14
ATOM     14  C   UNL     1       0.493  10.264  18.826  0.00  0.00    +0.000 A 
ATOM     15  N   UNL     1       1.018  10.967  19.844  0.00  0.00    +0.000 NA
ATOM     16  C   UNL     1       0.218  11.861  20.428  0.00  0.00    +0.000 A 
ATOM     17  N   UNL     1      -1.050  12.105  20.096  0.00  0.00    +0.000 NA
ATOM     18  C   UNL     1      -1.553  11.416  19.067  0.00  0.00    +0.000 A 
ATOM     19  C   UNL     1      -2.870  11.664  18.705  0.00  0.00    +0.000 A 
ATOM     20  C   UNL     1      -3.481  11.007  17.633  0.00  0.00    +0.000 A 
ATOM     21  C   UNL     1      -2.760  10.079  16.900  0.00  0.00    +0.000 A 
ATOM     22  C   UNL     1      -1.440   9.798  17.252  0.00  0.00    +0.000 A 
ATOM     23  C   UNL     1      -0.818  10.460  18.350  0.00  0.00    +0.000 A 
ENDBRANCH  13  14
ENDBRANCH   1  13
TORSDOF 4
ENDMDL
MODEL 3
REMARK VINA RESULT:      -6.7      1.323      1.521
REMARK  Name = 
REMARK  4 active torsions:
REMARK  status: ('A' for Active; 'I' for Inactive)
REMARK    1  A    between atoms: C_2  and  C_3
REMARK    2  A    between atoms: C_3  and  S_4
REMARK    3  A    between atoms: S_4  and  C_5
REMARK    4  A    between atoms: N_15  and  C_16
REMARK                            x       y       z     vdW  Elec       q    Type
REMARK                         _______ _______ _______ _____ _____    ______ ____
ROOT
ATOM      1  C   UNL     1       1.646   5.011  19.440  0.00  0.00    +0.000 C 
ENDROOT
BRANCH   1   3
ATOM      2  O   UNL     1       1.774   3.896  17.307  0.00  0.00    +0.000 OA
ATOM      3  C   UNL     1       2.297   4.679  18.095  0.00  0.00    +0.000 C 
ATOM      4  N   UNL     1       3.525   5.256  17.868  0.00  0.00    +0.000 N 
ATOM      5  H   UNL     1       3.844   5.879  18.604  0.00  0.00    +0.000 HD
BRANCH   4   6
ATOM      6  C   UNL     1       4.382   5.131  16.694  0.00  0.00    +0.000 C 
ATOM      7  C   UNL     1       5.275   3.887  16.578  0.00  0.00    +0.000 C 
ATOM      8  C   UNL     1       6.661   4.204  17.127  0.00  0.00    +0.000 C 
ATOM      9  S   UNL     1       6.902   5.947  16.881  0.00  0.00    +0.000 S 
ATOM     10  O   UNL     1       7.732   6.135  15.705  0.00  0.00    +0.000 OA
ATOM     11  O   UNL     1       7.223   6.581  18.144  0.00  0.00    +0.000 OA
ATOM     12  C   UNL     1       5.236   6.367  16.439  0.00  0.00    +0.000 C 
ENDBRANCH   4   6
ENDBRANCH   1   3
BRANCH   1  13
ATOM     13  S   UNL     1       2.543   6.274  20.427  0.00  0.00    +0.000 S 
BRANCH  13  14
ATOM     14  C   UNL     1       1.896   7.801  19.729  0.00  0.00    +0.000 A 
ATOM     15  N   UNL     1       2.253   8.033  18.455  0.00  0.00    +0.000 NA
ATOM     16  C   UNL     1       1.879   9.202  17.933  0.00  0.00    +0.000 A 
ATOM     17  N   UNL     1       1.196  10.156  18.568  0.00  0.00    +0.000 NA
ATOM     18  C   UNL     1       0.827   9.903  19.827  0.00  0.00    +0.000 A 
ATOM     19  C   UNL     1       0.111  10.883  20.500  0.00  0.00    +0.000 A 
ATOM     20  C   UNL     1      -0.335  10.708  21.813  0.00  0.00    +0.000 A 
ATOM     21  C   UNL     1      -0.059   9.523  22.475  0.00  0.00    +0.000 A 
ATOM     22  C   UNL     1       0.673   8.527  21.829  0.00  0.00    +0.000 A 
ATOM     23  C   UNL     1       1.136   8.708  20.493  0.00  0.00    +0.000 A 
ENDBRANCH  13  14
ENDBRANCH   1  13
TORSDOF 4
ENDMDL
MODEL 4
REMARK VINA RESULT:      -6.6      2.242      3.800
REMARK  Name = 
REMARK  4 active torsions:
REMARK  status: ('A' for Active; 'I' for Inactive)
REMARK    1  A    between atoms: C_2  and  C_3
REMARK    2  A    between atoms: C_3  and  S_4
REMARK    3  A    between atoms: S_4  and  C_5
REMARK    4  A    between atoms: N_15  and  C_16
REMARK                            x       y       z     vdW  Elec       q    Type
REMARK                         _______ _______ _______ _____ _____    ______ ____
ROOT
ATOM      1  C   UNL     1       2.783   7.996  17.881  0.00  0.00    +0.000 C 
ENDROOT
BRANCH   1   3
ATOM      2  O   UNL     1       4.613   7.035  16.641  0.00  0.00    +0.000 OA
ATOM      3  C   UNL     1       3.782   6.890  17.533  0.00  0.00    +0.000 C 
ATOM      4  N   UNL     1       3.636   5.713  18.230  0.00  0.00    +0.000 N 
ATOM      5  H   UNL     1       2.906   5.726  18.936  0.00  0.00    +0.000 HD
BRANCH   4   6
ATOM      6  C   UNL     1       4.426   4.491  18.122  0.00  0.00    +0.000 C 
ATOM      7  C   UNL     1       3.817   3.298  17.371  0.00  0.00    +0.000 C 
ATOM      8  C   UNL     1       3.143   2.362  18.367  0.00  0.00    +0.000 C 
ATOM      9  S   UNL     1       4.016   2.564  19.901  0.00  0.00    +0.000 S 
ATOM     10  O   UNL     1       4.942   1.457  20.053  0.00  0.00    +0.000 OA
ATOM     11  O   UNL     1       3.084   2.922  20.952  0.00  0.00    +0.000 OA
ATOM     12  C   UNL     1       4.960   4.000  19.462  0.00  0.00    +0.000 C 
ENDBRANCH   4   6
ENDBRANCH   1   3
BRANCH   1  13
ATOM     13  S   UNL     1       1.995   7.815  19.530  0.00  0.00    +0.000 S 
BRANCH  13  14
ATOM     14  C   UNL     1       1.100   9.369  19.673  0.00  0.00    +0.000 A 
ATOM     15  N   UNL     1       1.201  10.178  18.604  0.00  0.00    +0.000 NA
ATOM     16  C   UNL     1       0.638  11.382  18.710  0.00  0.00    +0.000 A 
ATOM     17  N   UNL     1      -0.003  11.850  19.782  0.00  0.00    +0.000 NA
ATOM     18  C   UNL     1      -0.117  11.028  20.829  0.00  0.00    +0.000 A 
ATOM     19  C   UNL     1      -0.787  11.499  21.950  0.00  0.00    +0.000 A 
ATOM     20  C   UNL     1      -0.974  10.711  23.089  0.00  0.00    +0.000 A 
ATOM     21  C   UNL     1      -0.480   9.417  23.112  0.00  0.00    +0.000 A 
ATOM     22  C   UNL     1       0.212   8.923  22.006  0.00  0.00    +0.000 A 
ATOM     23  C   UNL     1       0.410   9.729  20.847  0.00  0.00    +0.000 A 
ENDBRANCH  13  14
ENDBRANCH   1  13
TORSDOF 4
ENDMDL
MODEL 5
REMARK VINA RESULT:      -6.5      3.476      7.463
REMARK  Name = 
REMARK  4 active torsions:
REMARK  status: ('A' for Active; 'I' for Inactive)
REMARK    1  A    between atoms: C_2  and  C_3
REMARK    2  A    between atoms: C_3  and  S_4
REMARK    3  A    between atoms: S_4  and  C_5
REMARK    4  A    between atoms: N_15  and  C_16
REMARK                            x       y       z     vdW  Elec       q    Type
REMARK                         _______ _______ _______ _____ _____    ______ ____
ROOT
ATOM      1  C   UNL     1       2.833   5.692  19.082  0.00  0.00    +0.000 C 
ENDROOT
BRANCH   1   3
ATOM      2  O   UNL     1       1.663   5.362  21.163  0.00  0.00    +0.000 OA
ATOM      3  C   UNL     1       2.074   6.160  20.325  0.00  0.00    +0.000 C 
ATOM      4  N   UNL     1       1.825   7.510  20.399  0.00  0.00    +0.000 N 
ATOM      5  H   UNL     1       2.216   8.056  19.637  0.00  0.00    +0.000 HD
BRANCH   4   6
ATOM      6  C   UNL     1       1.131   8.249  21.449  0.00  0.00    +0.000 C 
ATOM      7  C   UNL     1      -0.394   8.400  21.343  0.00  0.00    +0.000 C 
ATOM      8  C   UNL     1      -0.726   9.727  20.670  0.00  0.00    +0.000 C 
ATOM      9  S   UNL     1       0.619  10.823  21.052  0.00  0.00    +0.000 S 
ATOM     10  O   UNL     1       0.208  11.695  22.137  0.00  0.00    +0.000 OA
ATOM     11  O   UNL     1       1.183  11.353  19.827  0.00  0.00    +0.000 OA
ATOM     12  C   UNL     1       1.737   9.620  21.721  0.00  0.00    +0.000 C 
ENDBRANCH   4   6
ENDBRANCH   1   3
BRANCH   1  13
ATOM     13  S   UNL     1       3.827   4.167  19.328  0.00  0.00    +0.000 S 
BRANCH  13  14
ATOM     14  C   UNL     1       5.421   4.664  18.661  0.00  0.00    +0.000 A 
ATOM     15  N   UNL     1       6.276   5.173  19.565  0.00  0.00    +0.000 NA
ATOM     16  C   UNL     1       7.431   5.648  19.095  0.00  0.00    +0.000 A 
ATOM     17  N   UNL     1       7.800   5.669  17.814  0.00  0.00    +0.000 NA
ATOM     18  C   UNL     1       6.951   5.140  16.927  0.00  0.00    +0.000 A 
ATOM     19  C   UNL     1       7.324   5.150  15.590  0.00  0.00    +0.000 A 
ATOM     20  C   UNL     1       6.514   4.605  14.589  0.00  0.00    +0.000 A 
ATOM     21  C   UNL     1       5.298   4.034  14.931  0.00  0.00    +0.000 A 
ATOM     22  C   UNL     1       4.891   4.026  16.264  0.00  0.00    +0.000 A 
ATOM     23  C   UNL     1       5.712   4.588  17.285  0.00  0.00    +0.000 A 
ENDBRANCH  13  14
ENDBRANCH   1  13
TORSDOF 4
ENDMDL
MODEL 6
REMARK VINA RESULT:      -6.5      2.456      3.459
REMARK  Name = 
REMARK  4 active torsions:
REMARK  status: ('A' for Active; 'I' for Inactive)
REMARK    1  A    between atoms: C_2  and  C_3
REMARK    2  A    between atoms: C_3  and  S_4
REMARK    3  A    between atoms: S_4  and  C_5
REMARK    4  A    between atoms: N_15  and  C_16
REMARK                            x       y       z     vdW  Elec       q    Type
REMARK                         _______ _______ _______ _____ _____    ______ ____
ROOT
ATOM      1  C   UNL     1       2.353   9.119  18.129  0.00  0.00    +0.000 C 
ENDROOT
BRANCH   1   3
ATOM      2  O   UNL     1       1.850   6.778  18.403  0.00  0.00    +0.000 OA
ATOM      3  C   UNL     1       2.667   7.624  18.049  0.00  0.00    +0.000 C 
ATOM      4  N   UNL     1       3.936   7.302  17.627  0.00  0.00    +0.000 N 
ATOM      5  H   UNL     1       4.512   8.098  17.370  0.00  0.00    +0.000 HD
BRANCH   4   6
ATOM      6  C   UNL     1       4.525   5.979  17.451  0.00  0.00    +0.000 C 
ATOM      7  C   UNL     1       5.203   5.320  18.662  0.00  0.00    +0.000 C 
ATOM      8  C   UNL     1       6.699   5.611  18.625  0.00  0.00    +0.000 C 
ATOM      9  S   UNL     1       7.119   5.816  16.910  0.00  0.00    +0.000 S 
ATOM     10  O   UNL     1       7.723   4.585  16.434  0.00  0.00    +0.000 OA
ATOM     11  O   UNL     1       7.760   7.100  16.713  0.00  0.00    +0.000 OA
ATOM     12  C   UNL     1       5.470   5.896  16.260  0.00  0.00    +0.000 C 
ENDBRANCH   4   6
ENDBRANCH   1   3
BRANCH   1  13
ATOM     13  S   UNL     1       0.580   9.510  18.406  0.00  0.00    +0.000 S 
BRANCH  13  14
ATOM     14  C   UNL     1       0.543   9.774  20.185  0.00  0.00    +0.000 A 
ATOM     15  N   UNL     1       1.382   8.993  20.887  0.00  0.00    +0.000 NA
ATOM     16  C   UNL     1       1.313   9.085  22.216  0.00  0.00    +0.000 A 
ATOM     17  N   UNL     1       0.481   9.872  22.900  0.00  0.00    +0.000 NA
ATOM     18  C   UNL     1      -0.331  10.661  22.190  0.00  0.00    +0.000 A 
ATOM     19  C   UNL     1      -1.198  11.491  22.887  0.00  0.00    +0.000 A 
ATOM     20  C   UNL     1      -2.074  12.364  22.237  0.00  0.00    +0.000 A 
ATOM     21  C   UNL     1      -2.086  12.413  20.852  0.00  0.00    +0.000 A 
ATOM     22  C   UNL     1      -1.238  11.578  20.126  0.00  0.00    +0.000 A 
ATOM     23  C   UNL     1      -0.350  10.681  20.787  0.00  0.00    +0.000 A 
ENDBRANCH  13  14
ENDBRANCH   1  13
TORSDOF 4
ENDMDL
MODEL 7
REMARK VINA RESULT:      -6.4      1.946      2.739
REMARK  Name = 
REMARK  4 active torsions:
REMARK  status: ('A' for Active; 'I' for Inactive)
REMARK    1  A    between atoms: C_2  and  C_3
REMARK    2  A    between atoms: C_3  and  S_4
REMARK    3  A    between atoms: S_4  and  C_5
REMARK    4  A    between atoms: N_15  and  C_16
REMARK                            x       y       z     vdW  Elec       q    Type
REMARK                         _______ _______ _______ _____ _____    ______ ____
ROOT
ATOM      1  C   UNL     1       2.176   7.221  18.063  0.00  0.00    +0.000 C 
ENDROOT
BRANCH   1   3
ATOM      2  O   UNL     1       3.512   5.218  17.954  0.00  0.00    +0.000 OA
ATOM      3  C   UNL     1       3.401   6.402  17.649  0.00  0.00    +0.000 C 
ATOM      4  N   UNL     1       4.385   7.095  16.984  0.00  0.00    +0.000 N 
ATOM      5  H   UNL     1       4.166   8.070  16.799  0.00  0.00    +0.000 HD
BRANCH   4   6
ATOM      6  C   UNL     1       5.655   6.596  16.467  0.00  0.00    +0.000 C 
ATOM      7  C   UNL     1       5.629   5.373  15.538  0.00  0.00    +0.000 C 
ATOM      8  C   UNL     1       5.861   4.109  16.357  0.00  0.00    +0.000 C 
ATOM      9  S   UNL     1       6.842   4.601  17.754  0.00  0.00    +0.000 S 
ATOM     10  O   UNL     1       8.224   4.241  17.496  0.00  0.00    +0.000 OA
ATOM     11  O   UNL     1       6.176   4.213  18.981  0.00  0.00    +0.000 OA
ATOM     12  C   UNL     1       6.694   6.357  17.555  0.00  0.00    +0.000 C 
ENDBRANCH   4   6
ENDBRANCH   1   3
BRANCH   1  13
ATOM     13  S   UNL     1       2.093   7.609  19.856  0.00  0.00    +0.000 S 
BRANCH  13  14
ATOM     14  C   UNL     1       1.187   9.163  19.846  0.00  0.00    +0.000 A 
ATOM     15  N   UNL     1       1.293   9.870  18.708  0.00  0.00    +0.000 NA
ATOM     16  C   UNL     1       0.720  11.074  18.696  0.00  0.00    +0.000 A 
ATOM     17  N   UNL     1       0.065  11.635  19.714  0.00  0.00    +0.000 NA
ATOM     18  C   UNL     1      -0.054  10.912  20.832  0.00  0.00    +0.000 A 
ATOM     19  C   UNL     1      -0.738  11.479  21.898  0.00  0.00    +0.000 A 
ATOM     20  C   UNL     1      -0.931  10.799  23.104  0.00  0.00    +0.000 A 
ATOM     21  C   UNL     1      -0.429   9.516  23.251  0.00  0.00    +0.000 A 
ATOM     22  C   UNL     1       0.278   8.928  22.202  0.00  0.00    +0.000 A 
ATOM     23  C   UNL     1       0.482   9.624  20.975  0.00  0.00    +0.000 A 
ENDBRANCH  13  14
ENDBRANCH   1  13
TORSDOF 4
ENDMDL
MODEL 8
REMARK VINA RESULT:      -6.4      1.947      2.782
REMARK  Name = 
REMARK  4 active torsions:
REMARK  status: ('A' for Active; 'I' for Inactive)
REMARK    1  A    between atoms: C_2  and  C_3
REMARK    2  A    between atoms: C_3  and  S_4
REMARK    3  A    between atoms: S_4  and  C_5
REMARK    4  A    between atoms: N_15  and  C_16
REMARK                            x       y       z     vdW  Elec       q    Type
REMARK                         _______ _______ _______ _____ _____    ______ ____
ROOT
ATOM      1  C   UNL     1       2.107   8.003  18.445  0.00  0.00    +0.000 C 
ENDROOT
BRANCH   1   3
ATOM      2  O   UNL     1       1.879   5.605  18.360  0.00  0.00    +0.000 OA
ATOM      3  C   UNL     1       2.607   6.579  18.191  0.00  0.00    +0.000 C 
ATOM      4  N   UNL     1       3.931   6.466  17.837  0.00  0.00    +0.000 N 
ATOM      5  H   UNL     1       4.421   7.351  17.737  0.00  0.00    +0.000 HD
BRANCH   4   6
ATOM      6  C   UNL     1       4.689   5.256  17.534  0.00  0.00    +0.000 C 
ATOM      7  C   UNL     1       5.589   4.670  18.632  0.00  0.00    +0.000 C 
ATOM      8  C   UNL     1       7.011   5.190  18.453  0.00  0.00    +0.000 C 
ATOM      9  S   UNL     1       7.202   5.515  16.717  0.00  0.00    +0.000 S 
ATOM     10  O   UNL     1       7.927   4.409  16.119  0.00  0.00    +0.000 OA
ATOM     11  O   UNL     1       7.618   6.888  16.518  0.00  0.00    +0.000 OA
ATOM     12  C   UNL     1       5.498   5.361  16.247  0.00  0.00    +0.000 C 
ENDBRANCH   4   6
ENDBRANCH   1   3
BRANCH   1  13
ATOM     13  S   UNL     1       1.566   8.322  20.171  0.00  0.00    +0.000 S 
BRANCH  13  14
ATOM     14  C   UNL     1       0.591   9.820  19.971  0.00  0.00    +0.000 A 
ATOM     15  N   UNL     1       0.683  10.395  18.759  0.00  0.00    +0.000 NA
ATOM     16  C   UNL     1       0.056  11.562  18.602  0.00  0.00    +0.000 A 
ATOM     17  N   UNL     1      -0.638  12.205  19.541  0.00  0.00    +0.000 NA
ATOM     18  C   UNL     1      -0.742  11.613  20.734  0.00  0.00    +0.000 A 
ATOM     19  C   UNL     1      -1.467  12.267  21.720  0.00  0.00    +0.000 A 
ATOM     20  C   UNL     1      -1.647  11.723  22.995  0.00  0.00    +0.000 A 
ATOM     21  C   UNL     1      -1.089  10.491  23.295  0.00  0.00    +0.000 A 
ATOM     22  C   UNL     1      -0.342   9.818  22.329  0.00  0.00    +0.000 A 
ATOM     23  C   UNL     1      -0.150  10.376  21.032  0.00  0.00    +0.000 A 
ENDBRANCH  13  14
ENDBRANCH   1  13
TORSDOF 4
ENDMDL
MODEL 9
REMARK VINA RESULT:      -6.3      4.181      7.809
REMARK  Name = 
REMARK  4 active torsions:
REMARK  status: ('A' for Active; 'I' for Inactive)
REMARK    1  A    between atoms: C_2  and  C_3
REMARK    2  A    between atoms: C_3  and  S_4
REMARK    3  A    between atoms: S_4  and  C_5
REMARK    4  A    between atoms: N_15  and  C_16
REMARK                            x       y       z     vdW  Elec       q    Type
REMARK                         _______ _______ _______ _____ _____    ______ ____
ROOT
ATOM      1  C   UNL     1       2.157   7.881  18.731  0.00  0.00    +0.000 C 
ENDROOT
BRANCH   1   3
ATOM      2  O   UNL     1       1.908   9.877  17.402  0.00  0.00    +0.000 OA
ATOM      3  C   UNL     1       1.603   9.275  18.428  0.00  0.00    +0.000 C 
ATOM      4  N   UNL     1       0.808   9.827  19.407  0.00  0.00    +0.000 N 
ATOM      5  H   UNL     1       0.640   9.223  20.206  0.00  0.00    +0.000 HD
BRANCH   4   6
ATOM      6  C   UNL     1       0.143  11.125  19.409  0.00  0.00    +0.000 C 
ATOM      7  C   UNL     1       1.005  12.382  19.598  0.00  0.00    +0.000 C 
ATOM      8  C   UNL     1       1.017  12.772  21.071  0.00  0.00    +0.000 C 
ATOM      9  S   UNL     1      -0.523  12.195  21.746  0.00  0.00    +0.000 S 
ATOM     10  O   UNL     1      -1.436  13.320  21.837  0.00  0.00    +0.000 OA
ATOM     11  O   UNL     1      -0.268  11.333  22.882  0.00  0.00    +0.000 OA
ATOM     12  C   UNL     1      -1.035  11.195  20.373  0.00  0.00    +0.000 C 
ENDBRANCH   4   6
ENDBRANCH   1   3
BRANCH   1  13
ATOM     13  S   UNL     1       3.387   7.272  17.512  0.00  0.00    +0.000 S 
BRANCH  13  14
ATOM     14  C   UNL     1       3.984   5.779  18.318  0.00  0.00    +0.000 A 
ATOM     15  N   UNL     1       5.268   5.826  18.711  0.00  0.00    +0.000 NA
ATOM     16  C   UNL     1       5.779   4.705  19.221  0.00  0.00    +0.000 A 
ATOM     17  N   UNL     1       5.131   3.548  19.363  0.00  0.00    +0.000 NA
ATOM     18  C   UNL     1       3.848   3.520  18.990  0.00  0.00    +0.000 A 
ATOM     19  C   UNL     1       3.158   2.325  19.136  0.00  0.00    +0.000 A 
ATOM     20  C   UNL     1       1.809   2.198  18.791  0.00  0.00    +0.000 A 
ATOM     21  C   UNL     1       1.129   3.295  18.286  0.00  0.00    +0.000 A 
ATOM     22  C   UNL     1       1.802   4.503  18.113  0.00  0.00    +0.000 A 
ATOM     23  C   UNL     1       3.179   4.631  18.456  0.00  0.00    +0.000 A 
ENDBRANCH  13  14
ENDBRANCH   1  13
TORSDOF 4
ENDMDL
