MODEL 1
REMARK VINA RESULT:      -7.6      0.000      0.000
REMARK  Name = 
REMARK  4 active torsions:
REMARK  status: ('A' for Active; 'I' for Inactive)
REMARK    1  A    between atoms: O_1  and  C_2
REMARK    2  A    between atoms: C_2  and  C_3
REMARK    3  A    between atoms: C_2  and  C_16
REMARK    4  A    between atoms: C_3  and  C_4
REMARK                            x       y       z     vdW  Elec       q    Type
REMARK                         _______ _______ _______ _____ _____    ______ ____
ROOT
ATOM      1  C   UNL     1       4.550   4.279  17.986  0.00  0.00    +0.000 C 
ATOM      2  C   UNL     1       3.724   5.470  18.458  0.00  0.00    +0.000 A 
ATOM      3  C   UNL     1       2.912   5.599  19.587  0.00  0.00    +0.000 A 
ATOM      4  C   UNL     1       2.220   6.808  19.781  0.00  0.00    +0.000 A 
ATOM      5  C   UNL     1       2.346   7.865  18.854  0.00  0.00    +0.000 A 
ATOM      6  C   UNL     1       3.175   7.729  17.728  0.00  0.00    +0.000 A 
ATOM      7  C   UNL     1       3.854   6.526  17.563  0.00  0.00    +0.000 A 
ATOM      8  C   UNL     1       4.772   6.077  16.549  0.00  0.00    +0.000 A 
ATOM      9  C   UNL     1       5.387   6.546  15.418  0.00  0.00    +0.000 A 
ATOM     10  N   UNL     1       6.189   5.551  14.949  0.00  0.00    +0.000 NA
ATOM     11  C   UNL     1       6.028   4.516  15.816  0.00  0.00    +0.000 A 
ATOM     12  N   UNL     1       5.162   4.843  16.785  0.00  0.00    +0.000 N 
ENDROOT
BRANCH   1  13
ATOM     13  C   UNL     1       3.701   3.015  17.672  0.00  0.00    +0.000 C 
BRANCH  13  14
ATOM     14  C   UNL     1       3.536   2.029  18.861  0.00  0.00    +0.000 C 
BRANCH  14  15
ATOM     15  C   UNL     1       2.114   1.919  19.453  0.00  0.00    +0.000 C 
ATOM     16  C   UNL     1       1.703   2.565  20.758  0.00  0.00    +0.000 C 
ATOM     17  N   UNL     1       0.391   2.925  20.198  0.00  0.00    +0.000 NA
ATOM     18  C   UNL     1       0.942   2.672  18.859  0.00  0.00    +0.000 C 
ATOM     19  H   UNL     1       0.200   3.946  20.334  0.00  0.00    +0.000 HD
ENDBRANCH  14  15
BRANCH  14  20
ATOM     20  O   UNL     1       3.901   0.736  18.454  0.00  0.00    +0.000 OA
ATOM     21  H   UNL     1       4.867   0.631  18.642  0.00  0.00    +0.000 HD
ENDBRANCH  14  20
ENDBRANCH  13  14
ENDBRANCH   1  13
TORSDOF 4
ENDMDL
MODEL 2
REMARK VINA RESULT:      -7.2      2.985      5.245
REMARK  Name = 
REMARK  4 active torsions:
REMARK  status: ('A' for Active; 'I' for Inactive)
REMARK    1  A    between atoms: O_1  and  C_2
REMARK    2  A    between atoms: C_2  and  C_3
REMARK    3  A    between atoms: C_2  and  C_16
REMARK    4  A    between atoms: C_3  and  C_4
REMARK                            x       y       z     vdW  Elec       q    Type
REMARK                         _______ _______ _______ _____ _____    ______ ____
ROOT
ATOM      1  C   UNL     1       5.332   3.871  16.570  0.00  0.00    +0.000 C 
ATOM      2  C   UNL     1       4.030   4.056  17.339  0.00  0.00    +0.000 A 
ATOM      3  C   UNL     1       2.729   3.683  16.992  0.00  0.00    +0.000 A 
ATOM      4  C   UNL     1       1.682   4.002  17.874  0.00  0.00    +0.000 A 
ATOM      5  C   UNL     1       1.942   4.685  19.082  0.00  0.00    +0.000 A 
ATOM      6  C   UNL     1       3.255   5.046  19.427  0.00  0.00    +0.000 A 
ATOM      7  C   UNL     1       4.274   4.711  18.542  0.00  0.00    +0.000 A 
ATOM      8  C   UNL     1       5.697   4.919  18.599  0.00  0.00    +0.000 A 
ATOM      9  C   UNL     1       6.642   5.437  19.446  0.00  0.00    +0.000 A 
ATOM     10  N   UNL     1       7.855   5.271  18.851  0.00  0.00    +0.000 NA
ATOM     11  C   UNL     1       7.598   4.658  17.665  0.00  0.00    +0.000 A 
ATOM     12  N   UNL     1       6.282   4.449  17.518  0.00  0.00    +0.000 N 
ENDROOT
BRANCH   1  13
ATOM     13  C   UNL     1       5.357   4.602  15.198  0.00  0.00    +0.000 C 
BRANCH  13  14
ATOM     14  C   UNL     1       6.517   4.181  14.255  0.00  0.00    +0.000 C 
BRANCH  14  15
ATOM     15  C   UNL     1       6.123   3.877  12.794  0.00  0.00    +0.000 C 
ATOM     16  C   UNL     1       6.574   2.640  12.049  0.00  0.00    +0.000 C 
ATOM     17  N   UNL     1       5.255   2.510  11.410  0.00  0.00    +0.000 NA
ATOM     18  C   UNL     1       4.723   3.435  12.421  0.00  0.00    +0.000 C 
ATOM     19  H   UNL     1       4.871   1.546  11.550  0.00  0.00    +0.000 HD
ENDBRANCH  14  15
BRANCH  14  20
ATOM     20  O   UNL     1       7.479   5.202  14.207  0.00  0.00    +0.000 OA
ATOM     21  H   UNL     1       7.799   5.348  15.132  0.00  0.00    +0.000 HD
ENDBRANCH  14  20
ENDBRANCH  13  14
ENDBRANCH   1  13
TORSDOF 4
ENDMDL
MODEL 3
REMARK VINA RESULT:      -7.1      1.512      3.374
REMARK  Name = 
REMARK  4 active torsions:
REMARK  status: ('A' for Active; 'I' for Inactive)
REMARK    1  A    between atoms: O_1  and  C_2
REMARK    2  A    between atoms: C_2  and  C_3
REMARK    3  A    between atoms: C_2  and  C_16
REMARK    4  A    between atoms: C_3  and  C_4
REMARK                            x       y       z     vdW  Elec       q    Type
REMARK                         _______ _______ _______ _____ _____    ______ ____
ROOT
ATOM      1  C   UNL     1       3.776   4.324  18.294  0.00  0.00    +0.000 C 
ATOM      2  C   UNL     1       4.615   4.517  17.036  0.00  0.00    +0.000 A 
ATOM      3  C   UNL     1       5.350   3.583  16.303  0.00  0.00    +0.000 A 
ATOM      4  C   UNL     1       6.075   4.029  15.183  0.00  0.00    +0.000 A 
ATOM      5  C   UNL     1       6.058   5.391  14.812  0.00  0.00    +0.000 A 
ATOM      6  C   UNL     1       5.306   6.320  15.549  0.00  0.00    +0.000 A 
ATOM      7  C   UNL     1       4.591   5.853  16.647  0.00  0.00    +0.000 A 
ATOM      8  C   UNL     1       3.730   6.524  17.585  0.00  0.00    +0.000 A 
ATOM      9  C   UNL     1       3.216   7.773  17.818  0.00  0.00    +0.000 A 
ATOM     10  N   UNL     1       2.409   7.682  18.911  0.00  0.00    +0.000 NA
ATOM     11  C   UNL     1       2.466   6.379  19.297  0.00  0.00    +0.000 A 
ATOM     12  N   UNL     1       3.274   5.682  18.487  0.00  0.00    +0.000 N 
ENDROOT
BRANCH   1  13
ATOM     13  C   UNL     1       4.593   3.822  19.518  0.00  0.00    +0.000 C 
BRANCH  13  14
ATOM     14  C   UNL     1       4.181   2.421  20.047  0.00  0.00    +0.000 C 
BRANCH  14  15
ATOM     15  C   UNL     1       2.782   2.328  20.693  0.00  0.00    +0.000 C 
ATOM     16  C   UNL     1       2.160   3.449  21.496  0.00  0.00    +0.000 C 
ATOM     17  N   UNL     1       0.840   3.173  20.910  0.00  0.00    +0.000 NA
ATOM     18  C   UNL     1       1.516   2.391  19.865  0.00  0.00    +0.000 C 
ATOM     19  H   UNL     1       0.425   4.047  20.509  0.00  0.00    +0.000 HD
ENDBRANCH  14  15
BRANCH  14  20
ATOM     20  O   UNL     1       4.197   1.496  18.990  0.00  0.00    +0.000 OA
ATOM     21  H   UNL     1       4.624   1.942  18.217  0.00  0.00    +0.000 HD
ENDBRANCH  14  20
ENDBRANCH  13  14
ENDBRANCH   1  13
TORSDOF 4
ENDMDL
MODEL 4
REMARK VINA RESULT:      -7.1      1.677      5.003
REMARK  Name = 
REMARK  4 active torsions:
REMARK  status: ('A' for Active; 'I' for Inactive)
REMARK    1  A    between atoms: O_1  and  C_2
REMARK    2  A    between atoms: C_2  and  C_3
REMARK    3  A    between atoms: C_2  and  C_16
REMARK    4  A    between atoms: C_3  and  C_4
REMARK                            x       y       z     vdW  Elec       q    Type
REMARK                         _______ _______ _______ _____ _____    ______ ____
ROOT
ATOM      1  C   UNL     1       3.011   4.902  18.203  0.00  0.00    +0.000 C 
ATOM      2  C   UNL     1       2.499   6.255  18.681  0.00  0.00    +0.000 A 
ATOM      3  C   UNL     1       2.391   7.463  17.988  0.00  0.00    +0.000 A 
ATOM      4  C   UNL     1       1.911   8.591  18.677  0.00  0.00    +0.000 A 
ATOM      5  C   UNL     1       1.547   8.501  20.038  0.00  0.00    +0.000 A 
ATOM      6  C   UNL     1       1.648   7.279  20.723  0.00  0.00    +0.000 A 
ATOM      7  C   UNL     1       2.119   6.176  20.017  0.00  0.00    +0.000 A 
ATOM      8  C   UNL     1       2.326   4.807  20.409  0.00  0.00    +0.000 A 
ATOM      9  C   UNL     1       2.154   3.998  21.501  0.00  0.00    +0.000 A 
ATOM     10  N   UNL     1       2.549   2.745  21.146  0.00  0.00    +0.000 NA
ATOM     11  C   UNL     1       2.946   2.844  19.848  0.00  0.00    +0.000 A 
ATOM     12  N   UNL     1       2.809   4.102  19.409  0.00  0.00    +0.000 N 
ENDROOT
BRANCH   1  13
ATOM     13  C   UNL     1       4.500   4.920  17.755  0.00  0.00    +0.000 C 
BRANCH  13  14
ATOM     14  C   UNL     1       4.843   3.953  16.588  0.00  0.00    +0.000 C 
BRANCH  14  15
ATOM     15  C   UNL     1       6.235   4.137  15.947  0.00  0.00    +0.000 C 
ATOM     16  C   UNL     1       6.445   4.380  14.469  0.00  0.00    +0.000 C 
ATOM     17  N   UNL     1       7.523   5.341  14.752  0.00  0.00    +0.000 NA
ATOM     18  C   UNL     1       7.042   5.404  16.140  0.00  0.00    +0.000 C 
ATOM     19  H   UNL     1       7.348   6.247  14.258  0.00  0.00    +0.000 HD
ENDBRANCH  14  15
BRANCH  14  20
ATOM     20  O   UNL     1       4.782   2.627  17.044  0.00  0.00    +0.000 OA
ATOM     21  H   UNL     1       5.420   2.101  16.501  0.00  0.00    +0.000 HD
ENDBRANCH  14  20
ENDBRANCH  13  14
ENDBRANCH   1  13
TORSDOF 4
ENDMDL
MODEL 5
REMARK VINA RESULT:      -7.0      2.400      3.852
REMARK  Name = 
REMARK  4 active torsions:
REMARK  status: ('A' for Active; 'I' for Inactive)
REMARK    1  A    between atoms: O_1  and  C_2
REMARK    2  A    between atoms: C_2  and  C_3
REMARK    3  A    between atoms: C_2  and  C_16
REMARK    4  A    between atoms: C_3  and  C_4
REMARK                            x       y       z     vdW  Elec       q    Type
REMARK                         _______ _______ _______ _____ _____    ______ ____
ROOT
ATOM      1  C   UNL     1       4.475   4.149  17.253  0.00  0.00    +0.000 C 
ATOM      2  C   UNL     1       5.238   4.264  15.938  0.00  0.00    +0.000 A 
ATOM      3  C   UNL     1       4.826   3.957  14.639  0.00  0.00    +0.000 A 
ATOM      4  C   UNL     1       5.745   4.124  13.587  0.00  0.00    +0.000 A 
ATOM      5  C   UNL     1       7.052   4.591  13.842  0.00  0.00    +0.000 A 
ATOM      6  C   UNL     1       7.453   4.908  15.151  0.00  0.00    +0.000 A 
ATOM      7  C   UNL     1       6.523   4.742  16.172  0.00  0.00    +0.000 A 
ATOM      8  C   UNL     1       6.606   4.982  17.589  0.00  0.00    +0.000 A 
ATOM      9  C   UNL     1       7.494   5.463  18.514  0.00  0.00    +0.000 A 
ATOM     10  N   UNL     1       6.873   5.438  19.726  0.00  0.00    +0.000 NA
ATOM     11  C   UNL     1       5.630   4.941  19.486  0.00  0.00    +0.000 A 
ATOM     12  N   UNL     1       5.476   4.664  18.184  0.00  0.00    +0.000 N 
ENDROOT
BRANCH   1  13
ATOM     13  C   UNL     1       4.045   2.695  17.600  0.00  0.00    +0.000 C 
BRANCH  13  14
ATOM     14  C   UNL     1       2.510   2.462  17.647  0.00  0.00    +0.000 C 
BRANCH  14  15
ATOM     15  C   UNL     1       1.907   2.226  19.048  0.00  0.00    +0.000 C 
ATOM     16  C   UNL     1       2.331   2.997  20.278  0.00  0.00    +0.000 C 
ATOM     17  N   UNL     1       0.940   3.055  20.755  0.00  0.00    +0.000 NA
ATOM     18  C   UNL     1       0.506   2.683  19.401  0.00  0.00    +0.000 C 
ATOM     19  H   UNL     1       0.666   4.041  20.975  0.00  0.00    +0.000 HD
ENDBRANCH  14  15
BRANCH  14  20
ATOM     20  O   UNL     1       1.849   3.577  17.108  0.00  0.00    +0.000 OA
ATOM     21  H   UNL     1       2.152   3.674  16.172  0.00  0.00    +0.000 HD
ENDBRANCH  14  20
ENDBRANCH  13  14
ENDBRANCH   1  13
TORSDOF 4
ENDMDL
MODEL 6
REMARK VINA RESULT:      -6.9      1.636      3.448
REMARK  Name = 
REMARK  4 active torsions:
REMARK  status: ('A' for Active; 'I' for Inactive)
REMARK    1  A    between atoms: O_1  and  C_2
REMARK    2  A    between atoms: C_2  and  C_3
REMARK    3  A    between atoms: C_2  and  C_16
REMARK    4  A    between atoms: C_3  and  C_4
REMARK                            x       y       z     vdW  Elec       q    Type
REMARK                         _______ _______ _______ _____ _____    ______ ____
ROOT
ATOM      1  C   UNL     1       3.512   3.817  16.981  0.00  0.00    +0.000 C 
ATOM      2  C   UNL     1       4.865   4.345  16.520  0.00  0.00    +0.000 A 
ATOM      3  C   UNL     1       5.858   3.714  15.767  0.00  0.00    +0.000 A 
ATOM      4  C   UNL     1       7.046   4.418  15.501  0.00  0.00    +0.000 A 
ATOM      5  C   UNL     1       7.228   5.731  15.985  0.00  0.00    +0.000 A 
ATOM      6  C   UNL     1       6.219   6.361  16.732  0.00  0.00    +0.000 A 
ATOM      7  C   UNL     1       5.050   5.646  16.975  0.00  0.00    +0.000 A 
ATOM      8  C   UNL     1       3.844   5.996  17.678  0.00  0.00    +0.000 A 
ATOM      9  C   UNL     1       3.294   7.065  18.336  0.00  0.00    +0.000 A 
ATOM     10  N   UNL     1       2.051   6.693  18.748  0.00  0.00    +0.000 NA
ATOM     11  C   UNL     1       1.896   5.410  18.323  0.00  0.00    +0.000 A 
ATOM     12  N   UNL     1       2.993   4.993  17.676  0.00  0.00    +0.000 N 
ENDROOT
BRANCH   1  13
ATOM     13  C   UNL     1       3.611   2.580  17.919  0.00  0.00    +0.000 C 
BRANCH  13  14
ATOM     14  C   UNL     1       3.964   2.907  19.396  0.00  0.00    +0.000 C 
BRANCH  14  15
ATOM     15  C   UNL     1       2.891   2.540  20.443  0.00  0.00    +0.000 C 
ATOM     16  C   UNL     1       2.303   3.536  21.417  0.00  0.00    +0.000 C 
ATOM     17  N   UNL     1       0.967   2.937  21.266  0.00  0.00    +0.000 NA
ATOM     18  C   UNL     1       1.454   2.268  20.051  0.00  0.00    +0.000 C 
ATOM     19  H   UNL     1       0.259   3.671  21.027  0.00  0.00    +0.000 HD
ENDBRANCH  14  15
BRANCH  14  20
ATOM     20  O   UNL     1       5.134   2.223  19.762  0.00  0.00    +0.000 OA
ATOM     21  H   UNL     1       5.666   2.835  20.329  0.00  0.00    +0.000 HD
ENDBRANCH  14  20
ENDBRANCH  13  14
ENDBRANCH   1  13
TORSDOF 4
ENDMDL
MODEL 7
REMARK VINA RESULT:      -6.9      2.346      5.017
REMARK  Name = 
REMARK  4 active torsions:
REMARK  status: ('A' for Active; 'I' for Inactive)
REMARK    1  A    between atoms: O_1  and  C_2
REMARK    2  A    between atoms: C_2  and  C_3
REMARK    3  A    between atoms: C_2  and  C_16
REMARK    4  A    between atoms: C_3  and  C_4
REMARK                            x       y       z     vdW  Elec       q    Type
REMARK                         _______ _______ _______ _____ _____    ______ ____
ROOT
ATOM      1  C   UNL     1       4.757   4.934  17.992  0.00  0.00    +0.000 C 
ATOM      2  C   UNL     1       3.851   6.149  18.161  0.00  0.00    +0.000 A 
ATOM      3  C   UNL     1       3.814   7.340  17.433  0.00  0.00    +0.000 A 
ATOM      4  C   UNL     1       2.893   8.332  17.816  0.00  0.00    +0.000 A 
ATOM      5  C   UNL     1       2.028   8.125  18.913  0.00  0.00    +0.000 A 
ATOM      6  C   UNL     1       2.066   6.919  19.631  0.00  0.00    +0.000 A 
ATOM      7  C   UNL     1       2.980   5.951  19.227  0.00  0.00    +0.000 A 
ATOM      8  C   UNL     1       3.260   4.631  19.728  0.00  0.00    +0.000 A 
ATOM      9  C   UNL     1       2.810   3.764  20.689  0.00  0.00    +0.000 A 
ATOM     10  N   UNL     1       3.542   2.621  20.580  0.00  0.00    +0.000 NA
ATOM     11  C   UNL     1       4.408   2.841  19.555  0.00  0.00    +0.000 A 
ATOM     12  N   UNL     1       4.232   4.067  19.044  0.00  0.00    +0.000 N 
ENDROOT
BRANCH   1  13
ATOM     13  C   UNL     1       6.267   5.249  18.191  0.00  0.00    +0.000 C 
BRANCH  13  14
ATOM     14  C   UNL     1       7.095   5.328  16.879  0.00  0.00    +0.000 C 
BRANCH  14  15
ATOM     15  C   UNL     1       6.354   4.917  15.589  0.00  0.00    +0.000 C 
ATOM     16  C   UNL     1       7.010   4.883  14.226  0.00  0.00    +0.000 C 
ATOM     17  N   UNL     1       6.286   3.652  13.877  0.00  0.00    +0.000 NA
ATOM     18  C   UNL     1       5.985   3.475  15.305  0.00  0.00    +0.000 C 
ATOM     19  H   UNL     1       6.951   2.914  13.544  0.00  0.00    +0.000 HD
ENDBRANCH  14  15
BRANCH  14  20
ATOM     20  O   UNL     1       7.541   6.644  16.683  0.00  0.00    +0.000 OA
ATOM     21  H   UNL     1       8.133   6.869  17.444  0.00  0.00    +0.000 HD
ENDBRANCH  14  20
ENDBRANCH  13  14
ENDBRANCH   1  13
TORSDOF 4
ENDMDL
MODEL 8
REMARK VINA RESULT:      -6.9      1.999      4.945
REMARK  Name = 
REMARK  4 active torsions:
REMARK  status: ('A' for Active; 'I' for Inactive)
REMARK    1  A    between atoms: O_1  and  C_2
REMARK    2  A    between atoms: C_2  and  C_3
REMARK    3  A    between atoms: C_2  and  C_16
REMARK    4  A    between atoms: C_3  and  C_4
REMARK                            x       y       z     vdW  Elec       q    Type
REMARK                         _______ _______ _______ _____ _____    ______ ____
ROOT
ATOM      1  C   UNL     1       4.229   4.605  18.228  0.00  0.00    +0.000 C 
ATOM      2  C   UNL     1       3.290   4.027  19.280  0.00  0.00    +0.000 A 
ATOM      3  C   UNL     1       3.273   2.754  19.855  0.00  0.00    +0.000 A 
ATOM      4  C   UNL     1       2.268   2.456  20.793  0.00  0.00    +0.000 A 
ATOM      5  C   UNL     1       1.301   3.423  21.142  0.00  0.00    +0.000 A 
ATOM      6  C   UNL     1       1.334   4.703  20.566  0.00  0.00    +0.000 A 
ATOM      7  C   UNL     1       2.343   4.976  19.648  0.00  0.00    +0.000 A 
ATOM      8  C   UNL     1       2.661   6.165  18.902  0.00  0.00    +0.000 A 
ATOM      9  C   UNL     1       2.226   7.457  18.764  0.00  0.00    +0.000 A 
ATOM     10  N   UNL     1       3.046   8.068  17.865  0.00  0.00    +0.000 NA
ATOM     11  C   UNL     1       3.948   7.121  17.493  0.00  0.00    +0.000 A 
ATOM     12  N   UNL     1       3.705   5.965  18.126  0.00  0.00    +0.000 N 
ENDROOT
BRANCH   1  13
ATOM     13  C   UNL     1       4.179   3.855  16.866  0.00  0.00    +0.000 C 
BRANCH  13  14
ATOM     14  C   UNL     1       5.562   3.628  16.196  0.00  0.00    +0.000 C 
BRANCH  14  15
ATOM     15  C   UNL     1       5.881   4.530  14.985  0.00  0.00    +0.000 C 
ATOM     16  C   UNL     1       7.138   5.364  14.876  0.00  0.00    +0.000 C 
ATOM     17  N   UNL     1       7.252   5.056  13.442  0.00  0.00    +0.000 NA
ATOM     18  C   UNL     1       6.300   3.954  13.649  0.00  0.00    +0.000 C 
ATOM     19  H   UNL     1       8.205   4.685  13.219  0.00  0.00    +0.000 HD
ENDBRANCH  14  15
BRANCH  14  20
ATOM     20  O   UNL     1       6.582   3.843  17.136  0.00  0.00    +0.000 OA
ATOM     21  H   UNL     1       6.146   4.048  18.000  0.00  0.00    +0.000 HD
ENDBRANCH  14  20
ENDBRANCH  13  14
ENDBRANCH   1  13
TORSDOF 4
ENDMDL
MODEL 9
REMARK VINA RESULT:      -6.8      2.193      3.751
REMARK  Name = 
REMARK  4 active torsions:
REMARK  status: ('A' for Active; 'I' for Inactive)
REMARK    1  A    between atoms: O_1  and  C_2
REMARK    2  A    between atoms: C_2  and  C_3
REMARK    3  A    between atoms: C_2  and  C_16
REMARK    4  A    between atoms: C_3  and  C_4
REMARK                            x       y       z     vdW  Elec       q    Type
REMARK                         _______ _______ _______ _____ _____    ______ ____
ROOT
ATOM      1  C   UNL     1       4.495   4.344  17.236  0.00  0.00    +0.000 C 
ATOM      2  C   UNL     1       5.255   4.392  15.916  0.00  0.00    +0.000 A 
ATOM      3  C   UNL     1       4.816   4.101  14.623  0.00  0.00    +0.000 A 
ATOM      4  C   UNL     1       5.737   4.193  13.564  0.00  0.00    +0.000 A 
ATOM      5  C   UNL     1       7.075   4.570  13.807  0.00  0.00    +0.000 A 
ATOM      6  C   UNL     1       7.505   4.872  15.110  0.00  0.00    +0.000 A 
ATOM      7  C   UNL     1       6.572   4.782  16.138  0.00  0.00    +0.000 A 
ATOM      8  C   UNL     1       6.680   5.030  17.552  0.00  0.00    +0.000 A 
ATOM      9  C   UNL     1       7.606   5.458  18.467  0.00  0.00    +0.000 A 
ATOM     10  N   UNL     1       6.992   5.489  19.682  0.00  0.00    +0.000 NA
ATOM     11  C   UNL     1       5.715   5.077  19.454  0.00  0.00    +0.000 A 
ATOM     12  N   UNL     1       5.535   4.798  18.157  0.00  0.00    +0.000 N 
ENDROOT
BRANCH   1  13
ATOM     13  C   UNL     1       3.967   2.927  17.601  0.00  0.00    +0.000 C 
BRANCH  13  14
ATOM     14  C   UNL     1       3.781   2.673  19.122  0.00  0.00    +0.000 C 
BRANCH  14  15
ATOM     15  C   UNL     1       2.341   2.356  19.582  0.00  0.00    +0.000 C 
ATOM     16  C   UNL     1       1.795   2.745  20.938  0.00  0.00    +0.000 C 
ATOM     17  N   UNL     1       0.493   3.088  20.346  0.00  0.00    +0.000 NA
ATOM     18  C   UNL     1       1.145   3.102  19.028  0.00  0.00    +0.000 C 
ATOM     19  H   UNL     1       0.203   4.054  20.627  0.00  0.00    +0.000 HD
ENDBRANCH  14  15
BRANCH  14  20
ATOM     20  O   UNL     1       4.576   1.587  19.519  0.00  0.00    +0.000 OA
ATOM     21  H   UNL     1       4.519   0.905  18.805  0.00  0.00    +0.000 HD
ENDBRANCH  14  20
ENDBRANCH  13  14
ENDBRANCH   1  13
TORSDOF 4
ENDMDL
