MODEL 1
REMARK VINA RESULT:      -6.2      0.000      0.000
REMARK  Name = 
REMARK  5 active torsions:
REMARK  status: ('A' for Active; 'I' for Inactive)
REMARK    1  A    between atoms: C_1  and  C_2
REMARK    2  A    between atoms: C_4  and  N_5
REMARK    3  A    between atoms: C_11  and  C_13
REMARK    4  A    between atoms: C_19  and  N_20
REMARK    5  A    between atoms: C_28  and  C_29
REMARK                            x       y       z     vdW  Elec       q    Type
REMARK                         _______ _______ _______ _____ _____    ______ ____
ROOT
ATOM      1  N   UNL     1      12.276  13.610  18.812  0.00  0.00    +0.000 N 
ATOM      2  C   UNL     1      12.333  13.153  17.436  0.00  0.00    +0.000 C 
ATOM      3  C   UNL     1      11.341  12.036  17.819  0.00  0.00    +0.000 C 
ATOM      4  C   UNL     1       9.862  12.371  17.561  0.00  0.00    +0.000 C 
ATOM      5  C   UNL     1       8.963  12.243  18.809  0.00  0.00    +0.000 C 
ATOM      6  N   UNL     1       9.626  12.675  20.048  0.00  0.00    +0.000 N 
ATOM      7  C   UNL     1       9.206  13.578  21.032  0.00  0.00    +0.000 C 
ATOM      8  O   UNL     1       9.946  13.948  21.945  0.00  0.00    +0.000 OA
ATOM      9  C   UNL     1      10.868  11.982  20.328  0.00  0.00    +0.000 C 
ATOM     10  C   UNL     1      11.877  12.276  19.242  0.00  0.00    +0.000 C 
ENDROOT
BRANCH   1  14
ATOM     11  C   UNL     1      11.570  17.326  21.993  0.00  0.00    +0.000 C 
ATOM     12  C   UNL     1      11.384  16.662  20.662  0.00  0.00    +0.000 A 
ATOM     13  C   UNL     1      11.907  15.406  20.406  0.00  0.00    +0.000 A 
ATOM     14  C   UNL     1      11.716  14.874  19.147  0.00  0.00    +0.000 A 
ATOM     15  N   UNL     1      11.119  15.603  18.180  0.00  0.00    +0.000 NA
ATOM     16  C   UNL     1      10.665  16.828  18.501  0.00  0.00    +0.000 A 
ATOM     17  C   UNL     1      10.103  17.677  17.406  0.00  0.00    +0.000 C 
ATOM     18  N   UNL     1      10.763  17.391  19.716  0.00  0.00    +0.000 NA
ENDBRANCH   1  14
BRANCH   7  19
ATOM     19  C   UNL     1       7.843  14.143  21.044  0.00  0.00    +0.000 A 
ATOM     20  C   UNL     1       7.506  15.103  20.102  0.00  0.00    +0.000 A 
ATOM     21  F   UNL     1       8.399  15.530  19.201  0.00  0.00    +0.000 F 
ATOM     22  C   UNL     1       6.248  15.697  20.083  0.00  0.00    +0.000 A 
ATOM     23  C   UNL     1       5.323  15.397  21.074  0.00  0.00    +0.000 A 
ATOM     24  C   UNL     1       5.689  14.550  22.117  0.00  0.00    +0.000 A 
ATOM     25  C   UNL     1       6.953  13.919  22.124  0.00  0.00    +0.000 A 
BRANCH  25  26
ATOM     26  N   UNL     1       7.285  13.176  23.294  0.00  0.00    +0.000 N 
ATOM     27  N   UNL     1       7.181  11.810  23.307  0.00  0.00    +0.000 NA
ATOM     28  C   UNL     1       7.231  11.540  24.613  0.00  0.00    +0.000 A 
ATOM     29  C   UNL     1       7.553  12.700  25.318  0.00  0.00    +0.000 A 
ATOM     30  N   UNL     1       7.726  13.717  24.465  0.00  0.00    +0.000 NA
ENDBRANCH  25  26
ENDBRANCH   7  19
TORSDOF 3
ENDMDL
MODEL 2
REMARK VINA RESULT:      -6.1      8.105     12.074
REMARK  Name = 
REMARK  5 active torsions:
REMARK  status: ('A' for Active; 'I' for Inactive)
REMARK    1  A    between atoms: C_1  and  C_2
REMARK    2  A    between atoms: C_4  and  N_5
REMARK    3  A    between atoms: C_11  and  C_13
REMARK    4  A    between atoms: C_19  and  N_20
REMARK    5  A    between atoms: C_28  and  C_29
REMARK                            x       y       z     vdW  Elec       q    Type
REMARK                         _______ _______ _______ _____ _____    ______ ____
ROOT
ATOM      1  N   UNL     1      -2.932  16.437  22.696  0.00  0.00    +0.000 N 
ATOM      2  C   UNL     1      -3.362  17.432  21.732  0.00  0.00    +0.000 C 
ATOM      3  C   UNL     1      -1.903  17.511  21.240  0.00  0.00    +0.000 C 
ATOM      4  C   UNL     1      -1.577  16.607  20.038  0.00  0.00    +0.000 C 
ATOM      5  C   UNL     1      -0.404  15.634  20.285  0.00  0.00    +0.000 C 
ATOM      6  N   UNL     1      -0.370  15.104  21.656  0.00  0.00    +0.000 N 
ATOM      7  C   UNL     1      -0.290  13.784  22.114  0.00  0.00    +0.000 C 
ATOM      8  O   UNL     1      -0.419  13.491  23.304  0.00  0.00    +0.000 OA
ATOM      9  C   UNL     1      -0.318  16.126  22.685  0.00  0.00    +0.000 C 
ATOM     10  C   UNL     1      -1.574  16.963  22.640  0.00  0.00    +0.000 C 
ENDROOT
BRANCH   1  14
ATOM     11  C   UNL     1      -4.466  12.254  24.835  0.00  0.00    +0.000 C 
ATOM     12  C   UNL     1      -4.132  13.088  23.635  0.00  0.00    +0.000 A 
ATOM     13  C   UNL     1      -3.644  14.377  23.770  0.00  0.00    +0.000 A 
ATOM     14  C   UNL     1      -3.384  15.090  22.617  0.00  0.00    +0.000 A 
ATOM     15  N   UNL     1      -3.687  14.570  21.409  0.00  0.00    +0.000 NA
ATOM     16  C   UNL     1      -4.187  13.321  21.365  0.00  0.00    +0.000 A 
ATOM     17  C   UNL     1      -4.623  12.787  20.038  0.00  0.00    +0.000 C 
ATOM     18  N   UNL     1      -4.414  12.546  22.436  0.00  0.00    +0.000 NA
ENDBRANCH   1  14
BRANCH   7  19
ATOM     19  C   UNL     1      -0.040  12.653  21.200  0.00  0.00    +0.000 A 
ATOM     20  C   UNL     1      -0.877  11.550  21.253  0.00  0.00    +0.000 A 
ATOM     21  F   UNL     1      -1.890  11.493  22.125  0.00  0.00    +0.000 F 
ATOM     22  C   UNL     1      -0.673  10.438  20.440  0.00  0.00    +0.000 A 
ATOM     23  C   UNL     1       0.439  10.380  19.611  0.00  0.00    +0.000 A 
ATOM     24  C   UNL     1       1.376  11.409  19.650  0.00  0.00    +0.000 A 
ATOM     25  C   UNL     1       1.157  12.554  20.448  0.00  0.00    +0.000 A 
BRANCH  25  26
ATOM     26  N   UNL     1       2.230  13.491  20.523  0.00  0.00    +0.000 N 
ATOM     27  N   UNL     1       2.613  14.203  19.417  0.00  0.00    +0.000 NA
ATOM     28  C   UNL     1       3.806  14.671  19.787  0.00  0.00    +0.000 A 
ATOM     29  C   UNL     1       4.015  14.399  21.141  0.00  0.00    +0.000 A 
ATOM     30  N   UNL     1       2.948  13.768  21.647  0.00  0.00    +0.000 NA
ENDBRANCH  25  26
ENDBRANCH   7  19
TORSDOF 3
ENDMDL
MODEL 3
REMARK VINA RESULT:      -6.1      6.634      9.072
REMARK  Name = 
REMARK  5 active torsions:
REMARK  status: ('A' for Active; 'I' for Inactive)
REMARK    1  A    between atoms: C_1  and  C_2
REMARK    2  A    between atoms: C_4  and  N_5
REMARK    3  A    between atoms: C_11  and  C_13
REMARK    4  A    between atoms: C_19  and  N_20
REMARK    5  A    between atoms: C_28  and  C_29
REMARK                            x       y       z     vdW  Elec       q    Type
REMARK                         _______ _______ _______ _____ _____    ______ ____
ROOT
ATOM      1  N   UNL     1       3.110  16.488  20.488  0.00  0.00    +0.000 N 
ATOM      2  C   UNL     1       4.000  16.944  19.436  0.00  0.00    +0.000 C 
ATOM      3  C   UNL     1       4.470  15.485  19.273  0.00  0.00    +0.000 C 
ATOM      4  C   UNL     1       3.729  14.685  18.187  0.00  0.00    +0.000 C 
ATOM      5  C   UNL     1       3.081  13.382  18.701  0.00  0.00    +0.000 C 
ATOM      6  N   UNL     1       2.523  13.506  20.056  0.00  0.00    +0.000 N 
ATOM      7  C   UNL     1       1.251  13.188  20.544  0.00  0.00    +0.000 C 
ATOM      8  O   UNL     1       0.887  13.490  21.682  0.00  0.00    +0.000 OA
ATOM      9  C   UNL     1       3.482  13.944  21.053  0.00  0.00    +0.000 C 
ATOM     10  C   UNL     1       3.970  15.334  20.720  0.00  0.00    +0.000 C 
ENDROOT
BRANCH   1  14
ATOM     11  C   UNL     1      -1.455  16.371  22.378  0.00  0.00    +0.000 C 
ATOM     12  C   UNL     1      -0.492  16.505  21.237  0.00  0.00    +0.000 A 
ATOM     13  C   UNL     1       0.874  16.386  21.433  0.00  0.00    +0.000 A 
ATOM     14  C   UNL     1       1.697  16.548  20.336  0.00  0.00    +0.000 A 
ATOM     15  N   UNL     1       1.181  16.901  19.140  0.00  0.00    +0.000 NA
ATOM     16  C   UNL     1      -0.156  17.027  19.040  0.00  0.00    +0.000 A 
ATOM     17  C   UNL     1      -0.718  17.524  17.747  0.00  0.00    +0.000 C 
ATOM     18  N   UNL     1      -1.023  16.831  20.045  0.00  0.00    +0.000 NA
ENDBRANCH   1  14
BRANCH   7  19
ATOM     19  C   UNL     1       0.259  12.462  19.726  0.00  0.00    +0.000 A 
ATOM     20  C   UNL     1      -0.333  13.113  18.656  0.00  0.00    +0.000 A 
ATOM     21  F   UNL     1      -0.031  14.384  18.367  0.00  0.00    +0.000 F 
ATOM     22  C   UNL     1      -1.299  12.494  17.868  0.00  0.00    +0.000 A 
ATOM     23  C   UNL     1      -1.755  11.224  18.198  0.00  0.00    +0.000 A 
ATOM     24  C   UNL     1      -1.285  10.609  19.356  0.00  0.00    +0.000 A 
ATOM     25  C   UNL     1      -0.281  11.219  20.140  0.00  0.00    +0.000 A 
BRANCH  25  26
ATOM     26  N   UNL     1       0.041  10.576  21.372  0.00  0.00    +0.000 N 
ATOM     27  N   UNL     1       1.169   9.807  21.484  0.00  0.00    +0.000 NA
ATOM     28  C   UNL     1       0.934   9.132  22.610  0.00  0.00    +0.000 A 
ATOM     29  C   UNL     1      -0.206   9.644  23.232  0.00  0.00    +0.000 A 
ATOM     30  N   UNL     1      -0.699  10.660  22.513  0.00  0.00    +0.000 NA
ENDBRANCH  25  26
ENDBRANCH   7  19
TORSDOF 3
ENDMDL
MODEL 4
REMARK VINA RESULT:      -6.0      2.062      4.559
REMARK  Name = 
REMARK  5 active torsions:
REMARK  status: ('A' for Active; 'I' for Inactive)
REMARK    1  A    between atoms: C_1  and  C_2
REMARK    2  A    between atoms: C_4  and  N_5
REMARK    3  A    between atoms: C_11  and  C_13
REMARK    4  A    between atoms: C_19  and  N_20
REMARK    5  A    between atoms: C_28  and  C_29
REMARK                            x       y       z     vdW  Elec       q    Type
REMARK                         _______ _______ _______ _____ _____    ______ ____
ROOT
ATOM      1  N   UNL     1      10.486  16.438  19.391  0.00  0.00    +0.000 N 
ATOM      2  C   UNL     1      11.759  16.919  19.894  0.00  0.00    +0.000 C 
ATOM      3  C   UNL     1      11.015  17.423  21.148  0.00  0.00    +0.000 C 
ATOM      4  C   UNL     1      11.012  16.442  22.333  0.00  0.00    +0.000 C 
ATOM      5  C   UNL     1       9.600  16.084  22.846  0.00  0.00    +0.000 C 
ATOM      6  N   UNL     1       8.604  15.968  21.771  0.00  0.00    +0.000 N 
ATOM      7  C   UNL     1       7.703  14.937  21.479  0.00  0.00    +0.000 C 
ATOM      8  O   UNL     1       7.029  14.925  20.448  0.00  0.00    +0.000 OA
ATOM      9  C   UNL     1       8.484  17.154  20.944  0.00  0.00    +0.000 C 
ATOM     10  C   UNL     1       9.786  17.410  20.222  0.00  0.00    +0.000 C 
ENDROOT
BRANCH   1  14
ATOM     11  C   UNL     1       7.913  12.708  17.419  0.00  0.00    +0.000 C 
ATOM     12  C   UNL     1       9.018  13.256  18.271  0.00  0.00    +0.000 A 
ATOM     13  C   UNL     1       9.182  14.620  18.444  0.00  0.00    +0.000 A 
ATOM     14  C   UNL     1      10.238  15.047  19.223  0.00  0.00    +0.000 A 
ATOM     15  N   UNL     1      11.127  14.158  19.716  0.00  0.00    +0.000 NA
ATOM     16  C   UNL     1      10.913  12.851  19.477  0.00  0.00    +0.000 A 
ATOM     17  C   UNL     1      11.953  11.877  19.929  0.00  0.00    +0.000 C 
ATOM     18  N   UNL     1       9.880  12.356  18.778  0.00  0.00    +0.000 NA
ENDBRANCH   1  14
BRANCH   7  19
ATOM     19  C   UNL     1       7.497  13.797  22.393  0.00  0.00    +0.000 A 
ATOM     20  C   UNL     1       8.493  12.842  22.510  0.00  0.00    +0.000 A 
ATOM     21  F   UNL     1       9.623  12.932  21.798  0.00  0.00    +0.000 F 
ATOM     22  C   UNL     1       8.344  11.727  23.330  0.00  0.00    +0.000 A 
ATOM     23  C   UNL     1       7.142  11.506  23.988  0.00  0.00    +0.000 A 
ATOM     24  C   UNL     1       6.073  12.371  23.769  0.00  0.00    +0.000 A 
ATOM     25  C   UNL     1       6.229  13.521  22.965  0.00  0.00    +0.000 A 
BRANCH  25  26
ATOM     26  N   UNL     1       5.048  14.273  22.695  0.00  0.00    +0.000 N 
ATOM     27  N   UNL     1       4.074  13.770  21.873  0.00  0.00    +0.000 NA
ATOM     28  C   UNL     1       3.350  14.858  21.603  0.00  0.00    +0.000 A 
ATOM     29  C   UNL     1       3.779  15.916  22.406  0.00  0.00    +0.000 A 
ATOM     30  N   UNL     1       4.772  15.506  23.205  0.00  0.00    +0.000 NA
ENDBRANCH  25  26
ENDBRANCH   7  19
TORSDOF 3
ENDMDL
MODEL 5
REMARK VINA RESULT:      -6.0      8.907     11.939
REMARK  Name = 
REMARK  5 active torsions:
REMARK  status: ('A' for Active; 'I' for Inactive)
REMARK    1  A    between atoms: C_1  and  C_2
REMARK    2  A    between atoms: C_4  and  N_5
REMARK    3  A    between atoms: C_11  and  C_13
REMARK    4  A    between atoms: C_19  and  N_20
REMARK    5  A    between atoms: C_28  and  C_29
REMARK                            x       y       z     vdW  Elec       q    Type
REMARK                         _______ _______ _______ _____ _____    ______ ____
ROOT
ATOM      1  N   UNL     1       1.900  12.875  20.634  0.00  0.00    +0.000 N 
ATOM      2  C   UNL     1       2.390  14.232  20.785  0.00  0.00    +0.000 C 
ATOM      3  C   UNL     1       1.862  14.527  19.367  0.00  0.00    +0.000 C 
ATOM      4  C   UNL     1       0.448  15.131  19.318  0.00  0.00    +0.000 C 
ATOM      5  C   UNL     1      -0.548  14.326  18.455  0.00  0.00    +0.000 C 
ATOM      6  N   UNL     1      -0.354  12.871  18.550  0.00  0.00    +0.000 N 
ATOM      7  C   UNL     1      -1.272  11.853  18.831  0.00  0.00    +0.000 C 
ATOM      8  O   UNL     1      -0.922  10.686  19.020  0.00  0.00    +0.000 OA
ATOM      9  C   UNL     1       0.984  12.429  18.206  0.00  0.00    +0.000 C 
ATOM     10  C   UNL     1       1.982  13.003  19.184  0.00  0.00    +0.000 C 
ENDROOT
BRANCH   1  14
ATOM     11  C   UNL     1      -0.582   9.138  22.707  0.00  0.00    +0.000 C 
ATOM     12  C   UNL     1      -0.348  10.595  22.446  0.00  0.00    +0.000 A 
ATOM     13  C   UNL     1       0.670  11.020  21.609  0.00  0.00    +0.000 A 
ATOM     14  C   UNL     1       0.837  12.380  21.440  0.00  0.00    +0.000 A 
ATOM     15  N   UNL     1       0.087  13.254  22.143  0.00  0.00    +0.000 NA
ATOM     16  C   UNL     1      -0.863  12.759  22.959  0.00  0.00    +0.000 A 
ATOM     17  C   UNL     1      -1.619  13.721  23.819  0.00  0.00    +0.000 C 
ATOM     18  N   UNL     1      -1.122  11.454  23.134  0.00  0.00    +0.000 NA
ENDBRANCH   1  14
BRANCH   7  19
ATOM     19  C   UNL     1      -2.723  12.108  18.913  0.00  0.00    +0.000 A 
ATOM     20  C   UNL     1      -3.253  12.588  20.100  0.00  0.00    +0.000 A 
ATOM     21  F   UNL     1      -2.475  12.805  21.166  0.00  0.00    +0.000 F 
ATOM     22  C   UNL     1      -4.618  12.817  20.250  0.00  0.00    +0.000 A 
ATOM     23  C   UNL     1      -5.495  12.482  19.226  0.00  0.00    +0.000 A 
ATOM     24  C   UNL     1      -5.004  11.859  18.082  0.00  0.00    +0.000 A 
ATOM     25  C   UNL     1      -3.617  11.655  17.910  0.00  0.00    +0.000 A 
BRANCH  25  26
ATOM     26  N   UNL     1      -3.223  10.895  16.770  0.00  0.00    +0.000 N 
ATOM     27  N   UNL     1      -3.016  11.506  15.561  0.00  0.00    +0.000 NA
ATOM     28  C   UNL     1      -3.015  10.469  14.723  0.00  0.00    +0.000 A 
ATOM     29  C   UNL     1      -3.022   9.278  15.452  0.00  0.00    +0.000 A 
ATOM     30  N   UNL     1      -3.013   9.549  16.763  0.00  0.00    +0.000 NA
ENDBRANCH  25  26
ENDBRANCH   7  19
TORSDOF 3
ENDMDL
MODEL 6
REMARK VINA RESULT:      -6.0     11.135     14.933
REMARK  Name = 
REMARK  5 active torsions:
REMARK  status: ('A' for Active; 'I' for Inactive)
REMARK    1  A    between atoms: C_1  and  C_2
REMARK    2  A    between atoms: C_4  and  N_5
REMARK    3  A    between atoms: C_11  and  C_13
REMARK    4  A    between atoms: C_19  and  N_20
REMARK    5  A    between atoms: C_28  and  C_29
REMARK                            x       y       z     vdW  Elec       q    Type
REMARK                         _______ _______ _______ _____ _____    ______ ____
ROOT
ATOM      1  N   UNL     1      -7.392  14.173  21.686  0.00  0.00    +0.000 N 
ATOM      2  C   UNL     1      -7.917  15.490  21.378  0.00  0.00    +0.000 C 
ATOM      3  C   UNL     1      -6.594  16.084  21.902  0.00  0.00    +0.000 C 
ATOM      4  C   UNL     1      -5.531  16.346  20.821  0.00  0.00    +0.000 C 
ATOM      5  C   UNL     1      -4.180  15.648  21.088  0.00  0.00    +0.000 C 
ATOM      6  N   UNL     1      -4.325  14.316  21.694  0.00  0.00    +0.000 N 
ATOM      7  C   UNL     1      -3.782  13.084  21.311  0.00  0.00    +0.000 C 
ATOM      8  O   UNL     1      -4.119  12.023  21.841  0.00  0.00    +0.000 OA
ATOM      9  C   UNL     1      -5.077  14.308  22.934  0.00  0.00    +0.000 C 
ATOM     10  C   UNL     1      -6.496  14.758  22.676  0.00  0.00    +0.000 C 
ENDROOT
BRANCH   1  14
ATOM     11  C   UNL     1      -7.217   9.533  19.994  0.00  0.00    +0.000 C 
ATOM     12  C   UNL     1      -7.037  11.013  19.836  0.00  0.00    +0.000 A 
ATOM     13  C   UNL     1      -7.274  11.881  20.889  0.00  0.00    +0.000 A 
ATOM     14  C   UNL     1      -7.111  13.232  20.657  0.00  0.00    +0.000 A 
ATOM     15  N   UNL     1      -6.821  13.683  19.418  0.00  0.00    +0.000 NA
ATOM     16  C   UNL     1      -6.636  12.775  18.442  0.00  0.00    +0.000 A 
ATOM     17  C   UNL     1      -6.423  13.277  17.049  0.00  0.00    +0.000 C 
ATOM     18  N   UNL     1      -6.722  11.446  18.602  0.00  0.00    +0.000 NA
ENDBRANCH   1  14
BRANCH   7  19
ATOM     19  C   UNL     1      -2.764  12.974  20.248  0.00  0.00    +0.000 A 
ATOM     20  C   UNL     1      -2.975  12.085  19.206  0.00  0.00    +0.000 A 
ATOM     21  F   UNL     1      -4.073  11.323  19.160  0.00  0.00    +0.000 F 
ATOM     22  C   UNL     1      -2.037  11.913  18.192  0.00  0.00    +0.000 A 
ATOM     23  C   UNL     1      -0.818  12.575  18.255  0.00  0.00    +0.000 A 
ATOM     24  C   UNL     1      -0.521  13.356  19.368  0.00  0.00    +0.000 A 
ATOM     25  C   UNL     1      -1.481  13.561  20.383  0.00  0.00    +0.000 A 
BRANCH  25  26
ATOM     26  N   UNL     1      -1.041  14.267  21.542  0.00  0.00    +0.000 N 
ATOM     27  N   UNL     1      -0.975  13.640  22.758  0.00  0.00    +0.000 NA
ATOM     28  C   UNL     1      -0.872  14.672  23.597  0.00  0.00    +0.000 A 
ATOM     29  C   UNL     1      -0.684  15.848  22.870  0.00  0.00    +0.000 A 
ATOM     30  N   UNL     1      -0.652  15.573  21.560  0.00  0.00    +0.000 NA
ENDBRANCH  25  26
ENDBRANCH   7  19
TORSDOF 3
ENDMDL
MODEL 7
REMARK VINA RESULT:      -5.9      9.863     13.394
REMARK  Name = 
REMARK  5 active torsions:
REMARK  status: ('A' for Active; 'I' for Inactive)
REMARK    1  A    between atoms: C_1  and  C_2
REMARK    2  A    between atoms: C_4  and  N_5
REMARK    3  A    between atoms: C_11  and  C_13
REMARK    4  A    between atoms: C_19  and  N_20
REMARK    5  A    between atoms: C_28  and  C_29
REMARK                            x       y       z     vdW  Elec       q    Type
REMARK                         _______ _______ _______ _____ _____    ______ ____
ROOT
ATOM      1  N   UNL     1      -2.560  15.590  23.660  0.00  0.00    +0.000 N 
ATOM      2  C   UNL     1      -2.064  16.926  23.389  0.00  0.00    +0.000 C 
ATOM      3  C   UNL     1      -0.932  16.284  22.562  0.00  0.00    +0.000 C 
ATOM      4  C   UNL     1      -1.218  16.173  21.054  0.00  0.00    +0.000 C 
ATOM      5  C   UNL     1      -1.102  14.738  20.498  0.00  0.00    +0.000 C 
ATOM      6  N   UNL     1      -1.589  13.713  21.433  0.00  0.00    +0.000 N 
ATOM      7  C   UNL     1      -2.509  12.675  21.240  0.00  0.00    +0.000 C 
ATOM      8  O   UNL     1      -2.926  11.983  22.171  0.00  0.00    +0.000 OA
ATOM      9  C   UNL     1      -0.939  13.736  22.729  0.00  0.00    +0.000 C 
ATOM     10  C   UNL     1      -1.228  15.045  23.425  0.00  0.00    +0.000 C 
ENDROOT
BRANCH   1  14
ATOM     11  C   UNL     1      -6.697  12.920  24.078  0.00  0.00    +0.000 C 
ATOM     12  C   UNL     1      -5.807  13.887  23.357  0.00  0.00    +0.000 A 
ATOM     13  C   UNL     1      -4.567  14.237  23.866  0.00  0.00    +0.000 A 
ATOM     14  C   UNL     1      -3.817  15.154  23.157  0.00  0.00    +0.000 A 
ATOM     15  N   UNL     1      -4.326  15.749  22.058  0.00  0.00    +0.000 NA
ATOM     16  C   UNL     1      -5.551  15.375  21.645  0.00  0.00    +0.000 A 
ATOM     17  C   UNL     1      -6.158  16.110  20.494  0.00  0.00    +0.000 C 
ATOM     18  N   UNL     1      -6.316  14.452  22.248  0.00  0.00    +0.000 NA
ENDBRANCH   1  14
BRANCH   7  19
ATOM     19  C   UNL     1      -3.036  12.336  19.904  0.00  0.00    +0.000 A 
ATOM     20  C   UNL     1      -4.407  12.346  19.702  0.00  0.00    +0.000 A 
ATOM     21  F   UNL     1      -5.250  12.641  20.698  0.00  0.00    +0.000 F 
ATOM     22  C   UNL     1      -4.967  12.003  18.474  0.00  0.00    +0.000 A 
ATOM     23  C   UNL     1      -4.154  11.557  17.441  0.00  0.00    +0.000 A 
ATOM     24  C   UNL     1      -2.789  11.395  17.666  0.00  0.00    +0.000 A 
ATOM     25  C   UNL     1      -2.211  11.772  18.899  0.00  0.00    +0.000 A 
BRANCH  25  26
ATOM     26  N   UNL     1      -0.835  11.448  19.081  0.00  0.00    +0.000 N 
ATOM     27  N   UNL     1      -0.468  10.271  19.677  0.00  0.00    +0.000 NA
ATOM     28  C   UNL     1       0.814  10.495  19.969  0.00  0.00    +0.000 A 
ATOM     29  C   UNL     1       1.225  11.692  19.380  0.00  0.00    +0.000 A 
ATOM     30  N   UNL     1       0.210  12.233  18.694  0.00  0.00    +0.000 NA
ENDBRANCH  25  26
ENDBRANCH   7  19
TORSDOF 3
ENDMDL
MODEL 8
REMARK VINA RESULT:      -5.8      8.479     11.091
REMARK  Name = 
REMARK  5 active torsions:
REMARK  status: ('A' for Active; 'I' for Inactive)
REMARK    1  A    between atoms: C_1  and  C_2
REMARK    2  A    between atoms: C_4  and  N_5
REMARK    3  A    between atoms: C_11  and  C_13
REMARK    4  A    between atoms: C_19  and  N_20
REMARK    5  A    between atoms: C_28  and  C_29
REMARK                            x       y       z     vdW  Elec       q    Type
REMARK                         _______ _______ _______ _____ _____    ______ ____
ROOT
ATOM      1  N   UNL     1       0.613  15.248  22.023  0.00  0.00    +0.000 N 
ATOM      2  C   UNL     1       0.662  16.610  21.526  0.00  0.00    +0.000 C 
ATOM      3  C   UNL     1       1.494  16.091  20.335  0.00  0.00    +0.000 C 
ATOM      4  C   UNL     1       0.676  15.749  19.078  0.00  0.00    +0.000 C 
ATOM      5  C   UNL     1       0.875  14.302  18.576  0.00  0.00    +0.000 C 
ATOM      6  N   UNL     1       1.024  13.326  19.665  0.00  0.00    +0.000 N 
ATOM      7  C   UNL     1       0.350  12.122  19.899  0.00  0.00    +0.000 C 
ATOM      8  O   UNL     1       0.488  11.483  20.944  0.00  0.00    +0.000 OA
ATOM      9  C   UNL     1       2.105  13.625  20.585  0.00  0.00    +0.000 C 
ATOM     10  C   UNL     1       1.832  14.933  21.290  0.00  0.00    +0.000 C 
ENDROOT
BRANCH   1  14
ATOM     11  C   UNL     1      -2.064  11.383  23.546  0.00  0.00    +0.000 C 
ATOM     12  C   UNL     1      -1.905  12.689  22.826  0.00  0.00    +0.000 A 
ATOM     13  C   UNL     1      -0.674  13.319  22.747  0.00  0.00    +0.000 A 
ATOM     14  C   UNL     1      -0.614  14.531  22.089  0.00  0.00    +0.000 A 
ATOM     15  N   UNL     1      -1.740  15.114  21.626  0.00  0.00    +0.000 NA
ATOM     16  C   UNL     1      -2.901  14.450  21.770  0.00  0.00    +0.000 A 
ATOM     17  C   UNL     1      -4.160  15.142  21.356  0.00  0.00    +0.000 C 
ATOM     18  N   UNL     1      -3.032  13.245  22.346  0.00  0.00    +0.000 NA
ENDBRANCH   1  14
BRANCH   7  19
ATOM     19  C   UNL     1      -0.568  11.533  18.905  0.00  0.00    +0.000 A 
ATOM     20  C   UNL     1      -1.848  12.050  18.785  0.00  0.00    +0.000 A 
ATOM     21  F   UNL     1      -2.262  13.057  19.563  0.00  0.00    +0.000 F 
ATOM     22  C   UNL     1      -2.770  11.517  17.889  0.00  0.00    +0.000 A 
ATOM     23  C   UNL     1      -2.447  10.386  17.151  0.00  0.00    +0.000 A 
ATOM     24  C   UNL     1      -1.222   9.758  17.364  0.00  0.00    +0.000 A 
ATOM     25  C   UNL     1      -0.270  10.314  18.246  0.00  0.00    +0.000 A 
BRANCH  25  26
ATOM     26  N   UNL     1       0.897   9.533  18.496  0.00  0.00    +0.000 N 
ATOM     27  N   UNL     1       1.931   9.516  17.598  0.00  0.00    +0.000 NA
ATOM     28  C   UNL     1       2.629   8.452  17.999  0.00  0.00    +0.000 A 
ATOM     29  C   UNL     1       2.119   7.988  19.213  0.00  0.00    +0.000 A 
ATOM     30  N   UNL     1       1.100   8.763  19.603  0.00  0.00    +0.000 NA
ENDBRANCH  25  26
ENDBRANCH   7  19
TORSDOF 3
ENDMDL
MODEL 9
REMARK VINA RESULT:      -5.8      2.164      4.634
REMARK  Name = 
REMARK  5 active torsions:
REMARK  status: ('A' for Active; 'I' for Inactive)
REMARK    1  A    between atoms: C_1  and  C_2
REMARK    2  A    between atoms: C_4  and  N_5
REMARK    3  A    between atoms: C_11  and  C_13
REMARK    4  A    between atoms: C_19  and  N_20
REMARK    5  A    between atoms: C_28  and  C_29
REMARK                            x       y       z     vdW  Elec       q    Type
REMARK                         _______ _______ _______ _____ _____    ______ ____
ROOT
ATOM      1  N   UNL     1      10.095  15.331  17.389  0.00  0.00    +0.000 N 
ATOM      2  C   UNL     1      11.313  16.113  17.299  0.00  0.00    +0.000 C 
ATOM      3  C   UNL     1      10.695  17.099  18.310  0.00  0.00    +0.000 C 
ATOM      4  C   UNL     1      11.069  16.837  19.779  0.00  0.00    +0.000 C 
ATOM      5  C   UNL     1       9.853  16.652  20.712  0.00  0.00    +0.000 C 
ATOM      6  N   UNL     1       8.741  15.928  20.079  0.00  0.00    +0.000 N 
ATOM      7  C   UNL     1       8.021  14.811  20.518  0.00  0.00    +0.000 C 
ATOM      8  O   UNL     1       7.207  14.228  19.799  0.00  0.00    +0.000 OA
ATOM      9  C   UNL     1       8.264  16.533  18.850  0.00  0.00    +0.000 C 
ATOM     10  C   UNL     1       9.361  16.517  17.811  0.00  0.00    +0.000 C 
ENDROOT
BRANCH   1  14
ATOM     11  C   UNL     1       8.243  10.760  17.716  0.00  0.00    +0.000 C 
ATOM     12  C   UNL     1       9.223  11.828  18.100  0.00  0.00    +0.000 A 
ATOM     13  C   UNL     1       9.143  13.102  17.564  0.00  0.00    +0.000 A 
ATOM     14  C   UNL     1      10.097  14.023  17.948  0.00  0.00    +0.000 A 
ATOM     15  N   UNL     1      11.121  13.653  18.746  0.00  0.00    +0.000 NA
ATOM     16  C   UNL     1      11.143  12.386  19.201  0.00  0.00    +0.000 A 
ATOM     17  C   UNL     1      12.332  11.947  19.994  0.00  0.00    +0.000 C 
ATOM     18  N   UNL     1      10.223  11.452  18.918  0.00  0.00    +0.000 NA
ENDBRANCH   1  14
BRANCH   7  19
ATOM     19  C   UNL     1       8.187  14.258  21.876  0.00  0.00    +0.000 A 
ATOM     20  C   UNL     1       8.509  12.918  22.020  0.00  0.00    +0.000 A 
ATOM     21  F   UNL     1       8.654  12.123  20.953  0.00  0.00    +0.000 F 
ATOM     22  C   UNL     1       8.646  12.331  23.275  0.00  0.00    +0.000 A 
ATOM     23  C   UNL     1       8.374  13.068  24.420  0.00  0.00    +0.000 A 
ATOM     24  C   UNL     1       7.904  14.373  24.297  0.00  0.00    +0.000 A 
ATOM     25  C   UNL     1       7.795  14.984  23.028  0.00  0.00    +0.000 A 
BRANCH  25  26
ATOM     26  N   UNL     1       7.182  16.272  22.994  0.00  0.00    +0.000 N 
ATOM     27  N   UNL     1       7.812  17.359  23.540  0.00  0.00    +0.000 NA
ATOM     28  C   UNL     1       6.817  18.244  23.622  0.00  0.00    +0.000 A 
ATOM     29  C   UNL     1       5.694  17.746  22.959  0.00  0.00    +0.000 A 
ATOM     30  N   UNL     1       5.970  16.545  22.436  0.00  0.00    +0.000 NA
ENDBRANCH  25  26
ENDBRANCH   7  19
TORSDOF 3
ENDMDL
