MODEL 1
REMARK VINA RESULT:      -8.4      0.000      0.000
REMARK  Name = 
REMARK  4 active torsions:
REMARK  status: ('A' for Active; 'I' for Inactive)
REMARK    1  A    between atoms: C_2  and  C_12
REMARK    2  A    between atoms: N_3  and  N_4
REMARK    3  A    between atoms: C_5  and  C_6
REMARK    4  A    between atoms: C_14  and  C_15
REMARK                            x       y       z     vdW  Elec       q    Type
REMARK                         _______ _______ _______ _____ _____    ______ ____
ROOT
ATOM      1  C   UNL     1       7.509   7.174  17.530  0.00  0.00    +0.000 A 
ATOM      2  C   UNL     1       7.814   8.549  17.371  0.00  0.00    +0.000 A 
ATOM      3  C   UNL     1       8.511   8.923  18.500  0.00  0.00    +0.000 A 
ATOM      4  N   UNL     1       8.684   7.754  19.197  0.00  0.00    +0.000 N 
ATOM      5  N   UNL     1       8.051   6.686  18.667  0.00  0.00    +0.000 NA
ATOM      6  H   UNL     1       9.231   7.617  20.039  0.00  0.00    +0.000 HD
ENDROOT
BRANCH   3   7
ATOM      7  C   UNL     1       9.087  10.207  18.888  0.00  0.00    +0.000 A 
ATOM      8  C   UNL     1       9.341  10.518  20.246  0.00  0.00    +0.000 A 
ATOM      9  C   UNL     1      10.070  11.659  20.602  0.00  0.00    +0.000 A 
ATOM     10  C   UNL     1      10.552  12.440  19.579  0.00  0.00    +0.000 A 
ATOM     11  C   UNL     1      10.234  12.192  18.263  0.00  0.00    +0.000 A 
ATOM     12  C   UNL     1       9.475  11.110  17.887  0.00  0.00    +0.000 A 
ATOM     13  O   UNL     1      10.867  13.048  17.412  0.00  0.00    +0.000 OA
ATOM     14  C   UNL     1      11.871  13.546  18.316  0.00  0.00    +0.000 C 
ATOM     15  O   UNL     1      11.453  13.456  19.694  0.00  0.00    +0.000 OA
ENDBRANCH   3   7
BRANCH   1  17
ATOM     16  O   UNL     1       5.476   6.518  16.542  0.00  0.00    +0.000 OA
ATOM     17  C   UNL     1       6.698   6.372  16.612  0.00  0.00    +0.000 C 
ATOM     18  N   UNL     1       7.439   5.451  15.891  0.00  0.00    +0.000 N 
ATOM     19  H   UNL     1       8.441   5.411  16.051  0.00  0.00    +0.000 HD
BRANCH  18  20
ATOM     20  N   UNL     1       6.800   4.585  15.065  0.00  0.00    +0.000 NA
ATOM     21  C   UNL     1       6.965   4.754  13.796  0.00  0.00    +0.000 C 
BRANCH  21  22
ATOM     22  C   UNL     1       6.304   3.849  12.833  0.00  0.00    +0.000 A 
ATOM     23  C   UNL     1       4.932   3.962  12.587  0.00  0.00    +0.000 A 
ATOM     24  C   UNL     1       4.317   3.114  11.667  0.00  0.00    +0.000 A 
ATOM     25  C   UNL     1       5.076   2.159  10.990  0.00  0.00    +0.000 A 
ATOM     26  C   UNL     1       6.446   2.046  11.237  0.00  0.00    +0.000 A 
ATOM     27  C   UNL     1       7.065   2.892  12.161  0.00  0.00    +0.000 A 
ENDBRANCH  21  22
ENDBRANCH  18  20
ENDBRANCH   1  17
TORSDOF 4
ENDMDL
MODEL 2
REMARK VINA RESULT:      -8.3      0.342      1.026
REMARK  Name = 
REMARK  4 active torsions:
REMARK  status: ('A' for Active; 'I' for Inactive)
REMARK    1  A    between atoms: C_2  and  C_12
REMARK    2  A    between atoms: N_3  and  N_4
REMARK    3  A    between atoms: C_5  and  C_6
REMARK    4  A    between atoms: C_14  and  C_15
REMARK                            x       y       z     vdW  Elec       q    Type
REMARK                         _______ _______ _______ _____ _____    ______ ____
ROOT
ATOM      1  C   UNL     1       7.396   7.047  17.679  0.00  0.00    +0.000 A 
ATOM      2  C   UNL     1       7.690   8.417  17.465  0.00  0.00    +0.000 A 
ATOM      3  C   UNL     1       8.478   8.813  18.525  0.00  0.00    +0.000 A 
ATOM      4  N   UNL     1       8.704   7.660  19.232  0.00  0.00    +0.000 N 
ATOM      5  N   UNL     1       8.027   6.583  18.780  0.00  0.00    +0.000 NA
ATOM      6  H   UNL     1       9.318   7.539  20.030  0.00  0.00    +0.000 HD
ENDROOT
BRANCH   3   7
ATOM      7  C   UNL     1       9.087  10.103  18.836  0.00  0.00    +0.000 A 
ATOM      8  C   UNL     1       9.407  10.463  20.167  0.00  0.00    +0.000 A 
ATOM      9  C   UNL     1      10.166  11.606  20.445  0.00  0.00    +0.000 A 
ATOM     10  C   UNL     1      10.610  12.341  19.371  0.00  0.00    +0.000 A 
ATOM     11  C   UNL     1      10.229  12.047  18.081  0.00  0.00    +0.000 A 
ATOM     12  C   UNL     1       9.440  10.961  17.783  0.00  0.00    +0.000 A 
ATOM     13  O   UNL     1      10.832  12.859  17.170  0.00  0.00    +0.000 OA
ATOM     14  C   UNL     1      11.883  13.378  18.007  0.00  0.00    +0.000 C 
ATOM     15  O   UNL     1      11.528  13.347  19.404  0.00  0.00    +0.000 OA
ENDBRANCH   3   7
BRANCH   1  17
ATOM     16  O   UNL     1       5.420   5.835  17.269  0.00  0.00    +0.000 OA
ATOM     17  C   UNL     1       6.510   6.229  16.849  0.00  0.00    +0.000 C 
ATOM     18  N   UNL     1       7.042   5.941  15.604  0.00  0.00    +0.000 N 
ATOM     19  H   UNL     1       7.963   6.307  15.378  0.00  0.00    +0.000 HD
BRANCH  18  20
ATOM     20  N   UNL     1       6.363   5.120  14.765  0.00  0.00    +0.000 NA
ATOM     21  C   UNL     1       6.996   4.689  13.725  0.00  0.00    +0.000 C 
BRANCH  21  22
ATOM     22  C   UNL     1       6.324   3.788  12.765  0.00  0.00    +0.000 A 
ATOM     23  C   UNL     1       7.034   2.746  12.160  0.00  0.00    +0.000 A 
ATOM     24  C   UNL     1       6.389   1.892  11.266  0.00  0.00    +0.000 A 
ATOM     25  C   UNL     1       5.035   2.077  10.984  0.00  0.00    +0.000 A 
ATOM     26  C   UNL     1       4.327   3.118  11.589  0.00  0.00    +0.000 A 
ATOM     27  C   UNL     1       4.971   3.979  12.482  0.00  0.00    +0.000 A 
ENDBRANCH  21  22
ENDBRANCH  18  20
ENDBRANCH   1  17
TORSDOF 4
ENDMDL
MODEL 3
REMARK VINA RESULT:      -8.2      3.825     10.301
REMARK  Name = 
REMARK  4 active torsions:
REMARK  status: ('A' for Active; 'I' for Inactive)
REMARK    1  A    between atoms: C_2  and  C_12
REMARK    2  A    between atoms: N_3  and  N_4
REMARK    3  A    between atoms: C_5  and  C_6
REMARK    4  A    between atoms: C_14  and  C_15
REMARK                            x       y       z     vdW  Elec       q    Type
REMARK                         _______ _______ _______ _____ _____    ______ ____
ROOT
ATOM      1  C   UNL     1       6.638   6.892  17.585  0.00  0.00    +0.000 A 
ATOM      2  C   UNL     1       5.814   5.996  18.310  0.00  0.00    +0.000 A 
ATOM      3  C   UNL     1       4.763   5.677  17.477  0.00  0.00    +0.000 A 
ATOM      4  N   UNL     1       5.072   6.289  16.289  0.00  0.00    +0.000 N 
ATOM      5  N   UNL     1       6.171   7.072  16.331  0.00  0.00    +0.000 NA
ATOM      6  H   UNL     1       4.577   6.206  15.408  0.00  0.00    +0.000 HD
ENDROOT
BRANCH   3   7
ATOM      7  C   UNL     1       3.616   4.796  17.676  0.00  0.00    +0.000 A 
ATOM      8  C   UNL     1       3.513   3.558  16.997  0.00  0.00    +0.000 A 
ATOM      9  C   UNL     1       2.521   2.629  17.332  0.00  0.00    +0.000 A 
ATOM     10  C   UNL     1       1.676   2.960  18.366  0.00  0.00    +0.000 A 
ATOM     11  C   UNL     1       1.714   4.196  18.969  0.00  0.00    +0.000 A 
ATOM     12  C   UNL     1       2.643   5.148  18.624  0.00  0.00    +0.000 A 
ATOM     13  O   UNL     1       0.837   4.287  20.008  0.00  0.00    +0.000 OA
ATOM     14  C   UNL     1       0.579   2.883  20.195  0.00  0.00    +0.000 C 
ATOM     15  O   UNL     1       0.796   2.126  18.988  0.00  0.00    +0.000 OA
ENDBRANCH   3   7
BRANCH   1  17
ATOM     16  O   UNL     1       8.589   7.002  18.899  0.00  0.00    +0.000 OA
ATOM     17  C   UNL     1       7.827   7.566  18.110  0.00  0.00    +0.000 C 
ATOM     18  N   UNL     1       7.963   8.866  17.653  0.00  0.00    +0.000 N 
ATOM     19  H   UNL     1       7.258   9.228  17.018  0.00  0.00    +0.000 HD
BRANCH  18  20
ATOM     20  N   UNL     1       8.976   9.634  18.127  0.00  0.00    +0.000 NA
ATOM     21  C   UNL     1       8.746  10.899  18.247  0.00  0.00    +0.000 C 
BRANCH  21  22
ATOM     22  C   UNL     1       9.799  11.801  18.759  0.00  0.00    +0.000 A 
ATOM     23  C   UNL     1      11.137  11.593  18.408  0.00  0.00    +0.000 A 
ATOM     24  C   UNL     1      12.124  12.455  18.883  0.00  0.00    +0.000 A 
ATOM     25  C   UNL     1      11.771  13.528  19.703  0.00  0.00    +0.000 A 
ATOM     26  C   UNL     1      10.435  13.734  20.054  0.00  0.00    +0.000 A 
ATOM     27  C   UNL     1       9.443  12.869  19.582  0.00  0.00    +0.000 A 
ENDBRANCH  21  22
ENDBRANCH  18  20
ENDBRANCH   1  17
TORSDOF 4
ENDMDL
MODEL 4
REMARK VINA RESULT:      -8.1      3.858     10.071
REMARK  Name = 
REMARK  4 active torsions:
REMARK  status: ('A' for Active; 'I' for Inactive)
REMARK    1  A    between atoms: C_2  and  C_12
REMARK    2  A    between atoms: N_3  and  N_4
REMARK    3  A    between atoms: C_5  and  C_6
REMARK    4  A    between atoms: C_14  and  C_15
REMARK                            x       y       z     vdW  Elec       q    Type
REMARK                         _______ _______ _______ _____ _____    ______ ____
ROOT
ATOM      1  C   UNL     1       7.126   6.237  18.123  0.00  0.00    +0.000 A 
ATOM      2  C   UNL     1       5.729   6.133  17.904  0.00  0.00    +0.000 A 
ATOM      3  C   UNL     1       5.388   4.831  18.199  0.00  0.00    +0.000 A 
ATOM      4  N   UNL     1       6.546   4.275  18.680  0.00  0.00    +0.000 N 
ATOM      5  N   UNL     1       7.628   5.079  18.602  0.00  0.00    +0.000 NA
ATOM      6  H   UNL     1       6.664   3.352  19.083  0.00  0.00    +0.000 HD
ENDROOT
BRANCH   3   7
ATOM      7  C   UNL     1       4.098   4.148  18.167  0.00  0.00    +0.000 A 
ATOM      8  C   UNL     1       3.928   2.930  17.464  0.00  0.00    +0.000 A 
ATOM      9  C   UNL     1       2.755   2.178  17.595  0.00  0.00    +0.000 A 
ATOM     10  C   UNL     1       1.794   2.657  18.455  0.00  0.00    +0.000 A 
ATOM     11  C   UNL     1       1.916   3.882  19.071  0.00  0.00    +0.000 A 
ATOM     12  C   UNL     1       3.033   4.668  18.919  0.00  0.00    +0.000 A 
ATOM     13  O   UNL     1       0.885   4.130  19.926  0.00  0.00    +0.000 OA
ATOM     14  C   UNL     1       0.375   2.789  20.044  0.00  0.00    +0.000 C 
ATOM     15  O   UNL     1       0.691   1.985  18.889  0.00  0.00    +0.000 OA
ENDBRANCH   3   7
BRANCH   1  17
ATOM     16  O   UNL     1       8.165   7.795  16.696  0.00  0.00    +0.000 OA
ATOM     17  C   UNL     1       7.942   7.422  17.849  0.00  0.00    +0.000 C 
ATOM     18  N   UNL     1       8.435   8.020  18.996  0.00  0.00    +0.000 N 
ATOM     19  H   UNL     1       8.199   7.607  19.894  0.00  0.00    +0.000 HD
BRANCH  18  20
ATOM     20  N   UNL     1       9.278   9.078  18.884  0.00  0.00    +0.000 NA
ATOM     21  C   UNL     1       8.758  10.208  18.540  0.00  0.00    +0.000 C 
BRANCH  21  22
ATOM     22  C   UNL     1       9.610  11.407  18.399  0.00  0.00    +0.000 A 
ATOM     23  C   UNL     1      10.942  11.378  18.825  0.00  0.00    +0.000 A 
ATOM     24  C   UNL     1      11.746  12.509  18.677  0.00  0.00    +0.000 A 
ATOM     25  C   UNL     1      11.218  13.663  18.097  0.00  0.00    +0.000 A 
ATOM     26  C   UNL     1       9.887  13.690  17.673  0.00  0.00    +0.000 A 
ATOM     27  C   UNL     1       9.078  12.561  17.823  0.00  0.00    +0.000 A 
ENDBRANCH  21  22
ENDBRANCH  18  20
ENDBRANCH   1  17
TORSDOF 4
ENDMDL
MODEL 5
REMARK VINA RESULT:      -8.0      4.111     10.199
REMARK  Name = 
REMARK  4 active torsions:
REMARK  status: ('A' for Active; 'I' for Inactive)
REMARK    1  A    between atoms: C_2  and  C_12
REMARK    2  A    between atoms: N_3  and  N_4
REMARK    3  A    between atoms: C_5  and  C_6
REMARK    4  A    between atoms: C_14  and  C_15
REMARK                            x       y       z     vdW  Elec       q    Type
REMARK                         _______ _______ _______ _____ _____    ______ ____
ROOT
ATOM      1  C   UNL     1       7.289   6.531  18.452  0.00  0.00    +0.000 A 
ATOM      2  C   UNL     1       5.985   6.087  18.115  0.00  0.00    +0.000 A 
ATOM      3  C   UNL     1       5.846   4.837  18.678  0.00  0.00    +0.000 A 
ATOM      4  N   UNL     1       6.998   4.658  19.401  0.00  0.00    +0.000 N 
ATOM      5  N   UNL     1       7.914   5.638  19.249  0.00  0.00    +0.000 NA
ATOM      6  H   UNL     1       7.218   3.890  20.026  0.00  0.00    +0.000 HD
ENDROOT
BRANCH   3   7
ATOM      7  C   UNL     1       4.723   3.904  18.673  0.00  0.00    +0.000 A 
ATOM      8  C   UNL     1       4.723   2.749  19.493  0.00  0.00    +0.000 A 
ATOM      9  C   UNL     1       3.573   1.965  19.637  0.00  0.00    +0.000 A 
ATOM     10  C   UNL     1       2.442   2.382  18.974  0.00  0.00    +0.000 A 
ATOM     11  C   UNL     1       2.460   3.451  18.107  0.00  0.00    +0.000 A 
ATOM     12  C   UNL     1       3.589   4.207  17.905  0.00  0.00    +0.000 A 
ATOM     13  O   UNL     1       1.222   3.729  17.611  0.00  0.00    +0.000 OA
ATOM     14  C   UNL     1       0.436   2.987  18.562  0.00  0.00    +0.000 C 
ATOM     15  O   UNL     1       1.180   1.898  19.147  0.00  0.00    +0.000 OA
ENDBRANCH   3   7
BRANCH   1  17
ATOM     16  O   UNL     1       7.813   8.142  16.817  0.00  0.00    +0.000 OA
ATOM     17  C   UNL     1       7.908   7.775  17.990  0.00  0.00    +0.000 C 
ATOM     18  N   UNL     1       8.608   8.437  18.984  0.00  0.00    +0.000 N 
ATOM     19  H   UNL     1       8.632   8.024  19.912  0.00  0.00    +0.000 HD
BRANCH  18  20
ATOM     20  N   UNL     1       9.302   9.561  18.673  0.00  0.00    +0.000 NA
ATOM     21  C   UNL     1       9.385  10.471  19.585  0.00  0.00    +0.000 C 
BRANCH  21  22
ATOM     22  C   UNL     1      10.126  11.722  19.321  0.00  0.00    +0.000 A 
ATOM     23  C   UNL     1       9.450  12.860  18.869  0.00  0.00    +0.000 A 
ATOM     24  C   UNL     1      10.154  14.042  18.636  0.00  0.00    +0.000 A 
ATOM     25  C   UNL     1      11.530  14.084  18.860  0.00  0.00    +0.000 A 
ATOM     26  C   UNL     1      12.204  12.946  19.311  0.00  0.00    +0.000 A 
ATOM     27  C   UNL     1      11.503  11.760  19.542  0.00  0.00    +0.000 A 
ENDBRANCH  21  22
ENDBRANCH  18  20
ENDBRANCH   1  17
TORSDOF 4
ENDMDL
MODEL 6
REMARK VINA RESULT:      -7.9      3.622      4.339
REMARK  Name = 
REMARK  4 active torsions:
REMARK  status: ('A' for Active; 'I' for Inactive)
REMARK    1  A    between atoms: C_2  and  C_12
REMARK    2  A    between atoms: N_3  and  N_4
REMARK    3  A    between atoms: C_5  and  C_6
REMARK    4  A    between atoms: C_14  and  C_15
REMARK                            x       y       z     vdW  Elec       q    Type
REMARK                         _______ _______ _______ _____ _____    ______ ____
ROOT
ATOM      1  C   UNL     1       7.626   7.894  17.988  0.00  0.00    +0.000 A 
ATOM      2  C   UNL     1       7.750   9.202  17.455  0.00  0.00    +0.000 A 
ATOM      3  C   UNL     1       8.737   9.826  18.187  0.00  0.00    +0.000 A 
ATOM      4  N   UNL     1       9.219   8.845  19.015  0.00  0.00    +0.000 N 
ATOM      5  N   UNL     1       8.540   7.679  18.959  0.00  0.00    +0.000 NA
ATOM      6  H   UNL     1      10.016   8.905  19.640  0.00  0.00    +0.000 HD
ENDROOT
BRANCH   3   7
ATOM      7  C   UNL     1       9.299  11.170  18.087  0.00  0.00    +0.000 A 
ATOM      8  C   UNL     1       8.491  12.281  17.743  0.00  0.00    +0.000 A 
ATOM      9  C   UNL     1       8.981  13.588  17.839  0.00  0.00    +0.000 A 
ATOM     10  C   UNL     1      10.264  13.745  18.309  0.00  0.00    +0.000 A 
ATOM     11  C   UNL     1      11.083  12.668  18.560  0.00  0.00    +0.000 A 
ATOM     12  C   UNL     1      10.646  11.371  18.423  0.00  0.00    +0.000 A 
ATOM     13  O   UNL     1      12.285  13.046  19.077  0.00  0.00    +0.000 OA
ATOM     14  C   UNL     1      11.938  14.389  19.466  0.00  0.00    +0.000 C 
ATOM     15  O   UNL     1      10.851  14.917  18.680  0.00  0.00    +0.000 OA
ENDBRANCH   3   7
BRANCH   1  17
ATOM     16  O   UNL     1       6.158   6.901  16.440  0.00  0.00    +0.000 OA
ATOM     17  C   UNL     1       6.633   6.900  17.577  0.00  0.00    +0.000 C 
ATOM     18  N   UNL     1       6.291   6.021  18.590  0.00  0.00    +0.000 N 
ATOM     19  H   UNL     1       6.738   6.133  19.495  0.00  0.00    +0.000 HD
BRANCH  18  20
ATOM     20  N   UNL     1       5.318   5.101  18.370  0.00  0.00    +0.000 NA
ATOM     21  C   UNL     1       4.296   5.128  19.158  0.00  0.00    +0.000 C 
BRANCH  21  22
ATOM     22  C   UNL     1       3.194   4.159  18.980  0.00  0.00    +0.000 A 
ATOM     23  C   UNL     1       2.065   4.217  19.804  0.00  0.00    +0.000 A 
ATOM     24  C   UNL     1       1.023   3.308  19.622  0.00  0.00    +0.000 A 
ATOM     25  C   UNL     1       1.109   2.348  18.613  0.00  0.00    +0.000 A 
ATOM     26  C   UNL     1       2.238   2.291  17.792  0.00  0.00    +0.000 A 
ATOM     27  C   UNL     1       3.286   3.198  17.974  0.00  0.00    +0.000 A 
ENDBRANCH  21  22
ENDBRANCH  18  20
ENDBRANCH   1  17
TORSDOF 4
ENDMDL
MODEL 7
REMARK VINA RESULT:      -7.9      8.095     11.754
REMARK  Name = 
REMARK  4 active torsions:
REMARK  status: ('A' for Active; 'I' for Inactive)
REMARK    1  A    between atoms: C_2  and  C_12
REMARK    2  A    between atoms: N_3  and  N_4
REMARK    3  A    between atoms: C_5  and  C_6
REMARK    4  A    between atoms: C_14  and  C_15
REMARK                            x       y       z     vdW  Elec       q    Type
REMARK                         _______ _______ _______ _____ _____    ______ ____
ROOT
ATOM      1  C   UNL     1       1.274   8.809  19.742  0.00  0.00    +0.000 A 
ATOM      2  C   UNL     1       2.087   7.648  19.768  0.00  0.00    +0.000 A 
ATOM      3  C   UNL     1       2.540   7.465  18.479  0.00  0.00    +0.000 A 
ATOM      4  N   UNL     1       2.083   8.565  17.797  0.00  0.00    +0.000 N 
ATOM      5  N   UNL     1       1.274   9.373  18.514  0.00  0.00    +0.000 NA
ATOM      6  H   UNL     1       2.294   8.826  16.841  0.00  0.00    +0.000 HD
ENDROOT
BRANCH   3   7
ATOM      7  C   UNL     1       3.415   6.447  17.907  0.00  0.00    +0.000 A 
ATOM      8  C   UNL     1       3.055   5.077  17.920  0.00  0.00    +0.000 A 
ATOM      9  C   UNL     1       3.793   4.129  17.203  0.00  0.00    +0.000 A 
ATOM     10  C   UNL     1       4.859   4.589  16.466  0.00  0.00    +0.000 A 
ATOM     11  C   UNL     1       5.267   5.903  16.520  0.00  0.00    +0.000 A 
ATOM     12  C   UNL     1       4.593   6.846  17.258  0.00  0.00    +0.000 A 
ATOM     13  O   UNL     1       6.298   6.156  15.666  0.00  0.00    +0.000 OA
ATOM     14  C   UNL     1       6.185   4.982  14.839  0.00  0.00    +0.000 C 
ATOM     15  O   UNL     1       5.566   3.883  15.539  0.00  0.00    +0.000 OA
ENDBRANCH   3   7
BRANCH   1  17
ATOM     16  O   UNL     1      -0.327   8.641  21.459  0.00  0.00    +0.000 OA
ATOM     17  C   UNL     1       0.506   9.334  20.873  0.00  0.00    +0.000 C 
ATOM     18  N   UNL     1       0.800  10.655  21.164  0.00  0.00    +0.000 N 
ATOM     19  H   UNL     1       1.494  11.130  20.595  0.00  0.00    +0.000 HD
BRANCH  18  20
ATOM     20  N   UNL     1       0.099  11.293  22.136  0.00  0.00    +0.000 NA
ATOM     21  C   UNL     1      -0.918  11.995  21.761  0.00  0.00    +0.000 C 
BRANCH  21  22
ATOM     22  C   UNL     1      -1.732  12.716  22.761  0.00  0.00    +0.000 A 
ATOM     23  C   UNL     1      -2.968  12.203  23.167  0.00  0.00    +0.000 A 
ATOM     24  C   UNL     1      -3.725  12.882  24.122  0.00  0.00    +0.000 A 
ATOM     25  C   UNL     1      -3.242  14.069  24.673  0.00  0.00    +0.000 A 
ATOM     26  C   UNL     1      -2.007  14.581  24.266  0.00  0.00    +0.000 A 
ATOM     27  C   UNL     1      -1.248  13.905  23.307  0.00  0.00    +0.000 A 
ENDBRANCH  21  22
ENDBRANCH  18  20
ENDBRANCH   1  17
TORSDOF 4
ENDMDL
MODEL 8
REMARK VINA RESULT:      -7.9      4.357      9.970
REMARK  Name = 
REMARK  4 active torsions:
REMARK  status: ('A' for Active; 'I' for Inactive)
REMARK    1  A    between atoms: C_2  and  C_12
REMARK    2  A    between atoms: N_3  and  N_4
REMARK    3  A    between atoms: C_5  and  C_6
REMARK    4  A    between atoms: C_14  and  C_15
REMARK                            x       y       z     vdW  Elec       q    Type
REMARK                         _______ _______ _______ _____ _____    ______ ____
ROOT
ATOM      1  C   UNL     1       6.964   6.174  18.031  0.00  0.00    +0.000 A 
ATOM      2  C   UNL     1       5.593   6.213  18.391  0.00  0.00    +0.000 A 
ATOM      3  C   UNL     1       5.277   4.951  18.844  0.00  0.00    +0.000 A 
ATOM      4  N   UNL     1       6.472   4.279  18.845  0.00  0.00    +0.000 N 
ATOM      5  N   UNL     1       7.504   4.968  18.314  0.00  0.00    +0.000 NA
ATOM      6  H   UNL     1       6.653   3.347  19.201  0.00  0.00    +0.000 HD
ENDROOT
BRANCH   3   7
ATOM      7  C   UNL     1       4.023   4.403  19.354  0.00  0.00    +0.000 A 
ATOM      8  C   UNL     1       3.139   5.190  20.130  0.00  0.00    +0.000 A 
ATOM      9  C   UNL     1       1.855   4.733  20.450  0.00  0.00    +0.000 A 
ATOM     10  C   UNL     1       1.484   3.505  19.954  0.00  0.00    +0.000 A 
ATOM     11  C   UNL     1       2.369   2.698  19.275  0.00  0.00    +0.000 A 
ATOM     12  C   UNL     1       3.653   3.099  18.993  0.00  0.00    +0.000 A 
ATOM     13  O   UNL     1       1.778   1.559  18.819  0.00  0.00    +0.000 OA
ATOM     14  C   UNL     1       0.402   1.963  18.950  0.00  0.00    +0.000 C 
ATOM     15  O   UNL     1       0.229   2.976  19.961  0.00  0.00    +0.000 OA
ENDBRANCH   3   7
BRANCH   1  17
ATOM     16  O   UNL     1       8.148   7.181  16.263  0.00  0.00    +0.000 OA
ATOM     17  C   UNL     1       7.712   7.270  17.412  0.00  0.00    +0.000 C 
ATOM     18  N   UNL     1       7.885   8.355  18.254  0.00  0.00    +0.000 N 
ATOM     19  H   UNL     1       7.496   8.304  19.191  0.00  0.00    +0.000 HD
BRANCH  18  20
ATOM     20  N   UNL     1       8.634   9.407  17.837  0.00  0.00    +0.000 NA
ATOM     21  C   UNL     1       8.994  10.264  18.734  0.00  0.00    +0.000 C 
BRANCH  21  22
ATOM     22  C   UNL     1       9.813  11.435  18.357  0.00  0.00    +0.000 A 
ATOM     23  C   UNL     1       9.199  12.610  17.910  0.00  0.00    +0.000 A 
ATOM     24  C   UNL     1       9.976  13.716  17.569  0.00  0.00    +0.000 A 
ATOM     25  C   UNL     1      11.365  13.647  17.681  0.00  0.00    +0.000 A 
ATOM     26  C   UNL     1      11.978  12.473  18.127  0.00  0.00    +0.000 A 
ATOM     27  C   UNL     1      11.201  11.362  18.466  0.00  0.00    +0.000 A 
ENDBRANCH  21  22
ENDBRANCH  18  20
ENDBRANCH   1  17
TORSDOF 4
ENDMDL
MODEL 9
REMARK VINA RESULT:      -7.9      3.739     10.328
REMARK  Name = 
REMARK  4 active torsions:
REMARK  status: ('A' for Active; 'I' for Inactive)
REMARK    1  A    between atoms: C_2  and  C_12
REMARK    2  A    between atoms: N_3  and  N_4
REMARK    3  A    between atoms: C_5  and  C_6
REMARK    4  A    between atoms: C_14  and  C_15
REMARK                            x       y       z     vdW  Elec       q    Type
REMARK                         _______ _______ _______ _____ _____    ______ ____
ROOT
ATOM      1  C   UNL     1       7.143   6.450  17.938  0.00  0.00    +0.000 A 
ATOM      2  C   UNL     1       5.734   6.300  17.977  0.00  0.00    +0.000 A 
ATOM      3  C   UNL     1       5.489   4.944  17.990  0.00  0.00    +0.000 A 
ATOM      4  N   UNL     1       6.734   4.374  18.076  0.00  0.00    +0.000 N 
ATOM      5  N   UNL     1       7.759   5.249  17.997  0.00  0.00    +0.000 NA
ATOM      6  H   UNL     1       6.952   3.391  18.198  0.00  0.00    +0.000 HD
ENDROOT
BRANCH   3   7
ATOM      7  C   UNL     1       4.236   4.197  18.037  0.00  0.00    +0.000 A 
ATOM      8  C   UNL     1       4.129   2.904  17.469  0.00  0.00    +0.000 A 
ATOM      9  C   UNL     1       2.996   2.111  17.684  0.00  0.00    +0.000 A 
ATOM     10  C   UNL     1       2.011   2.630  18.493  0.00  0.00    +0.000 A 
ATOM     11  C   UNL     1       2.070   3.918  18.974  0.00  0.00    +0.000 A 
ATOM     12  C   UNL     1       3.146   4.739  18.734  0.00  0.00    +0.000 A 
ATOM     13  O   UNL     1       1.027   4.204  19.803  0.00  0.00    +0.000 OA
ATOM     14  C   UNL     1       0.586   2.859  20.065  0.00  0.00    +0.000 C 
ATOM     15  O   UNL     1       0.944   1.953  19.001  0.00  0.00    +0.000 OA
ENDBRANCH   3   7
BRANCH   1  17
ATOM     16  O   UNL     1       7.819   8.389  16.788  0.00  0.00    +0.000 OA
ATOM     17  C   UNL     1       7.859   7.722  17.823  0.00  0.00    +0.000 C 
ATOM     18  N   UNL     1       8.579   8.046  18.960  0.00  0.00    +0.000 N 
ATOM     19  H   UNL     1       8.551   7.404  19.746  0.00  0.00    +0.000 HD
BRANCH  18  20
ATOM     20  N   UNL     1       9.358   9.157  18.958  0.00  0.00    +0.000 NA
ATOM     21  C   UNL     1       9.046  10.093  19.792  0.00  0.00    +0.000 C 
BRANCH  21  22
ATOM     22  C   UNL     1       9.849  11.333  19.851  0.00  0.00    +0.000 A 
ATOM     23  C   UNL     1      10.836  11.580  18.892  0.00  0.00    +0.000 A 
ATOM     24  C   UNL     1      11.580  12.759  18.945  0.00  0.00    +0.000 A 
ATOM     25  C   UNL     1      11.332  13.690  19.954  0.00  0.00    +0.000 A 
ATOM     26  C   UNL     1      10.346  13.441  20.913  0.00  0.00    +0.000 A 
ATOM     27  C   UNL     1       9.601  12.260  20.864  0.00  0.00    +0.000 A 
ENDBRANCH  21  22
ENDBRANCH  18  20
ENDBRANCH   1  17
TORSDOF 4
ENDMDL
