MODEL 1
REMARK VINA RESULT:      -6.7      0.000      0.000
REMARK  Name = 
REMARK  9 active torsions:
REMARK  status: ('A' for Active; 'I' for Inactive)
REMARK    1  A    between atoms: C_1  and  C_2
REMARK    2  A    between atoms: C_2  and  C_3
REMARK    3  A    between atoms: C_3  and  C_4
REMARK    4  A    between atoms: C_3  and  C_15
REMARK    5  A    between atoms: C_6  and  O_7
REMARK    6  A    between atoms: C_9  and  S_10
REMARK    7  A    between atoms: S_10  and  C_11
REMARK    8  A    between atoms: C_11  and  C_12
REMARK    9  A    between atoms: C_11  and  C_13
REMARK                            x       y       z     vdW  Elec       q    Type
REMARK                         _______ _______ _______ _____ _____    ______ ____
ROOT
ATOM      1  C   UNL     1       5.064   4.778  18.305  0.00  0.00    +0.000 A 
ATOM      2  C   UNL     1       5.959   5.118  19.293  0.00  0.00    +0.000 A 
ATOM      3  C   UNL     1       7.263   5.298  18.917  0.00  0.00    +0.000 A 
ATOM      4  N   UNL     1       7.692   5.239  17.664  0.00  0.00    +0.000 NA
ATOM      5  C   UNL     1       6.758   4.972  16.738  0.00  0.00    +0.000 A 
ATOM      6  N   UNL     1       5.464   4.702  17.010  0.00  0.00    +0.000 NA
ENDROOT
BRANCH   3   7
ATOM      7  O   UNL     1       8.227   5.562  19.846  0.00  0.00    +0.000 OA
ATOM      8  H   UNL     1       8.187   4.880  20.532  0.00  0.00    +0.000 HD
ENDBRANCH   3   7
BRANCH   1   9
ATOM      9  C   UNL     1       3.581   4.502  18.615  0.00  0.00    +0.000 C 
BRANCH   9  10
ATOM     10  C   UNL     1       2.822   5.681  19.274  0.00  0.00    +0.000 A 
ATOM     11  C   UNL     1       2.079   5.467  20.466  0.00  0.00    +0.000 A 
ATOM     12 CL   UNL     1       1.933   3.915  21.226  0.00  0.00    +0.000 Cl
ATOM     13  C   UNL     1       1.371   6.504  21.099  0.00  0.00    +0.000 A 
ATOM     14  C   UNL     1       1.381   7.789  20.583  0.00  0.00    +0.000 A 
ATOM     15  C   UNL     1       2.087   8.036  19.415  0.00  0.00    +0.000 A 
ATOM     16  C   UNL     1       2.775   7.003  18.758  0.00  0.00    +0.000 A 
ATOM     17 CL   UNL     1       3.470   7.524  17.259  0.00  0.00    +0.000 Cl
ENDBRANCH   9  10
BRANCH   9  19
ATOM     18  C   UNL     1       2.526   2.362  17.616  0.00  0.00    +0.000 C 
ATOM     19  C   UNL     1       2.778   3.858  17.459  0.00  0.00    +0.000 C 
ENDBRANCH   9  19
ENDBRANCH   1   9
BRANCH   5  20
ATOM     20  S   UNL     1       7.356   4.998  15.069  0.00  0.00    +0.000 S 
BRANCH  20  21
ATOM     21  C   UNL     1       6.222   3.844  14.217  0.00  0.00    +0.000 C 
ATOM     22  C   UNL     1       4.768   4.309  14.199  0.00  0.00    +0.000 C 
ATOM     23  C   UNL     1       6.726   3.716  12.774  0.00  0.00    +0.000 C 
ENDBRANCH  20  21
ENDBRANCH   5  20
TORSDOF 6
ENDMDL
MODEL 2
REMARK VINA RESULT:      -6.4      0.260      1.982
REMARK  Name = 
REMARK  9 active torsions:
REMARK  status: ('A' for Active; 'I' for Inactive)
REMARK    1  A    between atoms: C_1  and  C_2
REMARK    2  A    between atoms: C_2  and  C_3
REMARK    3  A    between atoms: C_3  and  C_4
REMARK    4  A    between atoms: C_3  and  C_15
REMARK    5  A    between atoms: C_6  and  O_7
REMARK    6  A    between atoms: C_9  and  S_10
REMARK    7  A    between atoms: S_10  and  C_11
REMARK    8  A    between atoms: C_11  and  C_12
REMARK    9  A    between atoms: C_11  and  C_13
REMARK                            x       y       z     vdW  Elec       q    Type
REMARK                         _______ _______ _______ _____ _____    ______ ____
ROOT
ATOM      1  C   UNL     1       5.163   4.646  18.254  0.00  0.00    +0.000 A 
ATOM      2  C   UNL     1       6.053   5.033  19.229  0.00  0.00    +0.000 A 
ATOM      3  C   UNL     1       7.343   5.268  18.836  0.00  0.00    +0.000 A 
ATOM      4  N   UNL     1       7.759   5.219  17.578  0.00  0.00    +0.000 NA
ATOM      5  C   UNL     1       6.828   4.904  16.666  0.00  0.00    +0.000 A 
ATOM      6  N   UNL     1       5.550   4.578  16.954  0.00  0.00    +0.000 NA
ENDROOT
BRANCH   3   7
ATOM      7  O   UNL     1       8.305   5.581  19.752  0.00  0.00    +0.000 OA
ATOM      8  H   UNL     1       8.878   4.810  19.872  0.00  0.00    +0.000 HD
ENDBRANCH   3   7
BRANCH   1   9
ATOM      9  C   UNL     1       3.697   4.307  18.583  0.00  0.00    +0.000 C 
BRANCH   9  10
ATOM     10  C   UNL     1       2.903   5.444  19.273  0.00  0.00    +0.000 A 
ATOM     11  C   UNL     1       2.878   6.742  18.697  0.00  0.00    +0.000 A 
ATOM     12 CL   UNL     1       3.742   7.153  17.249  0.00  0.00    +0.000 Cl
ATOM     13  C   UNL     1       2.174   7.807  19.287  0.00  0.00    +0.000 A 
ATOM     14  C   UNL     1       1.462   7.623  20.460  0.00  0.00    +0.000 A 
ATOM     15  C   UNL     1       1.469   6.372  21.059  0.00  0.00    +0.000 A 
ATOM     16  C   UNL     1       2.191   5.309  20.495  0.00  0.00    +0.000 A 
ATOM     17 CL   UNL     1       2.154   3.888  21.486  0.00  0.00    +0.000 Cl
ENDBRANCH   9  10
BRANCH   9  19
ATOM     18  C   UNL     1       1.883   2.605  17.875  0.00  0.00    +0.000 C 
ATOM     19  C   UNL     1       2.901   3.649  17.430  0.00  0.00    +0.000 C 
ENDBRANCH   9  19
ENDBRANCH   1   9
BRANCH   5  20
ATOM     20  S   UNL     1       7.406   4.944  14.989  0.00  0.00    +0.000 S 
BRANCH  20  21
ATOM     21  C   UNL     1       6.227   3.839  14.132  0.00  0.00    +0.000 C 
ATOM     22  C   UNL     1       4.792   4.359  14.120  0.00  0.00    +0.000 C 
ATOM     23  C   UNL     1       6.724   3.703  12.687  0.00  0.00    +0.000 C 
ENDBRANCH  20  21
ENDBRANCH   5  20
TORSDOF 6
ENDMDL
MODEL 3
REMARK VINA RESULT:      -6.4      1.606      2.919
REMARK  Name = 
REMARK  9 active torsions:
REMARK  status: ('A' for Active; 'I' for Inactive)
REMARK    1  A    between atoms: C_1  and  C_2
REMARK    2  A    between atoms: C_2  and  C_3
REMARK    3  A    between atoms: C_3  and  C_4
REMARK    4  A    between atoms: C_3  and  C_15
REMARK    5  A    between atoms: C_6  and  O_7
REMARK    6  A    between atoms: C_9  and  S_10
REMARK    7  A    between atoms: S_10  and  C_11
REMARK    8  A    between atoms: C_11  and  C_12
REMARK    9  A    between atoms: C_11  and  C_13
REMARK                            x       y       z     vdW  Elec       q    Type
REMARK                         _______ _______ _______ _____ _____    ______ ____
ROOT
ATOM      1  C   UNL     1       4.595   5.461  18.033  0.00  0.00    +0.000 A 
ATOM      2  C   UNL     1       5.358   5.585  19.171  0.00  0.00    +0.000 A 
ATOM      3  C   UNL     1       6.716   5.473  19.025  0.00  0.00    +0.000 A 
ATOM      4  N   UNL     1       7.330   5.331  17.859  0.00  0.00    +0.000 NA
ATOM      5  C   UNL     1       6.534   5.287  16.780  0.00  0.00    +0.000 A 
ATOM      6  N   UNL     1       5.185   5.309  16.820  0.00  0.00    +0.000 NA
ENDROOT
BRANCH   3   7
ATOM      7  O   UNL     1       7.539   5.507  20.113  0.00  0.00    +0.000 OA
ATOM      8  H   UNL     1       7.672   4.601  20.425  0.00  0.00    +0.000 HD
ENDBRANCH   3   7
BRANCH   1   9
ATOM      9  C   UNL     1       3.057   5.521  18.079  0.00  0.00    +0.000 C 
BRANCH   9  10
ATOM     10  C   UNL     1       2.392   4.492  19.028  0.00  0.00    +0.000 A 
ATOM     11  C   UNL     1       2.280   3.133  18.633  0.00  0.00    +0.000 A 
ATOM     12 CL   UNL     1       2.820   2.546  17.092  0.00  0.00    +0.000 Cl
ATOM     13  C   UNL     1       1.681   2.164  19.457  0.00  0.00    +0.000 A 
ATOM     14  C   UNL     1       1.184   2.502  20.704  0.00  0.00    +0.000 A 
ATOM     15  C   UNL     1       1.266   3.821  21.122  0.00  0.00    +0.000 A 
ATOM     16  C   UNL     1       1.835   4.804  20.297  0.00  0.00    +0.000 A 
ATOM     17 CL   UNL     1       1.708   6.391  20.978  0.00  0.00    +0.000 Cl
ENDBRANCH   9  10
BRANCH   9  19
ATOM     18  C   UNL     1       3.265   8.048  17.568  0.00  0.00    +0.000 C 
ATOM     19  C   UNL     1       2.459   6.940  18.238  0.00  0.00    +0.000 C 
ENDBRANCH   9  19
ENDBRANCH   1   9
BRANCH   5  20
ATOM     20  S   UNL     1       7.402   5.192  15.235  0.00  0.00    +0.000 S 
BRANCH  20  21
ATOM     21  C   UNL     1       6.170   4.418  14.128  0.00  0.00    +0.000 C 
ATOM     22  C   UNL     1       6.726   4.033  12.760  0.00  0.00    +0.000 C 
ATOM     23  C   UNL     1       5.671   3.154  14.841  0.00  0.00    +0.000 C 
ENDBRANCH  20  21
ENDBRANCH   5  20
TORSDOF 6
ENDMDL
MODEL 4
REMARK VINA RESULT:      -6.3      2.071      3.025
REMARK  Name = 
REMARK  9 active torsions:
REMARK  status: ('A' for Active; 'I' for Inactive)
REMARK    1  A    between atoms: C_1  and  C_2
REMARK    2  A    between atoms: C_2  and  C_3
REMARK    3  A    between atoms: C_3  and  C_4
REMARK    4  A    between atoms: C_3  and  C_15
REMARK    5  A    between atoms: C_6  and  O_7
REMARK    6  A    between atoms: C_9  and  S_10
REMARK    7  A    between atoms: S_10  and  C_11
REMARK    8  A    between atoms: C_11  and  C_12
REMARK    9  A    between atoms: C_11  and  C_13
REMARK                            x       y       z     vdW  Elec       q    Type
REMARK                         _______ _______ _______ _____ _____    ______ ____
ROOT
ATOM      1  C   UNL     1       4.477   4.470  17.898  0.00  0.00    +0.000 A 
ATOM      2  C   UNL     1       4.777   3.830  16.718  0.00  0.00    +0.000 A 
ATOM      3  C   UNL     1       6.019   4.056  16.186  0.00  0.00    +0.000 A 
ATOM      4  N   UNL     1       6.960   4.783  16.774  0.00  0.00    +0.000 NA
ATOM      5  C   UNL     1       6.628   5.323  17.956  0.00  0.00    +0.000 A 
ATOM      6  N   UNL     1       5.410   5.228  18.529  0.00  0.00    +0.000 NA
ENDROOT
BRANCH   3   7
ATOM      7  O   UNL     1       6.369   3.521  14.981  0.00  0.00    +0.000 OA
ATOM      8  H   UNL     1       7.299   3.729  14.811  0.00  0.00    +0.000 HD
ENDBRANCH   3   7
BRANCH   1   9
ATOM      9  C   UNL     1       3.096   4.332  18.566  0.00  0.00    +0.000 C 
BRANCH   9  10
ATOM     10  C   UNL     1       2.554   5.627  19.219  0.00  0.00    +0.000 A 
ATOM     11  C   UNL     1       1.927   5.570  20.493  0.00  0.00    +0.000 A 
ATOM     12 CL   UNL     1       1.688   4.090  21.365  0.00  0.00    +0.000 Cl
ATOM     13  C   UNL     1       1.417   6.718  21.125  0.00  0.00    +0.000 A 
ATOM     14  C   UNL     1       1.518   7.962  20.527  0.00  0.00    +0.000 A 
ATOM     15  C   UNL     1       2.115   8.059  19.279  0.00  0.00    +0.000 A 
ATOM     16  C   UNL     1       2.603   6.916  18.624  0.00  0.00    +0.000 A 
ATOM     17 CL   UNL     1       3.184   7.267  17.031  0.00  0.00    +0.000 Cl
ENDBRANCH   9  10
BRANCH   9  19
ATOM     18  C   UNL     1       1.539   2.284  18.290  0.00  0.00    +0.000 C 
ATOM     19  C   UNL     1       2.024   3.610  17.713  0.00  0.00    +0.000 C 
ENDBRANCH   9  19
ENDBRANCH   1   9
BRANCH   5  20
ATOM     20  S   UNL     1       7.946   6.207  18.749  0.00  0.00    +0.000 S 
BRANCH  20  21
ATOM     21  C   UNL     1       8.028   7.758  17.784  0.00  0.00    +0.000 C 
ATOM     22  C   UNL     1       6.666   8.270  17.322  0.00  0.00    +0.000 C 
ATOM     23  C   UNL     1       8.676   8.809  18.695  0.00  0.00    +0.000 C 
ENDBRANCH  20  21
ENDBRANCH   5  20
TORSDOF 6
ENDMDL
MODEL 5
REMARK VINA RESULT:      -6.3      1.116      1.269
REMARK  Name = 
REMARK  9 active torsions:
REMARK  status: ('A' for Active; 'I' for Inactive)
REMARK    1  A    between atoms: C_1  and  C_2
REMARK    2  A    between atoms: C_2  and  C_3
REMARK    3  A    between atoms: C_3  and  C_4
REMARK    4  A    between atoms: C_3  and  C_15
REMARK    5  A    between atoms: C_6  and  O_7
REMARK    6  A    between atoms: C_9  and  S_10
REMARK    7  A    between atoms: S_10  and  C_11
REMARK    8  A    between atoms: C_11  and  C_12
REMARK    9  A    between atoms: C_11  and  C_13
REMARK                            x       y       z     vdW  Elec       q    Type
REMARK                         _______ _______ _______ _____ _____    ______ ____
ROOT
ATOM      1  C   UNL     1       5.686   4.715  17.768  0.00  0.00    +0.000 A 
ATOM      2  C   UNL     1       6.406   5.613  18.522  0.00  0.00    +0.000 A 
ATOM      3  C   UNL     1       7.431   6.272  17.896  0.00  0.00    +0.000 A 
ATOM      4  N   UNL     1       7.714   6.153  16.606  0.00  0.00    +0.000 NA
ATOM      5  C   UNL     1       6.931   5.314  15.910  0.00  0.00    +0.000 A 
ATOM      6  N   UNL     1       5.949   4.560  16.445  0.00  0.00    +0.000 NA
ENDROOT
BRANCH   3   7
ATOM      7  O   UNL     1       8.242   7.121  18.591  0.00  0.00    +0.000 OA
ATOM      8  H   UNL     1       9.161   6.858  18.442  0.00  0.00    +0.000 HD
ENDBRANCH   3   7
BRANCH   1   9
ATOM      9  C   UNL     1       4.544   3.880  18.375  0.00  0.00    +0.000 C 
BRANCH   9  10
ATOM     10  C   UNL     1       3.519   4.686  19.212  0.00  0.00    +0.000 A 
ATOM     11  C   UNL     1       2.927   4.100  20.363  0.00  0.00    +0.000 A 
ATOM     12 CL   UNL     1       3.260   2.477  20.878  0.00  0.00    +0.000 Cl
ATOM     13  C   UNL     1       1.990   4.790  21.153  0.00  0.00    +0.000 A 
ATOM     14  C   UNL     1       1.615   6.085  20.840  0.00  0.00    +0.000 A 
ATOM     15  C   UNL     1       2.164   6.690  19.718  0.00  0.00    +0.000 A 
ATOM     16  C   UNL     1       3.079   6.001  18.906  0.00  0.00    +0.000 A 
ATOM     17 CL   UNL     1       3.524   6.909  17.499  0.00  0.00    +0.000 Cl
ENDBRANCH   9  10
BRANCH   9  19
ATOM     18  C   UNL     1       2.382   3.178  17.140  0.00  0.00    +0.000 C 
ATOM     19  C   UNL     1       3.859   2.896  17.397  0.00  0.00    +0.000 C 
ENDBRANCH   9  19
ENDBRANCH   1   9
BRANCH   5  20
ATOM     20  S   UNL     1       7.285   5.258  14.173  0.00  0.00    +0.000 S 
BRANCH  20  21
ATOM     21  C   UNL     1       6.366   3.777  13.623  0.00  0.00    +0.000 C 
ATOM     22  C   UNL     1       4.849   3.953  13.633  0.00  0.00    +0.000 C 
ATOM     23  C   UNL     1       6.827   3.479  12.190  0.00  0.00    +0.000 C 
ENDBRANCH  20  21
ENDBRANCH   5  20
TORSDOF 6
ENDMDL
MODEL 6
REMARK VINA RESULT:      -6.3      1.645      2.863
REMARK  Name = 
REMARK  9 active torsions:
REMARK  status: ('A' for Active; 'I' for Inactive)
REMARK    1  A    between atoms: C_1  and  C_2
REMARK    2  A    between atoms: C_2  and  C_3
REMARK    3  A    between atoms: C_3  and  C_4
REMARK    4  A    between atoms: C_3  and  C_15
REMARK    5  A    between atoms: C_6  and  O_7
REMARK    6  A    between atoms: C_9  and  S_10
REMARK    7  A    between atoms: S_10  and  C_11
REMARK    8  A    between atoms: C_11  and  C_12
REMARK    9  A    between atoms: C_11  and  C_13
REMARK                            x       y       z     vdW  Elec       q    Type
REMARK                         _______ _______ _______ _____ _____    ______ ____
ROOT
ATOM      1  C   UNL     1       4.471   5.743  18.045  0.00  0.00    +0.000 A 
ATOM      2  C   UNL     1       5.270   5.710  19.165  0.00  0.00    +0.000 A 
ATOM      3  C   UNL     1       6.607   5.490  18.969  0.00  0.00    +0.000 A 
ATOM      4  N   UNL     1       7.178   5.387  17.777  0.00  0.00    +0.000 NA
ATOM      5  C   UNL     1       6.356   5.497  16.723  0.00  0.00    +0.000 A 
ATOM      6  N   UNL     1       5.016   5.635  16.806  0.00  0.00    +0.000 NA
ENDROOT
BRANCH   3   7
ATOM      7  O   UNL     1       7.456   5.367  20.030  0.00  0.00    +0.000 OA
ATOM      8  H   UNL     1       7.399   6.171  20.564  0.00  0.00    +0.000 HD
ENDBRANCH   3   7
BRANCH   1   9
ATOM      9  C   UNL     1       2.946   5.934  18.144  0.00  0.00    +0.000 C 
BRANCH   9  10
ATOM     10  C   UNL     1       2.181   4.756  18.797  0.00  0.00    +0.000 A 
ATOM     11  C   UNL     1       1.638   4.901  20.102  0.00  0.00    +0.000 A 
ATOM     12 CL   UNL     1       1.822   6.342  21.051  0.00  0.00    +0.000 Cl
ATOM     13  C   UNL     1       0.939   3.860  20.738  0.00  0.00    +0.000 A 
ATOM     14  C   UNL     1       0.743   2.645  20.104  0.00  0.00    +0.000 A 
ATOM     15  C   UNL     1       1.265   2.462  18.832  0.00  0.00    +0.000 A 
ATOM     16  C   UNL     1       1.989   3.483  18.198  0.00  0.00    +0.000 A 
ATOM     17 CL   UNL     1       2.649   2.977  16.678  0.00  0.00    +0.000 Cl
ENDBRANCH   9  10
BRANCH   9  19
ATOM     18  C   UNL     1       2.494   8.436  17.666  0.00  0.00    +0.000 C 
ATOM     19  C   UNL     1       2.491   7.308  18.693  0.00  0.00    +0.000 C 
ENDBRANCH   9  19
ENDBRANCH   1   9
BRANCH   5  20
ATOM     20  S   UNL     1       7.174   5.448  15.150  0.00  0.00    +0.000 S 
BRANCH  20  21
ATOM     21  C   UNL     1       6.071   4.380  14.156  0.00  0.00    +0.000 C 
ATOM     22  C   UNL     1       6.681   3.927  12.832  0.00  0.00    +0.000 C 
ATOM     23  C   UNL     1       5.763   3.146  15.016  0.00  0.00    +0.000 C 
ENDBRANCH  20  21
ENDBRANCH   5  20
TORSDOF 6
ENDMDL
MODEL 7
REMARK VINA RESULT:      -6.3      8.861     11.137
REMARK  Name = 
REMARK  9 active torsions:
REMARK  status: ('A' for Active; 'I' for Inactive)
REMARK    1  A    between atoms: C_1  and  C_2
REMARK    2  A    between atoms: C_2  and  C_3
REMARK    3  A    between atoms: C_3  and  C_4
REMARK    4  A    between atoms: C_3  and  C_15
REMARK    5  A    between atoms: C_6  and  O_7
REMARK    6  A    between atoms: C_9  and  S_10
REMARK    7  A    between atoms: S_10  and  C_11
REMARK    8  A    between atoms: C_11  and  C_12
REMARK    9  A    between atoms: C_11  and  C_13
REMARK                            x       y       z     vdW  Elec       q    Type
REMARK                         _______ _______ _______ _____ _____    ______ ____
ROOT
ATOM      1  C   UNL     1      -2.504  11.910  18.489  0.00  0.00    +0.000 A 
ATOM      2  C   UNL     1      -2.088  11.478  17.251  0.00  0.00    +0.000 A 
ATOM      3  C   UNL     1      -3.041  10.947  16.423  0.00  0.00    +0.000 A 
ATOM      4  N   UNL     1      -4.334  10.896  16.713  0.00  0.00    +0.000 NA
ATOM      5  C   UNL     1      -4.686  11.397  17.907  0.00  0.00    +0.000 A 
ATOM      6  N   UNL     1      -3.819  11.870  18.827  0.00  0.00    +0.000 NA
ENDROOT
BRANCH   3   7
ATOM      7  O   UNL     1      -2.699  10.426  15.209  0.00  0.00    +0.000 OA
ATOM      8  H   UNL     1      -3.400  10.637  14.576  0.00  0.00    +0.000 HD
ENDBRANCH   3   7
BRANCH   1   9
ATOM      9  C   UNL     1      -1.516  12.481  19.522  0.00  0.00    +0.000 C 
BRANCH   9  10
ATOM     10  C   UNL     1      -1.142  11.512  20.672  0.00  0.00    +0.000 A 
ATOM     11  C   UNL     1      -1.560  11.794  22.001  0.00  0.00    +0.000 A 
ATOM     12 CL   UNL     1      -2.451  13.219  22.431  0.00  0.00    +0.000 Cl
ATOM     13  C   UNL     1      -1.242  10.948  23.078  0.00  0.00    +0.000 A 
ATOM     14  C   UNL     1      -0.512   9.789  22.878  0.00  0.00    +0.000 A 
ATOM     15  C   UNL     1      -0.078   9.482  21.597  0.00  0.00    +0.000 A 
ATOM     16  C   UNL     1      -0.364  10.334  20.518  0.00  0.00    +0.000 A 
ATOM     17 CL   UNL     1       0.389   9.811  19.049  0.00  0.00    +0.000 Cl
ENDBRANCH   9  10
BRANCH   9  19
ATOM     18  C   UNL     1      -0.270  14.705  19.086  0.00  0.00    +0.000 C 
ATOM     19  C   UNL     1      -0.276  13.189  18.924  0.00  0.00    +0.000 C 
ENDBRANCH   9  19
ENDBRANCH   1   9
BRANCH   5  20
ATOM     20  S   UNL     1      -6.433  11.396  18.213  0.00  0.00    +0.000 S 
BRANCH  20  21
ATOM     21  C   UNL     1      -6.522  11.386  20.039  0.00  0.00    +0.000 C 
ATOM     22  C   UNL     1      -7.059  12.685  20.637  0.00  0.00    +0.000 C 
ATOM     23  C   UNL     1      -7.453  10.231  20.428  0.00  0.00    +0.000 C 
ENDBRANCH  20  21
ENDBRANCH   5  20
TORSDOF 6
ENDMDL
MODEL 8
REMARK VINA RESULT:      -6.3      1.691      2.848
REMARK  Name = 
REMARK  9 active torsions:
REMARK  status: ('A' for Active; 'I' for Inactive)
REMARK    1  A    between atoms: C_1  and  C_2
REMARK    2  A    between atoms: C_2  and  C_3
REMARK    3  A    between atoms: C_3  and  C_4
REMARK    4  A    between atoms: C_3  and  C_15
REMARK    5  A    between atoms: C_6  and  O_7
REMARK    6  A    between atoms: C_9  and  S_10
REMARK    7  A    between atoms: S_10  and  C_11
REMARK    8  A    between atoms: C_11  and  C_12
REMARK    9  A    between atoms: C_11  and  C_13
REMARK                            x       y       z     vdW  Elec       q    Type
REMARK                         _______ _______ _______ _____ _____    ______ ____
ROOT
ATOM      1  C   UNL     1       4.721   5.079  17.414  0.00  0.00    +0.000 A 
ATOM      2  C   UNL     1       5.658   5.013  18.419  0.00  0.00    +0.000 A 
ATOM      3  C   UNL     1       6.968   4.882  18.043  0.00  0.00    +0.000 A 
ATOM      4  N   UNL     1       7.386   4.891  16.784  0.00  0.00    +0.000 NA
ATOM      5  C   UNL     1       6.431   5.028  15.852  0.00  0.00    +0.000 A 
ATOM      6  N   UNL     1       5.107   5.086  16.112  0.00  0.00    +0.000 NA
ENDROOT
BRANCH   3   7
ATOM      7  O   UNL     1       7.951   4.733  18.978  0.00  0.00    +0.000 OA
ATOM      8  H   UNL     1       7.642   5.116  19.811  0.00  0.00    +0.000 HD
ENDBRANCH   3   7
BRANCH   1   9
ATOM      9  C   UNL     1       3.215   5.178  17.715  0.00  0.00    +0.000 C 
BRANCH   9  10
ATOM     10  C   UNL     1       2.717   4.268  18.865  0.00  0.00    +0.000 A 
ATOM     11  C   UNL     1       2.233   4.847  20.068  0.00  0.00    +0.000 A 
ATOM     12 CL   UNL     1       2.205   6.558  20.352  0.00  0.00    +0.000 Cl
ATOM     13  C   UNL     1       1.774   4.062  21.141  0.00  0.00    +0.000 A 
ATOM     14  C   UNL     1       1.767   2.681  21.058  0.00  0.00    +0.000 A 
ATOM     15  C   UNL     1       2.240   2.076  19.902  0.00  0.00    +0.000 A 
ATOM     16  C   UNL     1       2.727   2.848  18.835  0.00  0.00    +0.000 A 
ATOM     17 CL   UNL     1       3.380   1.872  17.561  0.00  0.00    +0.000 Cl
ENDBRANCH   9  10
BRANCH   9  19
ATOM     18  C   UNL     1       3.636   7.710  17.393  0.00  0.00    +0.000 C 
ATOM     19  C   UNL     1       2.661   6.620  17.824  0.00  0.00    +0.000 C 
ENDBRANCH   9  19
ENDBRANCH   1   9
BRANCH   5  20
ATOM     20  S   UNL     1       7.042   5.131  14.190  0.00  0.00    +0.000 S 
BRANCH  20  21
ATOM     21  C   UNL     1       6.299   3.660  13.397  0.00  0.00    +0.000 C 
ATOM     22  C   UNL     1       4.812   3.811  13.088  0.00  0.00    +0.000 C 
ATOM     23  C   UNL     1       7.064   3.435  12.086  0.00  0.00    +0.000 C 
ENDBRANCH  20  21
ENDBRANCH   5  20
TORSDOF 6
ENDMDL
MODEL 9
REMARK VINA RESULT:      -6.1      3.992      6.701
REMARK  Name = 
REMARK  9 active torsions:
REMARK  status: ('A' for Active; 'I' for Inactive)
REMARK    1  A    between atoms: C_1  and  C_2
REMARK    2  A    between atoms: C_2  and  C_3
REMARK    3  A    between atoms: C_3  and  C_4
REMARK    4  A    between atoms: C_3  and  C_15
REMARK    5  A    between atoms: C_6  and  O_7
REMARK    6  A    between atoms: C_9  and  S_10
REMARK    7  A    between atoms: S_10  and  C_11
REMARK    8  A    between atoms: C_11  and  C_12
REMARK    9  A    between atoms: C_11  and  C_13
REMARK                            x       y       z     vdW  Elec       q    Type
REMARK                         _______ _______ _______ _____ _____    ______ ____
ROOT
ATOM      1  C   UNL     1       2.884   6.920  19.234  0.00  0.00    +0.000 A 
ATOM      2  C   UNL     1       2.918   7.770  18.153  0.00  0.00    +0.000 A 
ATOM      3  C   UNL     1       2.056   8.834  18.170  0.00  0.00    +0.000 A 
ATOM      4  N   UNL     1       1.259   9.131  19.187  0.00  0.00    +0.000 NA
ATOM      5  C   UNL     1       1.323   8.303  20.241  0.00  0.00    +0.000 A 
ATOM      6  N   UNL     1       2.077   7.185  20.294  0.00  0.00    +0.000 NA
ENDROOT
BRANCH   3   7
ATOM      7  O   UNL     1       1.972   9.681  17.103  0.00  0.00    +0.000 OA
ATOM      8  H   UNL     1       1.038   9.793  16.873  0.00  0.00    +0.000 HD
ENDBRANCH   3   7
BRANCH   1   9
ATOM      9  C   UNL     1       3.771   5.664  19.306  0.00  0.00    +0.000 C 
BRANCH   9  10
ATOM     10  C   UNL     1       3.041   4.331  19.005  0.00  0.00    +0.000 A 
ATOM     11  C   UNL     1       2.332   3.663  20.038  0.00  0.00    +0.000 A 
ATOM     12 CL   UNL     1       2.267   4.243  21.671  0.00  0.00    +0.000 Cl
ATOM     13  C   UNL     1       1.657   2.449  19.814  0.00  0.00    +0.000 A 
ATOM     14  C   UNL     1       1.650   1.861  18.561  0.00  0.00    +0.000 A 
ATOM     15  C   UNL     1       2.340   2.479  17.527  0.00  0.00    +0.000 A 
ATOM     16  C   UNL     1       3.041   3.675  17.745  0.00  0.00    +0.000 A 
ATOM     17 CL   UNL     1       3.925   4.184  16.345  0.00  0.00    +0.000 Cl
ENDBRANCH   9  10
BRANCH   9  19
ATOM     18  C   UNL     1       6.332   5.302  19.368  0.00  0.00    +0.000 C 
ATOM     19  C   UNL     1       5.125   5.774  18.564  0.00  0.00    +0.000 C 
ENDBRANCH   9  19
ENDBRANCH   1   9
BRANCH   5  20
ATOM     20  S   UNL     1       0.311   8.790  21.614  0.00  0.00    +0.000 S 
BRANCH  20  21
ATOM     21  C   UNL     1      -0.002  10.560  21.275  0.00  0.00    +0.000 C 
ATOM     22  C   UNL     1      -0.966  10.805  20.117  0.00  0.00    +0.000 C 
ATOM     23  C   UNL     1      -0.597  11.155  22.558  0.00  0.00    +0.000 C 
ENDBRANCH  20  21
ENDBRANCH   5  20
TORSDOF 6
ENDMDL
