MODEL 1
REMARK VINA RESULT:      -8.5      0.000      0.000
REMARK  Name = 
REMARK  9 active torsions:
REMARK  status: ('A' for Active; 'I' for Inactive)
REMARK    1  A    between atoms: C_1  and  C_2
REMARK    2  A    between atoms: N_4  and  C_5
REMARK    3  A    between atoms: C_5  and  C_6
REMARK    4  A    between atoms: C_5  and  C_7
REMARK    5  A    between atoms: C_10  and  O_11
REMARK    6  A    between atoms: O_11  and  C_12
REMARK    7  A    between atoms: N_15  and  C_16
REMARK    8  A    between atoms: N_21  and  C_22
REMARK    9  A    between atoms: N_21  and  C_23
REMARK                            x       y       z     vdW  Elec       q    Type
REMARK                         _______ _______ _______ _____ _____    ______ ____
ROOT
ATOM      1  C   UNL     1       2.442   6.248  18.726  0.00  0.00    +0.000 C 
ATOM      2  C   UNL     1       2.229   7.401  17.744  0.00  0.00    +0.000 C 
ATOM      3  C   UNL     1       2.137   8.638  18.625  0.00  0.00    +0.000 C 
ATOM      4  N   UNL     1       1.513   8.149  19.839  0.00  0.00    +0.000 N 
ATOM      5  C   UNL     1       1.704   6.714  20.010  0.00  0.00    +0.000 C 
ENDROOT
BRANCH   4   6
ATOM      6  C   UNL     1       1.028   8.967  20.835  0.00  0.00    +0.000 A 
ATOM      7  N   UNL     1       1.407   8.722  22.103  0.00  0.00    +0.000 NA
ATOM      8  C   UNL     1       0.834   9.475  23.057  0.00  0.00    +0.000 A 
ATOM      9  N   UNL     1      -0.026  10.492  22.878  0.00  0.00    +0.000 NA
ATOM     10  C   UNL     1      -0.370  10.781  21.611  0.00  0.00    +0.000 A 
ATOM     11  N   UNL     1      -1.248  11.836  21.359  0.00  0.00    +0.000 N 
ATOM     12  C   UNL     1      -1.042  12.668  20.180  0.00  0.00    +0.000 C 
ATOM     13  C   UNL     1       0.125   9.997  20.570  0.00  0.00    +0.000 A 
ATOM     14  F   UNL     1      -0.296  10.220  19.314  0.00  0.00    +0.000 F 
BRANCH  11  15
ATOM     15  C   UNL     1      -2.257  12.289  22.331  0.00  0.00    +0.000 C 
ATOM     16  C   UNL     1      -3.607  12.592  21.665  0.00  0.00    +0.000 C 
ATOM     17  C   UNL     1      -4.567  13.311  22.611  0.00  0.00    +0.000 C 
ATOM     18  C   UNL     1      -3.865  14.445  23.341  0.00  0.00    +0.000 C 
ATOM     19  O   UNL     1      -2.791  13.912  24.114  0.00  0.00    +0.000 OA
ATOM     20  C   UNL     1      -1.753  13.408  23.266  0.00  0.00    +0.000 C 
ENDBRANCH  11  15
ENDBRANCH   4   6
BRANCH   1  21
ATOM     21  O   UNL     1       3.859   6.083  18.905  0.00  0.00    +0.000 OA
BRANCH  21  25
ATOM     22  C   UNL     1       5.770   4.607  15.475  0.00  0.00    +0.000 A 
ATOM     23  C   UNL     1       4.945   3.799  16.270  0.00  0.00    +0.000 A 
ATOM     24  C   UNL     1       4.340   4.314  17.426  0.00  0.00    +0.000 A 
ATOM     25  C   UNL     1       4.560   5.638  17.814  0.00  0.00    +0.000 A 
ATOM     26  C   UNL     1       5.411   6.434  17.051  0.00  0.00    +0.000 A 
ATOM     27  C   UNL     1       6.012   5.924  15.897  0.00  0.00    +0.000 A 
BRANCH  22  28
ATOM     28  C   UNL     1       6.312   4.100  14.148  0.00  0.00    +0.000 C 
ATOM     29  C   UNL     1       7.429   4.994  13.601  0.00  0.00    +0.000 C 
BRANCH  28  33
ATOM     30  C   UNL     1       4.001   3.283  11.254  0.00  0.00    +0.000 C 
ATOM     31  C   UNL     1       5.240   3.176  12.104  0.00  0.00    +0.000 C 
ATOM     32  O   UNL     1       6.166   2.421  11.836  0.00  0.00    +0.000 OA
ATOM     33  N   UNL     1       5.213   4.003  13.198  0.00  0.00    +0.000 N 
ATOM     34  H   UNL     1       4.426   4.626  13.315  0.00  0.00    +0.000 HD
ENDBRANCH  28  33
ENDBRANCH  22  28
ENDBRANCH  21  25
ENDBRANCH   1  21
TORSDOF 6
ENDMDL
MODEL 2
REMARK VINA RESULT:      -8.2      3.198      4.385
REMARK  Name = 
REMARK  9 active torsions:
REMARK  status: ('A' for Active; 'I' for Inactive)
REMARK    1  A    between atoms: C_1  and  C_2
REMARK    2  A    between atoms: N_4  and  C_5
REMARK    3  A    between atoms: C_5  and  C_6
REMARK    4  A    between atoms: C_5  and  C_7
REMARK    5  A    between atoms: C_10  and  O_11
REMARK    6  A    between atoms: O_11  and  C_12
REMARK    7  A    between atoms: N_15  and  C_16
REMARK    8  A    between atoms: N_21  and  C_22
REMARK    9  A    between atoms: N_21  and  C_23
REMARK                            x       y       z     vdW  Elec       q    Type
REMARK                         _______ _______ _______ _____ _____    ______ ____
ROOT
ATOM      1  C   UNL     1       1.844   8.981  19.450  0.00  0.00    +0.000 C 
ATOM      2  C   UNL     1       1.380   8.825  20.899  0.00  0.00    +0.000 C 
ATOM      3  C   UNL     1      -0.095   9.198  20.868  0.00  0.00    +0.000 C 
ATOM      4  N   UNL     1      -0.172  10.210  19.832  0.00  0.00    +0.000 N 
ATOM      5  C   UNL     1       0.936  10.111  18.891  0.00  0.00    +0.000 C 
ENDROOT
BRANCH   4   6
ATOM      6  C   UNL     1      -1.280  10.997  19.610  0.00  0.00    +0.000 A 
ATOM      7  N   UNL     1      -1.468  12.071  20.399  0.00  0.00    +0.000 NA
ATOM      8  C   UNL     1      -2.611  12.754  20.220  0.00  0.00    +0.000 A 
ATOM      9  N   UNL     1      -3.556  12.523  19.292  0.00  0.00    +0.000 NA
ATOM     10  C   UNL     1      -3.352  11.484  18.463  0.00  0.00    +0.000 A 
ATOM     11  N   UNL     1      -4.291  11.201  17.469  0.00  0.00    +0.000 N 
ATOM     12  C   UNL     1      -3.830  10.727  16.170  0.00  0.00    +0.000 C 
ATOM     13  C   UNL     1      -2.225  10.681  18.633  0.00  0.00    +0.000 A 
ATOM     14  F   UNL     1      -2.071   9.586  17.872  0.00  0.00    +0.000 F 
BRANCH  11  15
ATOM     15  C   UNL     1      -5.715  11.551  17.589  0.00  0.00    +0.000 C 
ATOM     16  C   UNL     1      -6.017  12.950  17.032  0.00  0.00    +0.000 C 
ATOM     17  C   UNL     1      -7.423  13.423  17.394  0.00  0.00    +0.000 C 
ATOM     18  C   UNL     1      -7.725  13.163  18.860  0.00  0.00    +0.000 C 
ATOM     19  O   UNL     1      -7.646  11.761  19.114  0.00  0.00    +0.000 OA
ATOM     20  C   UNL     1      -6.296  11.297  18.995  0.00  0.00    +0.000 C 
ENDBRANCH  11  15
ENDBRANCH   4   6
BRANCH   1  21
ATOM     21  O   UNL     1       1.658   7.716  18.794  0.00  0.00    +0.000 OA
BRANCH  21  25
ATOM     22  C   UNL     1       5.272   5.747  17.987  0.00  0.00    +0.000 A 
ATOM     23  C   UNL     1       4.831   6.831  17.216  0.00  0.00    +0.000 A 
ATOM     24  C   UNL     1       3.605   7.453  17.495  0.00  0.00    +0.000 A 
ATOM     25  C   UNL     1       2.795   6.993  18.536  0.00  0.00    +0.000 A 
ATOM     26  C   UNL     1       3.209   5.891  19.279  0.00  0.00    +0.000 A 
ATOM     27  C   UNL     1       4.432   5.273  19.006  0.00  0.00    +0.000 A 
BRANCH  22  28
ATOM     28  C   UNL     1       6.661   5.161  17.784  0.00  0.00    +0.000 C 
ATOM     29  C   UNL     1       7.693   5.782  18.729  0.00  0.00    +0.000 C 
BRANCH  28  33
ATOM     30  C   UNL     1       7.236   4.883  14.045  0.00  0.00    +0.000 C 
ATOM     31  C   UNL     1       6.677   4.494  15.389  0.00  0.00    +0.000 C 
ATOM     32  O   UNL     1       5.960   3.514  15.551  0.00  0.00    +0.000 OA
ATOM     33  N   UNL     1       7.051   5.350  16.393  0.00  0.00    +0.000 N 
ATOM     34  H   UNL     1       7.682   6.108  16.174  0.00  0.00    +0.000 HD
ENDBRANCH  28  33
ENDBRANCH  22  28
ENDBRANCH  21  25
ENDBRANCH   1  21
TORSDOF 6
ENDMDL
MODEL 3
REMARK VINA RESULT:      -8.1      0.998      1.024
REMARK  Name = 
REMARK  9 active torsions:
REMARK  status: ('A' for Active; 'I' for Inactive)
REMARK    1  A    between atoms: C_1  and  C_2
REMARK    2  A    between atoms: N_4  and  C_5
REMARK    3  A    between atoms: C_5  and  C_6
REMARK    4  A    between atoms: C_5  and  C_7
REMARK    5  A    between atoms: C_10  and  O_11
REMARK    6  A    between atoms: O_11  and  C_12
REMARK    7  A    between atoms: N_15  and  C_16
REMARK    8  A    between atoms: N_21  and  C_22
REMARK    9  A    between atoms: N_21  and  C_23
REMARK                            x       y       z     vdW  Elec       q    Type
REMARK                         _______ _______ _______ _____ _____    ______ ____
ROOT
ATOM      1  C   UNL     1       2.707   5.691  19.103  0.00  0.00    +0.000 C 
ATOM      2  C   UNL     1       2.395   6.590  17.905  0.00  0.00    +0.000 C 
ATOM      3  C   UNL     1       2.286   7.987  18.497  0.00  0.00    +0.000 C 
ATOM      4  N   UNL     1       1.743   7.758  19.822  0.00  0.00    +0.000 N 
ATOM      5  C   UNL     1       2.008   6.405  20.292  0.00  0.00    +0.000 C 
ENDROOT
BRANCH   4   6
ATOM      6  C   UNL     1       1.268   8.759  20.639  0.00  0.00    +0.000 A 
ATOM      7  N   UNL     1       1.324   8.575  21.971  0.00  0.00    +0.000 NA
ATOM      8  C   UNL     1       0.757   9.527  22.733  0.00  0.00    +0.000 A 
ATOM      9  N   UNL     1       0.202  10.676  22.312  0.00  0.00    +0.000 NA
ATOM     10  C   UNL     1       0.190  10.895  20.986  0.00  0.00    +0.000 A 
ATOM     11  N   UNL     1      -0.361  12.078  20.488  0.00  0.00    +0.000 N 
ATOM     12  C   UNL     1       0.257  12.720  19.335  0.00  0.00    +0.000 C 
ATOM     13  C   UNL     1       0.691   9.921  20.124  0.00  0.00    +0.000 A 
ATOM     14  F   UNL     1       0.588  10.094  18.797  0.00  0.00    +0.000 F 
BRANCH  11  15
ATOM     15  C   UNL     1      -1.413  12.830  21.191  0.00  0.00    +0.000 C 
ATOM     16  C   UNL     1      -2.784  12.674  20.517  0.00  0.00    +0.000 C 
ATOM     17  C   UNL     1      -3.814  13.655  21.073  0.00  0.00    +0.000 C 
ATOM     18  C   UNL     1      -3.231  15.055  21.181  0.00  0.00    +0.000 C 
ATOM     19  O   UNL     1      -2.113  15.030  22.066  0.00  0.00    +0.000 OA
ATOM     20  C   UNL     1      -1.026  14.292  21.496  0.00  0.00    +0.000 C 
ENDBRANCH  11  15
ENDBRANCH   4   6
BRANCH   1  21
ATOM     21  O   UNL     1       4.137   5.620  19.234  0.00  0.00    +0.000 OA
BRANCH  21  25
ATOM     22  C   UNL     1       6.039   4.526  15.659  0.00  0.00    +0.000 A 
ATOM     23  C   UNL     1       5.244   3.625  16.381  0.00  0.00    +0.000 A 
ATOM     24  C   UNL     1       4.641   4.013  17.588  0.00  0.00    +0.000 A 
ATOM     25  C   UNL     1       4.835   5.299  18.098  0.00  0.00    +0.000 A 
ATOM     26  C   UNL     1       5.657   6.185  17.406  0.00  0.00    +0.000 A 
ATOM     27  C   UNL     1       6.255   5.802  16.203  0.00  0.00    +0.000 A 
BRANCH  22  28
ATOM     28  C   UNL     1       6.576   4.161  14.285  0.00  0.00    +0.000 C 
ATOM     29  C   UNL     1       7.537   5.223  13.739  0.00  0.00    +0.000 C 
BRANCH  28  33
ATOM     30  C   UNL     1       4.261   3.216  11.433  0.00  0.00    +0.000 C 
ATOM     31  C   UNL     1       5.548   3.244  12.215  0.00  0.00    +0.000 C 
ATOM     32  O   UNL     1       6.566   2.675  11.839  0.00  0.00    +0.000 OA
ATOM     33  N   UNL     1       5.453   3.963  13.379  0.00  0.00    +0.000 N 
ATOM     34  H   UNL     1       4.585   4.437  13.586  0.00  0.00    +0.000 HD
ENDBRANCH  28  33
ENDBRANCH  22  28
ENDBRANCH  21  25
ENDBRANCH   1  21
TORSDOF 6
ENDMDL
MODEL 4
REMARK VINA RESULT:      -7.7      2.838      3.806
REMARK  Name = 
REMARK  9 active torsions:
REMARK  status: ('A' for Active; 'I' for Inactive)
REMARK    1  A    between atoms: C_1  and  C_2
REMARK    2  A    between atoms: N_4  and  C_5
REMARK    3  A    between atoms: C_5  and  C_6
REMARK    4  A    between atoms: C_5  and  C_7
REMARK    5  A    between atoms: C_10  and  O_11
REMARK    6  A    between atoms: O_11  and  C_12
REMARK    7  A    between atoms: N_15  and  C_16
REMARK    8  A    between atoms: N_21  and  C_22
REMARK    9  A    between atoms: N_21  and  C_23
REMARK                            x       y       z     vdW  Elec       q    Type
REMARK                         _______ _______ _______ _____ _____    ______ ____
ROOT
ATOM      1  C   UNL     1       2.174   8.443  19.031  0.00  0.00    +0.000 C 
ATOM      2  C   UNL     1       1.750   8.096  20.459  0.00  0.00    +0.000 C 
ATOM      3  C   UNL     1       0.311   8.579  20.556  0.00  0.00    +0.000 C 
ATOM      4  N   UNL     1       0.280   9.744  19.694  0.00  0.00    +0.000 N 
ATOM      5  C   UNL     1       1.343   9.711  18.696  0.00  0.00    +0.000 C 
ENDROOT
BRANCH   4   6
ATOM      6  C   UNL     1      -0.766  10.637  19.648  0.00  0.00    +0.000 A 
ATOM      7  N   UNL     1      -0.810  11.616  20.572  0.00  0.00    +0.000 NA
ATOM      8  C   UNL     1      -1.898  12.404  20.559  0.00  0.00    +0.000 A 
ATOM      9  N   UNL     1      -2.917  12.365  19.683  0.00  0.00    +0.000 NA
ATOM     10  C   UNL     1      -2.857  11.426  18.724  0.00  0.00    +0.000 A 
ATOM     11  N   UNL     1      -3.878  11.344  17.775  0.00  0.00    +0.000 N 
ATOM     12  C   UNL     1      -3.544  11.000  16.398  0.00  0.00    +0.000 C 
ATOM     13  C   UNL     1      -1.796  10.521  18.714  0.00  0.00    +0.000 A 
ATOM     14  F   UNL     1      -1.786   9.520  17.818  0.00  0.00    +0.000 F 
BRANCH  11  15
ATOM     15  C   UNL     1      -5.256  11.787  18.040  0.00  0.00    +0.000 C 
ATOM     16  C   UNL     1      -5.834  12.608  16.878  0.00  0.00    +0.000 C 
ATOM     17  C   UNL     1      -7.147  13.291  17.253  0.00  0.00    +0.000 C 
ATOM     18  C   UNL     1      -7.043  13.962  18.613  0.00  0.00    +0.000 C 
ATOM     19  O   UNL     1      -6.755  12.975  19.602  0.00  0.00    +0.000 OA
ATOM     20  C   UNL     1      -5.437  12.445  19.424  0.00  0.00    +0.000 C 
ENDBRANCH  11  15
ENDBRANCH   4   6
BRANCH   1  21
ATOM     21  O   UNL     1       1.861   7.314  18.197  0.00  0.00    +0.000 OA
BRANCH  21  25
ATOM     22  C   UNL     1       5.293   5.266  16.921  0.00  0.00    +0.000 A 
ATOM     23  C   UNL     1       5.205   6.665  16.878  0.00  0.00    +0.000 A 
ATOM     24  C   UNL     1       4.034   7.320  17.287  0.00  0.00    +0.000 A 
ATOM     25  C   UNL     1       2.929   6.590  17.732  0.00  0.00    +0.000 A 
ATOM     26  C   UNL     1       2.996   5.199  17.739  0.00  0.00    +0.000 A 
ATOM     27  C   UNL     1       4.163   4.544  17.335  0.00  0.00    +0.000 A 
BRANCH  22  28
ATOM     28  C   UNL     1       6.604   4.558  16.616  0.00  0.00    +0.000 C 
ATOM     29  C   UNL     1       7.598   4.659  17.777  0.00  0.00    +0.000 C 
BRANCH  28  33
ATOM     30  C   UNL     1       7.654   5.340  13.056  0.00  0.00    +0.000 C 
ATOM     31  C   UNL     1       6.926   4.605  14.151  0.00  0.00    +0.000 C 
ATOM     32  O   UNL     1       6.193   3.648  13.935  0.00  0.00    +0.000 OA
ATOM     33  N   UNL     1       7.169   5.123  15.398  0.00  0.00    +0.000 N 
ATOM     34  H   UNL     1       7.824   5.887  15.486  0.00  0.00    +0.000 HD
ENDBRANCH  28  33
ENDBRANCH  22  28
ENDBRANCH  21  25
ENDBRANCH   1  21
TORSDOF 6
ENDMDL
MODEL 5
REMARK VINA RESULT:      -7.7      2.741      3.824
REMARK  Name = 
REMARK  9 active torsions:
REMARK  status: ('A' for Active; 'I' for Inactive)
REMARK    1  A    between atoms: C_1  and  C_2
REMARK    2  A    between atoms: N_4  and  C_5
REMARK    3  A    between atoms: C_5  and  C_6
REMARK    4  A    between atoms: C_5  and  C_7
REMARK    5  A    between atoms: C_10  and  O_11
REMARK    6  A    between atoms: O_11  and  C_12
REMARK    7  A    between atoms: N_15  and  C_16
REMARK    8  A    between atoms: N_21  and  C_22
REMARK    9  A    between atoms: N_21  and  C_23
REMARK                            x       y       z     vdW  Elec       q    Type
REMARK                         _______ _______ _______ _____ _____    ______ ____
ROOT
ATOM      1  C   UNL     1       2.639   3.347  21.117  0.00  0.00    +0.000 C 
ATOM      2  C   UNL     1       1.148   3.266  20.789  0.00  0.00    +0.000 C 
ATOM      3  C   UNL     1       0.930   4.352  19.746  0.00  0.00    +0.000 C 
ATOM      4  N   UNL     1       1.881   5.381  20.117  0.00  0.00    +0.000 N 
ATOM      5  C   UNL     1       2.986   4.845  20.901  0.00  0.00    +0.000 C 
ENDROOT
BRANCH   4   6
ATOM      6  C   UNL     1       1.884   6.650  19.583  0.00  0.00    +0.000 A 
ATOM      7  N   UNL     1       2.539   6.853  18.424  0.00  0.00    +0.000 NA
ATOM      8  C   UNL     1       2.607   8.123  17.988  0.00  0.00    +0.000 A 
ATOM      9  N   UNL     1       2.035   9.203  18.546  0.00  0.00    +0.000 NA
ATOM     10  C   UNL     1       1.332   9.003  19.675  0.00  0.00    +0.000 A 
ATOM     11  N   UNL     1       0.702  10.083  20.295  0.00  0.00    +0.000 N 
ATOM     12  C   UNL     1      -0.597   9.883  20.924  0.00  0.00    +0.000 C 
ATOM     13  C   UNL     1       1.276   7.726  20.232  0.00  0.00    +0.000 A 
ATOM     14  F   UNL     1       0.660   7.543  21.411  0.00  0.00    +0.000 F 
BRANCH  11  15
ATOM     15  C   UNL     1       1.181  11.470  20.171  0.00  0.00    +0.000 C 
ATOM     16  C   UNL     1       0.652  12.368  21.299  0.00  0.00    +0.000 C 
ATOM     17  C   UNL     1       0.921  13.847  21.030  0.00  0.00    +0.000 C 
ATOM     18  C   UNL     1       0.559  14.216  19.601  0.00  0.00    +0.000 C 
ATOM     19  O   UNL     1       1.356  13.447  18.702  0.00  0.00    +0.000 OA
ATOM     20  C   UNL     1       0.996  12.062  18.758  0.00  0.00    +0.000 C 
ENDBRANCH  11  15
ENDBRANCH   4   6
BRANCH   1  21
ATOM     21  O   UNL     1       3.332   2.461  20.221  0.00  0.00    +0.000 OA
BRANCH  21  25
ATOM     22  C   UNL     1       5.298   4.390  17.057  0.00  0.00    +0.000 A 
ATOM     23  C   UNL     1       4.131   3.638  16.857  0.00  0.00    +0.000 A 
ATOM     24  C   UNL     1       3.511   2.983  17.931  0.00  0.00    +0.000 A 
ATOM     25  C   UNL     1       4.052   3.056  19.217  0.00  0.00    +0.000 A 
ATOM     26  C   UNL     1       5.233   3.767  19.415  0.00  0.00    +0.000 A 
ATOM     27  C   UNL     1       5.851   4.424  18.347  0.00  0.00    +0.000 A 
BRANCH  22  28
ATOM     28  C   UNL     1       5.894   5.217  15.929  0.00  0.00    +0.000 C 
ATOM     29  C   UNL     1       5.163   6.550  15.743  0.00  0.00    +0.000 C 
BRANCH  28  33
ATOM     30  C   UNL     1       6.523   3.669  12.525  0.00  0.00    +0.000 C 
ATOM     31  C   UNL     1       6.794   4.564  13.706  0.00  0.00    +0.000 C 
ATOM     32  O   UNL     1       7.754   5.323  13.757  0.00  0.00    +0.000 OA
ATOM     33  N   UNL     1       5.862   4.432  14.703  0.00  0.00    +0.000 N 
ATOM     34  H   UNL     1       5.077   3.813  14.554  0.00  0.00    +0.000 HD
ENDBRANCH  28  33
ENDBRANCH  22  28
ENDBRANCH  21  25
ENDBRANCH   1  21
TORSDOF 6
ENDMDL
MODEL 6
REMARK VINA RESULT:      -7.6      2.173      3.759
REMARK  Name = 
REMARK  9 active torsions:
REMARK  status: ('A' for Active; 'I' for Inactive)
REMARK    1  A    between atoms: C_1  and  C_2
REMARK    2  A    between atoms: N_4  and  C_5
REMARK    3  A    between atoms: C_5  and  C_6
REMARK    4  A    between atoms: C_5  and  C_7
REMARK    5  A    between atoms: C_10  and  O_11
REMARK    6  A    between atoms: O_11  and  C_12
REMARK    7  A    between atoms: N_15  and  C_16
REMARK    8  A    between atoms: N_21  and  C_22
REMARK    9  A    between atoms: N_21  and  C_23
REMARK                            x       y       z     vdW  Elec       q    Type
REMARK                         _______ _______ _______ _____ _____    ______ ____
ROOT
ATOM      1  C   UNL     1       1.740   8.865  20.273  0.00  0.00    +0.000 C 
ATOM      2  C   UNL     1       1.087   8.337  21.551  0.00  0.00    +0.000 C 
ATOM      3  C   UNL     1      -0.335   8.874  21.500  0.00  0.00    +0.000 C 
ATOM      4  N   UNL     1      -0.197  10.151  20.828  0.00  0.00    +0.000 N 
ATOM      5  C   UNL     1       1.008  10.209  20.010  0.00  0.00    +0.000 C 
ENDROOT
BRANCH   4   6
ATOM      6  C   UNL     1      -1.198  11.094  20.760  0.00  0.00    +0.000 A 
ATOM      7  N   UNL     1      -1.613  11.495  19.544  0.00  0.00    +0.000 NA
ATOM      8  C   UNL     1      -2.518  12.489  19.517  0.00  0.00    +0.000 A 
ATOM      9  N   UNL     1      -3.104  13.080  20.572  0.00  0.00    +0.000 NA
ATOM     10  C   UNL     1      -2.736  12.649  21.791  0.00  0.00    +0.000 A 
ATOM     11  N   UNL     1      -3.320  13.214  22.926  0.00  0.00    +0.000 N 
ATOM     12  C   UNL     1      -3.605  12.365  24.077  0.00  0.00    +0.000 C 
ATOM     13  C   UNL     1      -1.748  11.672  21.904  0.00  0.00    +0.000 A 
ATOM     14  F   UNL     1      -1.308  11.312  23.121  0.00  0.00    +0.000 F 
BRANCH  11  15
ATOM     15  C   UNL     1      -3.856  14.584  22.955  0.00  0.00    +0.000 C 
ATOM     16  C   UNL     1      -3.133  15.468  23.981  0.00  0.00    +0.000 C 
ATOM     17  C   UNL     1      -3.853  16.796  24.206  0.00  0.00    +0.000 C 
ATOM     18  C   UNL     1      -5.347  16.582  24.382  0.00  0.00    +0.000 C 
ATOM     19  O   UNL     1      -5.877  15.981  23.202  0.00  0.00    +0.000 OA
ATOM     20  C   UNL     1      -5.395  14.641  23.051  0.00  0.00    +0.000 C 
ENDBRANCH  11  15
ENDBRANCH   4   6
BRANCH   1  21
ATOM     21  O   UNL     1       1.532   7.886  19.240  0.00  0.00    +0.000 OA
BRANCH  21  25
ATOM     22  C   UNL     1       4.999   5.783  18.166  0.00  0.00    +0.000 A 
ATOM     23  C   UNL     1       4.518   6.857  17.404  0.00  0.00    +0.000 A 
ATOM     24  C   UNL     1       3.341   7.524  17.775  0.00  0.00    +0.000 A 
ATOM     25  C   UNL     1       2.620   7.121  18.902  0.00  0.00    +0.000 A 
ATOM     26  C   UNL     1       3.071   6.029  19.639  0.00  0.00    +0.000 A 
ATOM     27  C   UNL     1       4.245   5.366  19.273  0.00  0.00    +0.000 A 
BRANCH  22  28
ATOM     28  C   UNL     1       6.346   5.149  17.853  0.00  0.00    +0.000 C 
ATOM     29  C   UNL     1       7.469   5.723  18.722  0.00  0.00    +0.000 C 
BRANCH  28  33
ATOM     30  C   UNL     1       6.773   4.809  14.100  0.00  0.00    +0.000 C 
ATOM     31  C   UNL     1       6.342   4.397  15.483  0.00  0.00    +0.000 C 
ATOM     32  O   UNL     1       5.785   3.332  15.715  0.00  0.00    +0.000 OA
ATOM     33  N   UNL     1       6.636   5.337  16.438  0.00  0.00    +0.000 N 
ATOM     34  H   UNL     1       7.139   6.169  16.161  0.00  0.00    +0.000 HD
ENDBRANCH  28  33
ENDBRANCH  22  28
ENDBRANCH  21  25
ENDBRANCH   1  21
TORSDOF 6
ENDMDL
MODEL 7
REMARK VINA RESULT:      -7.5      3.293      4.985
REMARK  Name = 
REMARK  9 active torsions:
REMARK  status: ('A' for Active; 'I' for Inactive)
REMARK    1  A    between atoms: C_1  and  C_2
REMARK    2  A    between atoms: N_4  and  C_5
REMARK    3  A    between atoms: C_5  and  C_6
REMARK    4  A    between atoms: C_5  and  C_7
REMARK    5  A    between atoms: C_10  and  O_11
REMARK    6  A    between atoms: O_11  and  C_12
REMARK    7  A    between atoms: N_15  and  C_16
REMARK    8  A    between atoms: N_21  and  C_22
REMARK    9  A    between atoms: N_21  and  C_23
REMARK                            x       y       z     vdW  Elec       q    Type
REMARK                         _______ _______ _______ _____ _____    ______ ____
ROOT
ATOM      1  C   UNL     1       0.726  10.239  18.296  0.00  0.00    +0.000 C 
ATOM      2  C   UNL     1       1.070  11.704  18.570  0.00  0.00    +0.000 C 
ATOM      3  C   UNL     1      -0.123  12.234  19.351  0.00  0.00    +0.000 C 
ATOM      4  N   UNL     1      -1.245  11.491  18.813  0.00  0.00    +0.000 N 
ATOM      5  C   UNL     1      -0.825  10.234  18.206  0.00  0.00    +0.000 C 
ENDROOT
BRANCH   4   6
ATOM      6  C   UNL     1      -2.562  11.800  19.067  0.00  0.00    +0.000 A 
ATOM      7  N   UNL     1      -3.474  11.543  18.111  0.00  0.00    +0.000 NA
ATOM      8  C   UNL     1      -4.731  11.952  18.354  0.00  0.00    +0.000 A 
ATOM      9  N   UNL     1      -5.192  12.529  19.477  0.00  0.00    +0.000 NA
ATOM     10  C   UNL     1      -4.300  12.742  20.460  0.00  0.00    +0.000 A 
ATOM     11  N   UNL     1      -4.720  13.325  21.657  0.00  0.00    +0.000 N 
ATOM     12  C   UNL     1      -4.132  12.875  22.913  0.00  0.00    +0.000 C 
ATOM     13  C   UNL     1      -2.960  12.413  20.256  0.00  0.00    +0.000 A 
ATOM     14  F   UNL     1      -2.052  12.716  21.197  0.00  0.00    +0.000 F 
BRANCH  11  15
ATOM     15  C   UNL     1      -5.877  14.230  21.745  0.00  0.00    +0.000 C 
ATOM     16  C   UNL     1      -5.459  15.708  21.738  0.00  0.00    +0.000 C 
ATOM     17  C   UNL     1      -6.618  16.636  22.097  0.00  0.00    +0.000 C 
ATOM     18  C   UNL     1      -7.375  16.118  23.309  0.00  0.00    +0.000 C 
ATOM     19  O   UNL     1      -7.909  14.830  23.013  0.00  0.00    +0.000 OA
ATOM     20  C   UNL     1      -6.863  13.862  22.874  0.00  0.00    +0.000 C 
ENDBRANCH  11  15
ENDBRANCH   4   6
BRANCH   1  21
ATOM     21  O   UNL     1       1.241   9.458  19.387  0.00  0.00    +0.000 OA
BRANCH  21  25
ATOM     22  C   UNL     1       3.639   6.198  18.281  0.00  0.00    +0.000 A 
ATOM     23  C   UNL     1       3.516   7.336  17.471  0.00  0.00    +0.000 A 
ATOM     24  C   UNL     1       2.686   8.400  17.856  0.00  0.00    +0.000 A 
ATOM     25  C   UNL     1       1.956   8.338  19.046  0.00  0.00    +0.000 A 
ATOM     26  C   UNL     1       2.043   7.193  19.834  0.00  0.00    +0.000 A 
ATOM     27  C   UNL     1       2.872   6.134  19.454  0.00  0.00    +0.000 A 
BRANCH  22  28
ATOM     28  C   UNL     1       4.643   5.107  17.943  0.00  0.00    +0.000 C 
ATOM     29  C   UNL     1       5.362   5.375  16.617  0.00  0.00    +0.000 C 
BRANCH  28  33
ATOM     30  C   UNL     1       3.358   1.592  18.560  0.00  0.00    +0.000 C 
ATOM     31  C   UNL     1       4.166   2.835  18.831  0.00  0.00    +0.000 C 
ATOM     32  O   UNL     1       4.928   2.936  19.785  0.00  0.00    +0.000 OA
ATOM     33  N   UNL     1       3.950   3.826  17.908  0.00  0.00    +0.000 N 
ATOM     34  H   UNL     1       3.336   3.638  17.128  0.00  0.00    +0.000 HD
ENDBRANCH  28  33
ENDBRANCH  22  28
ENDBRANCH  21  25
ENDBRANCH   1  21
TORSDOF 6
ENDMDL
MODEL 8
REMARK VINA RESULT:      -7.4      3.477      4.851
REMARK  Name = 
REMARK  9 active torsions:
REMARK  status: ('A' for Active; 'I' for Inactive)
REMARK    1  A    between atoms: C_1  and  C_2
REMARK    2  A    between atoms: N_4  and  C_5
REMARK    3  A    between atoms: C_5  and  C_6
REMARK    4  A    between atoms: C_5  and  C_7
REMARK    5  A    between atoms: C_10  and  O_11
REMARK    6  A    between atoms: O_11  and  C_12
REMARK    7  A    between atoms: N_15  and  C_16
REMARK    8  A    between atoms: N_21  and  C_22
REMARK    9  A    between atoms: N_21  and  C_23
REMARK                            x       y       z     vdW  Elec       q    Type
REMARK                         _______ _______ _______ _____ _____    ______ ____
ROOT
ATOM      1  C   UNL     1       0.910   9.827  18.311  0.00  0.00    +0.000 C 
ATOM      2  C   UNL     1       1.374  11.281  18.412  0.00  0.00    +0.000 C 
ATOM      3  C   UNL     1       0.288  11.970  19.225  0.00  0.00    +0.000 C 
ATOM      4  N   UNL     1      -0.922  11.266  18.849  0.00  0.00    +0.000 N 
ATOM      5  C   UNL     1      -0.639   9.929  18.340  0.00  0.00    +0.000 C 
ENDROOT
BRANCH   4   6
ATOM      6  C   UNL     1      -2.190  11.695  19.170  0.00  0.00    +0.000 A 
ATOM      7  N   UNL     1      -3.154  11.593  18.236  0.00  0.00    +0.000 NA
ATOM      8  C   UNL     1      -4.352  12.116  18.550  0.00  0.00    +0.000 A 
ATOM      9  N   UNL     1      -4.712  12.669  19.721  0.00  0.00    +0.000 NA
ATOM     10  C   UNL     1      -3.772  12.727  20.680  0.00  0.00    +0.000 A 
ATOM     11  N   UNL     1      -4.090  13.277  21.923  0.00  0.00    +0.000 N 
ATOM     12  C   UNL     1      -3.514  12.692  23.128  0.00  0.00    +0.000 C 
ATOM     13  C   UNL     1      -2.483  12.272  20.406  0.00  0.00    +0.000 A 
ATOM     14  F   UNL     1      -1.518  12.421  21.328  0.00  0.00    +0.000 F 
BRANCH  11  15
ATOM     15  C   UNL     1      -5.141  14.291  22.107  0.00  0.00    +0.000 C 
ATOM     16  C   UNL     1      -4.559  15.696  22.321  0.00  0.00    +0.000 C 
ATOM     17  C   UNL     1      -5.620  16.695  22.776  0.00  0.00    +0.000 C 
ATOM     18  C   UNL     1      -6.483  16.108  23.881  0.00  0.00    +0.000 C 
ATOM     19  O   UNL     1      -7.146  14.945  23.390  0.00  0.00    +0.000 OA
ATOM     20  C   UNL     1      -6.210  13.889  23.143  0.00  0.00    +0.000 C 
ENDBRANCH  11  15
ENDBRANCH   4   6
BRANCH   1  21
ATOM     21  O   UNL     1       1.461   9.115  19.432  0.00  0.00    +0.000 OA
BRANCH  21  25
ATOM     22  C   UNL     1       3.763   5.743  18.470  0.00  0.00    +0.000 A 
ATOM     23  C   UNL     1       3.659   6.841  17.604  0.00  0.00    +0.000 A 
ATOM     24  C   UNL     1       2.860   7.943  17.943  0.00  0.00    +0.000 A 
ATOM     25  C   UNL     1       2.143   7.961  19.142  0.00  0.00    +0.000 A 
ATOM     26  C   UNL     1       2.211   6.856  19.987  0.00  0.00    +0.000 A 
ATOM     27  C   UNL     1       3.009   5.758  19.653  0.00  0.00    +0.000 A 
BRANCH  22  28
ATOM     28  C   UNL     1       4.736   4.611  18.178  0.00  0.00    +0.000 C 
ATOM     29  C   UNL     1       4.126   3.237  18.470  0.00  0.00    +0.000 C 
BRANCH  28  33
ATOM     30  C   UNL     1       8.170   5.565  19.477  0.00  0.00    +0.000 C 
ATOM     31  C   UNL     1       7.028   5.522  18.495  0.00  0.00    +0.000 C 
ATOM     32  O   UNL     1       7.073   6.068  17.400  0.00  0.00    +0.000 OA
ATOM     33  N   UNL     1       5.946   4.819  18.962  0.00  0.00    +0.000 N 
ATOM     34  H   UNL     1       6.015   4.364  19.862  0.00  0.00    +0.000 HD
ENDBRANCH  28  33
ENDBRANCH  22  28
ENDBRANCH  21  25
ENDBRANCH   1  21
TORSDOF 6
ENDMDL
MODEL 9
REMARK VINA RESULT:      -7.4      2.913      4.505
REMARK  Name = 
REMARK  9 active torsions:
REMARK  status: ('A' for Active; 'I' for Inactive)
REMARK    1  A    between atoms: C_1  and  C_2
REMARK    2  A    between atoms: N_4  and  C_5
REMARK    3  A    between atoms: C_5  and  C_6
REMARK    4  A    between atoms: C_5  and  C_7
REMARK    5  A    between atoms: C_10  and  O_11
REMARK    6  A    between atoms: O_11  and  C_12
REMARK    7  A    between atoms: N_15  and  C_16
REMARK    8  A    between atoms: N_21  and  C_22
REMARK    9  A    between atoms: N_21  and  C_23
REMARK                            x       y       z     vdW  Elec       q    Type
REMARK                         _______ _______ _______ _____ _____    ______ ____
ROOT
ATOM      1  C   UNL     1       1.516   8.893  21.164  0.00  0.00    +0.000 C 
ATOM      2  C   UNL     1       1.396   9.200  22.657  0.00  0.00    +0.000 C 
ATOM      3  C   UNL     1       0.002   9.789  22.813  0.00  0.00    +0.000 C 
ATOM      4  N   UNL     1      -0.216  10.493  21.565  0.00  0.00    +0.000 N 
ATOM      5  C   UNL     1       0.620   9.970  20.492  0.00  0.00    +0.000 C 
ENDROOT
BRANCH   4   6
ATOM      6  C   UNL     1      -1.259  11.365  21.348  0.00  0.00    +0.000 A 
ATOM      7  N   UNL     1      -1.546  11.714  20.080  0.00  0.00    +0.000 NA
ATOM      8  C   UNL     1      -2.501  12.644  19.915  0.00  0.00    +0.000 A 
ATOM      9  N   UNL     1      -3.250  13.216  20.874  0.00  0.00    +0.000 NA
ATOM     10  C   UNL     1      -3.008  12.834  22.140  0.00  0.00    +0.000 A 
ATOM     11  N   UNL     1      -3.763  13.380  23.180  0.00  0.00    +0.000 N 
ATOM     12  C   UNL     1      -4.133  12.537  24.310  0.00  0.00    +0.000 C 
ATOM     13  C   UNL     1      -1.982  11.927  22.401  0.00  0.00    +0.000 A 
ATOM     14  F   UNL     1      -1.673  11.622  23.672  0.00  0.00    +0.000 F 
BRANCH  11  15
ATOM     15  C   UNL     1      -4.385  14.712  23.105  0.00  0.00    +0.000 C 
ATOM     16  C   UNL     1      -3.409  15.831  23.498  0.00  0.00    +0.000 C 
ATOM     17  C   UNL     1      -4.115  17.172  23.681  0.00  0.00    +0.000 C 
ATOM     18  C   UNL     1      -5.381  17.014  24.507  0.00  0.00    +0.000 C 
ATOM     19  O   UNL     1      -6.273  16.128  23.832  0.00  0.00    +0.000 OA
ATOM     20  C   UNL     1      -5.752  14.794  23.816  0.00  0.00    +0.000 C 
ENDBRANCH  11  15
ENDBRANCH   4   6
BRANCH   1  21
ATOM     21  O   UNL     1       1.051   7.548  20.956  0.00  0.00    +0.000 OA
BRANCH  21  25
ATOM     22  C   UNL     1       3.134   4.991  18.365  0.00  0.00    +0.000 A 
ATOM     23  C   UNL     1       2.516   4.520  19.532  0.00  0.00    +0.000 A 
ATOM     24  C   UNL     1       1.848   5.405  20.392  0.00  0.00    +0.000 A 
ATOM     25  C   UNL     1       1.800   6.772  20.109  0.00  0.00    +0.000 A 
ATOM     26  C   UNL     1       2.447   7.251  18.973  0.00  0.00    +0.000 A 
ATOM     27  C   UNL     1       3.110   6.371  18.113  0.00  0.00    +0.000 A 
BRANCH  22  28
ATOM     28  C   UNL     1       3.734   4.022  17.358  0.00  0.00    +0.000 C 
ATOM     29  C   UNL     1       3.649   2.569  17.833  0.00  0.00    +0.000 C 
BRANCH  28  33
ATOM     30  C   UNL     1       7.424   4.875  17.577  0.00  0.00    +0.000 C 
ATOM     31  C   UNL     1       6.083   4.404  18.077  0.00  0.00    +0.000 C 
ATOM     32  O   UNL     1       5.893   4.053  19.235  0.00  0.00    +0.000 OA
ATOM     33  N   UNL     1       5.117   4.406  17.104  0.00  0.00    +0.000 N 
ATOM     34  H   UNL     1       5.354   4.754  16.186  0.00  0.00    +0.000 HD
ENDBRANCH  28  33
ENDBRANCH  22  28
ENDBRANCH  21  25
ENDBRANCH   1  21
TORSDOF 6
ENDMDL
