MODEL 1
REMARK VINA RESULT:      -7.2      0.000      0.000
REMARK  Name = 
REMARK  5 active torsions:
REMARK  status: ('A' for Active; 'I' for Inactive)
REMARK    1  A    between atoms: C_1  and  N_2
REMARK    2  A    between atoms: N_5  and  C_6
REMARK    3  A    between atoms: C_12  and  C_13
REMARK    4  A    between atoms: C_19  and  C_20
REMARK    5  A    between atoms: N_27  and  C_28
REMARK                            x       y       z     vdW  Elec       q    Type
REMARK                         _______ _______ _______ _____ _____    ______ ____
ROOT
ATOM      1  C   UNL     1      11.379  16.136  19.201  0.00  0.00    +0.000 C 
ATOM      2  N   UNL     1      10.017  15.794  19.597  0.00  0.00    +0.000 N 
ATOM      3  C   UNL     1       9.025  15.873  18.632  0.00  0.00    +0.000 C 
ATOM      4  O   UNL     1       9.223  16.367  17.521  0.00  0.00    +0.000 OA
ATOM      5  N   UNL     1       7.807  15.303  18.962  0.00  0.00    +0.000 N 
ATOM      6  C   UNL     1       6.872  14.973  17.897  0.00  0.00    +0.000 C 
ATOM      7  C   UNL     1       7.437  14.873  20.230  0.00  0.00    +0.000 C 
ATOM      8  O   UNL     1       6.248  14.682  20.493  0.00  0.00    +0.000 OA
ATOM      9  C   UNL     1       8.586  14.487  21.152  0.00  0.00    +0.000 C 
ATOM     10  C   UNL     1       9.853  15.307  20.896  0.00  0.00    +0.000 C 
ATOM     11  O   UNL     1      10.713  15.488  21.753  0.00  0.00    +0.000 OA
ATOM     12  C   UNL     1       8.232  14.513  22.679  0.00  0.00    +0.000 C 
ATOM     13  C   UNL     1       8.026  13.031  22.927  0.00  0.00    +0.000 C 
ATOM     14  N   UNL     1       8.426  12.243  21.973  0.00  0.00    +0.000 NA
ATOM     15  N   UNL     1       8.845  13.011  20.919  0.00  0.00    +0.000 N 
ENDROOT
BRANCH  12  16
ATOM     16  C   UNL     1       7.154  15.465  23.182  0.00  0.00    +0.000 A 
ATOM     17  C   UNL     1       5.859  15.034  23.520  0.00  0.00    +0.000 A 
ATOM     18  C   UNL     1       4.893  15.929  23.987  0.00  0.00    +0.000 A 
ATOM     19  C   UNL     1       5.201  17.277  24.127  0.00  0.00    +0.000 A 
ATOM     20  C   UNL     1       6.480  17.727  23.801  0.00  0.00    +0.000 A 
ATOM     21  C   UNL     1       7.448  16.832  23.333  0.00  0.00    +0.000 A 
ENDBRANCH  12  16
BRANCH  13  22
ATOM     22  C   UNL     1       7.488  12.482  24.199  0.00  0.00    +0.000 A 
ATOM     23  C   UNL     1       6.371  11.640  24.146  0.00  0.00    +0.000 A 
ATOM     24  C   UNL     1       5.815  11.135  25.324  0.00  0.00    +0.000 A 
ATOM     25  C   UNL     1       6.383  11.456  26.556  0.00  0.00    +0.000 A 
ATOM     26  C   UNL     1       7.504  12.283  26.613  0.00  0.00    +0.000 A 
ATOM     27  C   UNL     1       8.058  12.799  25.436  0.00  0.00    +0.000 A 
ENDBRANCH  13  22
BRANCH  15  28
ATOM     28  C   UNL     1       9.771  12.460  20.023  0.00  0.00    +0.000 A 
ATOM     29  C   UNL     1       9.465  12.159  18.691  0.00  0.00    +0.000 A 
ATOM     30  C   UNL     1      10.419  11.734  17.762  0.00  0.00    +0.000 A 
ATOM     31  C   UNL     1      11.717  11.499  18.176  0.00  0.00    +0.000 A 
ATOM     32  C   UNL     1      12.038  11.669  19.518  0.00  0.00    +0.000 A 
ATOM     33  C   UNL     1      11.074  12.140  20.427  0.00  0.00    +0.000 A 
ENDBRANCH  15  28
TORSDOF 3
ENDMDL
MODEL 2
REMARK VINA RESULT:      -7.0      0.169      1.192
REMARK  Name = 
REMARK  5 active torsions:
REMARK  status: ('A' for Active; 'I' for Inactive)
REMARK    1  A    between atoms: C_1  and  N_2
REMARK    2  A    between atoms: N_5  and  C_6
REMARK    3  A    between atoms: C_12  and  C_13
REMARK    4  A    between atoms: C_19  and  C_20
REMARK    5  A    between atoms: N_27  and  C_28
REMARK                            x       y       z     vdW  Elec       q    Type
REMARK                         _______ _______ _______ _____ _____    ______ ____
ROOT
ATOM      1  C   UNL     1      11.300  16.357  19.247  0.00  0.00    +0.000 C 
ATOM      2  N   UNL     1       9.939  15.966  19.602  0.00  0.00    +0.000 N 
ATOM      3  C   UNL     1       8.972  16.021  18.610  0.00  0.00    +0.000 C 
ATOM      4  O   UNL     1       9.184  16.532  17.509  0.00  0.00    +0.000 OA
ATOM      5  N   UNL     1       7.765  15.407  18.901  0.00  0.00    +0.000 N 
ATOM      6  C   UNL     1       6.872  15.057  17.808  0.00  0.00    +0.000 C 
ATOM      7  C   UNL     1       7.376  14.954  20.155  0.00  0.00    +0.000 C 
ATOM      8  O   UNL     1       6.187  14.721  20.384  0.00  0.00    +0.000 OA
ATOM      9  C   UNL     1       8.512  14.597  21.105  0.00  0.00    +0.000 C 
ATOM     10  C   UNL     1       9.756  15.461  20.891  0.00  0.00    +0.000 C 
ATOM     11  O   UNL     1      10.586  15.663  21.773  0.00  0.00    +0.000 OA
ATOM     12  C   UNL     1       8.115  14.597  22.622  0.00  0.00    +0.000 C 
ATOM     13  C   UNL     1       7.953  13.107  22.851  0.00  0.00    +0.000 C 
ATOM     14  N   UNL     1       8.405  12.342  21.902  0.00  0.00    +0.000 NA
ATOM     15  N   UNL     1       8.827  13.133  20.867  0.00  0.00    +0.000 N 
ENDROOT
BRANCH  12  16
ATOM     16  C   UNL     1       6.993  15.508  23.103  0.00  0.00    +0.000 A 
ATOM     17  C   UNL     1       5.708  15.029  23.413  0.00  0.00    +0.000 A 
ATOM     18  C   UNL     1       4.700  15.887  23.860  0.00  0.00    +0.000 A 
ATOM     19  C   UNL     1       4.955  17.245  24.009  0.00  0.00    +0.000 A 
ATOM     20  C   UNL     1       6.222  17.743  23.710  0.00  0.00    +0.000 A 
ATOM     21  C   UNL     1       7.233  16.884  23.261  0.00  0.00    +0.000 A 
ENDBRANCH  12  16
BRANCH  13  22
ATOM     22  C   UNL     1       7.399  12.528  24.103  0.00  0.00    +0.000 A 
ATOM     23  C   UNL     1       8.016  12.845  25.318  0.00  0.00    +0.000 A 
ATOM     24  C   UNL     1       7.547  12.289  26.511  0.00  0.00    +0.000 A 
ATOM     25  C   UNL     1       6.451  11.428  26.495  0.00  0.00    +0.000 A 
ATOM     26  C   UNL     1       5.824  11.121  25.288  0.00  0.00    +0.000 A 
ATOM     27  C   UNL     1       6.297  11.667  24.091  0.00  0.00    +0.000 A 
ENDBRANCH  13  22
BRANCH  15  28
ATOM     28  C   UNL     1       9.794  12.622  19.992  0.00  0.00    +0.000 A 
ATOM     29  C   UNL     1      11.127  12.407  20.360  0.00  0.00    +0.000 A 
ATOM     30  C   UNL     1      12.060  11.776  19.532  0.00  0.00    +0.000 A 
ATOM     31  C   UNL     1      11.700  11.423  18.245  0.00  0.00    +0.000 A 
ATOM     32  C   UNL     1      10.421  11.727  17.795  0.00  0.00    +0.000 A 
ATOM     33  C   UNL     1       9.484  12.322  18.658  0.00  0.00    +0.000 A 
ENDBRANCH  15  28
TORSDOF 3
ENDMDL
MODEL 3
REMARK VINA RESULT:      -7.0      7.031      9.747
REMARK  Name = 
REMARK  5 active torsions:
REMARK  status: ('A' for Active; 'I' for Inactive)
REMARK    1  A    between atoms: C_1  and  N_2
REMARK    2  A    between atoms: N_5  and  C_6
REMARK    3  A    between atoms: C_12  and  C_13
REMARK    4  A    between atoms: C_19  and  C_20
REMARK    5  A    between atoms: N_27  and  C_28
REMARK                            x       y       z     vdW  Elec       q    Type
REMARK                         _______ _______ _______ _____ _____    ______ ____
ROOT
ATOM      1  C   UNL     1      -3.143  11.517  19.044  0.00  0.00    +0.000 C 
ATOM      2  N   UNL     1      -2.411  12.598  19.696  0.00  0.00    +0.000 N 
ATOM      3  C   UNL     1      -2.977  13.172  20.825  0.00  0.00    +0.000 C 
ATOM      4  O   UNL     1      -4.125  12.916  21.190  0.00  0.00    +0.000 OA
ATOM      5  N   UNL     1      -2.153  14.006  21.562  0.00  0.00    +0.000 N 
ATOM      6  C   UNL     1      -2.509  14.308  22.940  0.00  0.00    +0.000 C 
ATOM      7  C   UNL     1      -0.915  14.481  21.151  0.00  0.00    +0.000 C 
ATOM      8  O   UNL     1      -0.409  15.452  21.718  0.00  0.00    +0.000 OA
ATOM      9  C   UNL     1      -0.188  13.617  20.129  0.00  0.00    +0.000 C 
ATOM     10  C   UNL     1      -1.143  12.885  19.185  0.00  0.00    +0.000 C 
ATOM     11  O   UNL     1      -0.816  12.512  18.062  0.00  0.00    +0.000 OA
ATOM     12  C   UNL     1       0.907  14.374  19.299  0.00  0.00    +0.000 C 
ATOM     13  C   UNL     1       2.155  13.910  20.026  0.00  0.00    +0.000 C 
ATOM     14  N   UNL     1       1.986  12.921  20.853  0.00  0.00    +0.000 NA
ATOM     15  N   UNL     1       0.650  12.630  20.918  0.00  0.00    +0.000 N 
ENDROOT
BRANCH  12  16
ATOM     16  C   UNL     1       0.756  15.869  19.047  0.00  0.00    +0.000 A 
ATOM     17  C   UNL     1       1.555  16.831  19.689  0.00  0.00    +0.000 A 
ATOM     18  C   UNL     1       1.400  18.195  19.432  0.00  0.00    +0.000 A 
ATOM     19  C   UNL     1       0.441  18.629  18.525  0.00  0.00    +0.000 A 
ATOM     20  C   UNL     1      -0.361  17.694  17.873  0.00  0.00    +0.000 A 
ATOM     21  C   UNL     1      -0.207  16.326  18.131  0.00  0.00    +0.000 A 
ENDBRANCH  12  16
BRANCH  13  22
ATOM     22  C   UNL     1       3.508  14.469  19.766  0.00  0.00    +0.000 A 
ATOM     23  C   UNL     1       3.981  14.494  18.449  0.00  0.00    +0.000 A 
ATOM     24  C   UNL     1       5.262  14.977  18.171  0.00  0.00    +0.000 A 
ATOM     25  C   UNL     1       6.067  15.450  19.206  0.00  0.00    +0.000 A 
ATOM     26  C   UNL     1       5.595  15.439  20.518  0.00  0.00    +0.000 A 
ATOM     27  C   UNL     1       4.317  14.947  20.801  0.00  0.00    +0.000 A 
ENDBRANCH  13  22
BRANCH  15  28
ATOM     28  C   UNL     1       0.270  11.336  21.301  0.00  0.00    +0.000 A 
ATOM     29  C   UNL     1       0.529  10.199  20.527  0.00  0.00    +0.000 A 
ATOM     30  C   UNL     1       0.269   8.898  20.966  0.00  0.00    +0.000 A 
ATOM     31  C   UNL     1      -0.362   8.700  22.180  0.00  0.00    +0.000 A 
ATOM     32  C   UNL     1      -0.746   9.807  22.928  0.00  0.00    +0.000 A 
ATOM     33  C   UNL     1      -0.436  11.106  22.490  0.00  0.00    +0.000 A 
ENDBRANCH  15  28
TORSDOF 3
ENDMDL
MODEL 4
REMARK VINA RESULT:      -6.9      0.143      1.186
REMARK  Name = 
REMARK  5 active torsions:
REMARK  status: ('A' for Active; 'I' for Inactive)
REMARK    1  A    between atoms: C_1  and  N_2
REMARK    2  A    between atoms: N_5  and  C_6
REMARK    3  A    between atoms: C_12  and  C_13
REMARK    4  A    between atoms: C_19  and  C_20
REMARK    5  A    between atoms: N_27  and  C_28
REMARK                            x       y       z     vdW  Elec       q    Type
REMARK                         _______ _______ _______ _____ _____    ______ ____
ROOT
ATOM      1  C   UNL     1      11.457  16.302  19.222  0.00  0.00    +0.000 C 
ATOM      2  N   UNL     1      10.094  15.940  19.596  0.00  0.00    +0.000 N 
ATOM      3  C   UNL     1       9.113  16.022  18.620  0.00  0.00    +0.000 C 
ATOM      4  O   UNL     1       9.319  16.534  17.519  0.00  0.00    +0.000 OA
ATOM      5  N   UNL     1       7.897  15.435  18.927  0.00  0.00    +0.000 N 
ATOM      6  C   UNL     1       6.978  15.111  17.847  0.00  0.00    +0.000 C 
ATOM      7  C   UNL     1       7.516  14.985  20.184  0.00  0.00    +0.000 C 
ATOM      8  O   UNL     1       6.326  14.778  20.431  0.00  0.00    +0.000 OA
ATOM      9  C   UNL     1       8.658  14.597  21.115  0.00  0.00    +0.000 C 
ATOM     10  C   UNL     1       9.919  15.433  20.886  0.00  0.00    +0.000 C 
ATOM     11  O   UNL     1      10.767  15.612  21.755  0.00  0.00    +0.000 OA
ATOM     12  C   UNL     1       8.285  14.598  22.638  0.00  0.00    +0.000 C 
ATOM     13  C   UNL     1       8.092  13.111  22.862  0.00  0.00    +0.000 C 
ATOM     14  N   UNL     1       8.512  12.341  21.903  0.00  0.00    +0.000 NA
ATOM     15  N   UNL     1       8.936  13.127  20.865  0.00  0.00    +0.000 N 
ENDROOT
BRANCH  12  16
ATOM     16  C   UNL     1       7.192  15.532  23.141  0.00  0.00    +0.000 A 
ATOM     17  C   UNL     1       7.401  16.909  23.337  0.00  0.00    +0.000 A 
ATOM     18  C   UNL     1       6.377  17.743  23.791  0.00  0.00    +0.000 A 
ATOM     19  C   UNL     1       5.118  17.219  24.059  0.00  0.00    +0.000 A 
ATOM     20  C   UNL     1       4.886  15.858  23.869  0.00  0.00    +0.000 A 
ATOM     21  C   UNL     1       5.911  15.021  23.415  0.00  0.00    +0.000 A 
ENDBRANCH  12  16
BRANCH  13  22
ATOM     22  C   UNL     1       7.545  12.538  24.120  0.00  0.00    +0.000 A 
ATOM     23  C   UNL     1       6.445  11.676  24.041  0.00  0.00    +0.000 A 
ATOM     24  C   UNL     1       5.881  11.148  25.205  0.00  0.00    +0.000 A 
ATOM     25  C   UNL     1       6.422  11.468  26.449  0.00  0.00    +0.000 A 
ATOM     26  C   UNL     1       7.526  12.315  26.532  0.00  0.00    +0.000 A 
ATOM     27  C   UNL     1       8.088  12.854  25.370  0.00  0.00    +0.000 A 
ENDBRANCH  13  22
BRANCH  15  28
ATOM     28  C   UNL     1       9.878  12.598  19.972  0.00  0.00    +0.000 A 
ATOM     29  C   UNL     1      11.210  12.347  20.321  0.00  0.00    +0.000 A 
ATOM     30  C   UNL     1      12.114  11.699  19.475  0.00  0.00    +0.000 A 
ATOM     31  C   UNL     1      11.728  11.365  18.189  0.00  0.00    +0.000 A 
ATOM     32  C   UNL     1      10.450  11.706  17.760  0.00  0.00    +0.000 A 
ATOM     33  C   UNL     1       9.541  12.317  18.641  0.00  0.00    +0.000 A 
ENDBRANCH  15  28
TORSDOF 3
ENDMDL
MODEL 5
REMARK VINA RESULT:      -6.8      7.013      9.738
REMARK  Name = 
REMARK  5 active torsions:
REMARK  status: ('A' for Active; 'I' for Inactive)
REMARK    1  A    between atoms: C_1  and  N_2
REMARK    2  A    between atoms: N_5  and  C_6
REMARK    3  A    between atoms: C_12  and  C_13
REMARK    4  A    between atoms: C_19  and  C_20
REMARK    5  A    between atoms: N_27  and  C_28
REMARK                            x       y       z     vdW  Elec       q    Type
REMARK                         _______ _______ _______ _____ _____    ______ ____
ROOT
ATOM      1  C   UNL     1      -3.145  11.513  19.049  0.00  0.00    +0.000 C 
ATOM      2  N   UNL     1      -2.400  12.597  19.684  0.00  0.00    +0.000 N 
ATOM      3  C   UNL     1      -2.953  13.186  20.810  0.00  0.00    +0.000 C 
ATOM      4  O   UNL     1      -4.100  12.942  21.187  0.00  0.00    +0.000 OA
ATOM      5  N   UNL     1      -2.118  14.022  21.532  0.00  0.00    +0.000 N 
ATOM      6  C   UNL     1      -2.461  14.342  22.909  0.00  0.00    +0.000 C 
ATOM      7  C   UNL     1      -0.880  14.485  21.106  0.00  0.00    +0.000 C 
ATOM      8  O   UNL     1      -0.363  15.458  21.658  0.00  0.00    +0.000 OA
ATOM      9  C   UNL     1      -0.167  13.605  20.088  0.00  0.00    +0.000 C 
ATOM     10  C   UNL     1      -1.135  12.869  19.159  0.00  0.00    +0.000 C 
ATOM     11  O   UNL     1      -0.818  12.483  18.038  0.00  0.00    +0.000 OA
ATOM     12  C   UNL     1       0.927  14.346  19.241  0.00  0.00    +0.000 C 
ATOM     13  C   UNL     1       2.177  13.881  19.963  0.00  0.00    +0.000 C 
ATOM     14  N   UNL     1       2.008  12.902  20.803  0.00  0.00    +0.000 NA
ATOM     15  N   UNL     1       0.670  12.621  20.881  0.00  0.00    +0.000 N 
ENDROOT
BRANCH  12  16
ATOM     16  C   UNL     1       0.784  15.839  18.974  0.00  0.00    +0.000 A 
ATOM     17  C   UNL     1      -0.196  16.365  18.114  0.00  0.00    +0.000 A 
ATOM     18  C   UNL     1      -0.310  17.740  17.895  0.00  0.00    +0.000 A 
ATOM     19  C   UNL     1       0.555  18.621  18.532  0.00  0.00    +0.000 A 
ATOM     20  C   UNL     1       1.533  18.123  19.392  0.00  0.00    +0.000 A 
ATOM     21  C   UNL     1       1.648  16.746  19.612  0.00  0.00    +0.000 A 
ENDBRANCH  12  16
BRANCH  13  22
ATOM     22  C   UNL     1       3.531  14.428  19.687  0.00  0.00    +0.000 A 
ATOM     23  C   UNL     1       4.298  14.895  20.761  0.00  0.00    +0.000 A 
ATOM     24  C   UNL     1       5.560  15.449  20.535  0.00  0.00    +0.000 A 
ATOM     25  C   UNL     1       6.066  15.525  19.238  0.00  0.00    +0.000 A 
ATOM     26  C   UNL     1       5.312  15.048  18.167  0.00  0.00    +0.000 A 
ATOM     27  C   UNL     1       4.044  14.501  18.387  0.00  0.00    +0.000 A 
ENDBRANCH  13  22
BRANCH  15  28
ATOM     28  C   UNL     1       0.285  11.334  21.281  0.00  0.00    +0.000 A 
ATOM     29  C   UNL     1       0.528  10.187  20.516  0.00  0.00    +0.000 A 
ATOM     30  C   UNL     1       0.264   8.892  20.971  0.00  0.00    +0.000 A 
ATOM     31  C   UNL     1      -0.357   8.712  22.193  0.00  0.00    +0.000 A 
ATOM     32  C   UNL     1      -0.727   9.829  22.933  0.00  0.00    +0.000 A 
ATOM     33  C   UNL     1      -0.411  11.121  22.478  0.00  0.00    +0.000 A 
ENDBRANCH  15  28
TORSDOF 3
ENDMDL
MODEL 6
REMARK VINA RESULT:      -6.6      7.467     10.102
REMARK  Name = 
REMARK  5 active torsions:
REMARK  status: ('A' for Active; 'I' for Inactive)
REMARK    1  A    between atoms: C_1  and  N_2
REMARK    2  A    between atoms: N_5  and  C_6
REMARK    3  A    between atoms: C_12  and  C_13
REMARK    4  A    between atoms: C_19  and  C_20
REMARK    5  A    between atoms: N_27  and  C_28
REMARK                            x       y       z     vdW  Elec       q    Type
REMARK                         _______ _______ _______ _____ _____    ______ ____
ROOT
ATOM      1  C   UNL     1       3.146  14.450  17.808  0.00  0.00    +0.000 C 
ATOM      2  N   UNL     1       2.468  14.248  19.084  0.00  0.00    +0.000 N 
ATOM      3  C   UNL     1       3.121  14.665  20.234  0.00  0.00    +0.000 C 
ATOM      4  O   UNL     1       4.294  15.040  20.228  0.00  0.00    +0.000 OA
ATOM      5  N   UNL     1       2.358  14.698  21.390  0.00  0.00    +0.000 N 
ATOM      6  C   UNL     1       2.821  15.493  22.517  0.00  0.00    +0.000 C 
ATOM      7  C   UNL     1       1.092  14.147  21.533  0.00  0.00    +0.000 C 
ATOM      8  O   UNL     1       0.632  13.944  22.659  0.00  0.00    +0.000 OA
ATOM      9  C   UNL     1       0.286  14.013  20.247  0.00  0.00    +0.000 C 
ATOM     10  C   UNL     1       1.164  13.752  19.022  0.00  0.00    +0.000 C 
ATOM     11  O   UNL     1       0.749  13.191  18.013  0.00  0.00    +0.000 OA
ATOM     12  C   UNL     1      -0.870  12.955  20.312  0.00  0.00    +0.000 C 
ATOM     13  C   UNL     1      -2.057  13.876  20.521  0.00  0.00    +0.000 C 
ATOM     14  N   UNL     1      -1.824  15.142  20.332  0.00  0.00    +0.000 NA
ATOM     15  N   UNL     1      -0.487  15.308  20.088  0.00  0.00    +0.000 N 
ENDROOT
BRANCH  12  16
ATOM     16  C   UNL     1      -0.739  11.757  21.243  0.00  0.00    +0.000 A 
ATOM     17  C   UNL     1      -1.365  11.702  22.501  0.00  0.00    +0.000 A 
ATOM     18  C   UNL     1      -1.234  10.586  23.331  0.00  0.00    +0.000 A 
ATOM     19  C   UNL     1      -0.472   9.498  22.922  0.00  0.00    +0.000 A 
ATOM     20  C   UNL     1       0.156   9.529  21.678  0.00  0.00    +0.000 A 
ATOM     21  C   UNL     1       0.026  10.647  20.845  0.00  0.00    +0.000 A 
ENDBRANCH  12  16
BRANCH  13  22
ATOM     22  C   UNL     1      -3.426  13.388  20.833  0.00  0.00    +0.000 A 
ATOM     23  C   UNL     1      -3.979  13.694  22.081  0.00  0.00    +0.000 A 
ATOM     24  C   UNL     1      -5.247  13.221  22.424  0.00  0.00    +0.000 A 
ATOM     25  C   UNL     1      -5.973  12.453  21.515  0.00  0.00    +0.000 A 
ATOM     26  C   UNL     1      -5.433  12.157  20.265  0.00  0.00    +0.000 A 
ATOM     27  C   UNL     1      -4.159  12.621  19.921  0.00  0.00    +0.000 A 
ENDBRANCH  13  22
BRANCH  15  28
ATOM     28  C   UNL     1      -0.079  16.437  19.365  0.00  0.00    +0.000 A 
ATOM     29  C   UNL     1       0.824  17.382  19.862  0.00  0.00    +0.000 A 
ATOM     30  C   UNL     1       1.332  18.435  19.094  0.00  0.00    +0.000 A 
ATOM     31  C   UNL     1       0.863  18.631  17.809  0.00  0.00    +0.000 A 
ATOM     32  C   UNL     1      -0.126  17.786  17.316  0.00  0.00    +0.000 A 
ATOM     33  C   UNL     1      -0.591  16.707  18.088  0.00  0.00    +0.000 A 
ENDBRANCH  15  28
TORSDOF 3
ENDMDL
MODEL 7
REMARK VINA RESULT:      -6.6      9.092     11.873
REMARK  Name = 
REMARK  5 active torsions:
REMARK  status: ('A' for Active; 'I' for Inactive)
REMARK    1  A    between atoms: C_1  and  N_2
REMARK    2  A    between atoms: N_5  and  C_6
REMARK    3  A    between atoms: C_12  and  C_13
REMARK    4  A    between atoms: C_19  and  C_20
REMARK    5  A    between atoms: N_27  and  C_28
REMARK                            x       y       z     vdW  Elec       q    Type
REMARK                         _______ _______ _______ _____ _____    ______ ____
ROOT
ATOM      1  C   UNL     1      -4.809  16.961  24.876  0.00  0.00    +0.000 C 
ATOM      2  N   UNL     1      -4.108  16.479  23.690  0.00  0.00    +0.000 N 
ATOM      3  C   UNL     1      -3.801  17.402  22.702  0.00  0.00    +0.000 C 
ATOM      4  O   UNL     1      -4.235  18.555  22.718  0.00  0.00    +0.000 OA
ATOM      5  N   UNL     1      -2.921  16.975  21.722  0.00  0.00    +0.000 N 
ATOM      6  C   UNL     1      -2.235  17.968  20.910  0.00  0.00    +0.000 C 
ATOM      7  C   UNL     1      -2.511  15.663  21.525  0.00  0.00    +0.000 C 
ATOM      8  O   UNL     1      -1.994  15.332  20.456  0.00  0.00    +0.000 OA
ATOM      9  C   UNL     1      -2.569  14.768  22.756  0.00  0.00    +0.000 C 
ATOM     10  C   UNL     1      -3.707  15.141  23.708  0.00  0.00    +0.000 C 
ATOM     11  O   UNL     1      -4.212  14.341  24.489  0.00  0.00    +0.000 OA
ATOM     12  C   UNL     1      -2.619  13.232  22.441  0.00  0.00    +0.000 C 
ATOM     13  C   UNL     1      -1.171  12.864  22.701  0.00  0.00    +0.000 C 
ATOM     14  N   UNL     1      -0.461  13.773  23.302  0.00  0.00    +0.000 NA
ATOM     15  N   UNL     1      -1.225  14.899  23.447  0.00  0.00    +0.000 N 
ENDROOT
BRANCH  12  16
ATOM     16  C   UNL     1      -3.242  12.754  21.136  0.00  0.00    +0.000 A 
ATOM     17  C   UNL     1      -2.472  12.314  20.045  0.00  0.00    +0.000 A 
ATOM     18  C   UNL     1      -3.071  11.873  18.862  0.00  0.00    +0.000 A 
ATOM     19  C   UNL     1      -4.455  11.862  18.744  0.00  0.00    +0.000 A 
ATOM     20  C   UNL     1      -5.240  12.292  19.813  0.00  0.00    +0.000 A 
ATOM     21  C   UNL     1      -4.641  12.734  20.998  0.00  0.00    +0.000 A 
ENDBRANCH  12  16
BRANCH  13  22
ATOM     22  C   UNL     1      -0.596  11.531  22.381  0.00  0.00    +0.000 A 
ATOM     23  C   UNL     1       0.333  11.434  21.339  0.00  0.00    +0.000 A 
ATOM     24  C   UNL     1       0.866  10.192  20.985  0.00  0.00    +0.000 A 
ATOM     25  C   UNL     1       0.485   9.046  21.682  0.00  0.00    +0.000 A 
ATOM     26  C   UNL     1      -0.430   9.140  22.730  0.00  0.00    +0.000 A 
ATOM     27  C   UNL     1      -0.974  10.380  23.080  0.00  0.00    +0.000 A 
ENDBRANCH  13  22
BRANCH  15  28
ATOM     28  C   UNL     1      -0.904  15.792  24.478  0.00  0.00    +0.000 A 
ATOM     29  C   UNL     1      -1.153  15.527  25.829  0.00  0.00    +0.000 A 
ATOM     30  C   UNL     1      -0.715  16.356  26.866  0.00  0.00    +0.000 A 
ATOM     31  C   UNL     1      -0.086  17.550  26.566  0.00  0.00    +0.000 A 
ATOM     32  C   UNL     1       0.074  17.912  25.233  0.00  0.00    +0.000 A 
ATOM     33  C   UNL     1      -0.334  17.043  24.205  0.00  0.00    +0.000 A 
ENDBRANCH  15  28
TORSDOF 3
ENDMDL
MODEL 8
REMARK VINA RESULT:      -6.5      1.817      6.318
REMARK  Name = 
REMARK  5 active torsions:
REMARK  status: ('A' for Active; 'I' for Inactive)
REMARK    1  A    between atoms: C_1  and  N_2
REMARK    2  A    between atoms: N_5  and  C_6
REMARK    3  A    between atoms: C_12  and  C_13
REMARK    4  A    between atoms: C_19  and  C_20
REMARK    5  A    between atoms: N_27  and  C_28
REMARK                            x       y       z     vdW  Elec       q    Type
REMARK                         _______ _______ _______ _____ _____    ______ ____
ROOT
ATOM      1  C   UNL     1       4.840  15.602  24.100  0.00  0.00    +0.000 C 
ATOM      2  N   UNL     1       6.261  15.688  23.776  0.00  0.00    +0.000 N 
ATOM      3  C   UNL     1       7.087  16.355  24.668  0.00  0.00    +0.000 C 
ATOM      4  O   UNL     1       6.646  17.002  25.619  0.00  0.00    +0.000 OA
ATOM      5  N   UNL     1       8.449  16.200  24.469  0.00  0.00    +0.000 N 
ATOM      6  C   UNL     1       9.359  16.503  25.562  0.00  0.00    +0.000 C 
ATOM      7  C   UNL     1       9.038  15.634  23.346  0.00  0.00    +0.000 C 
ATOM      8  O   UNL     1      10.234  15.826  23.115  0.00  0.00    +0.000 OA
ATOM      9  C   UNL     1       8.170  14.645  22.579  0.00  0.00    +0.000 C 
ATOM     10  C   UNL     1       6.681  14.988  22.643  0.00  0.00    +0.000 C 
ATOM     11  O   UNL     1       5.878  14.630  21.787  0.00  0.00    +0.000 OA
ATOM     12  C   UNL     1       8.604  14.419  21.089  0.00  0.00    +0.000 C 
ATOM     13  C   UNL     1       9.338  13.099  21.225  0.00  0.00    +0.000 C 
ATOM     14  N   UNL     1       9.173  12.482  22.358  0.00  0.00    +0.000 NA
ATOM     15  N   UNL     1       8.434  13.281  23.187  0.00  0.00    +0.000 N 
ENDROOT
BRANCH  12  16
ATOM     16  C   UNL     1       9.309  15.540  20.336  0.00  0.00    +0.000 A 
ATOM     17  C   UNL     1      10.693  15.536  20.093  0.00  0.00    +0.000 A 
ATOM     18  C   UNL     1      11.312  16.574  19.391  0.00  0.00    +0.000 A 
ATOM     19  C   UNL     1      10.558  17.641  18.916  0.00  0.00    +0.000 A 
ATOM     20  C   UNL     1       9.183  17.665  19.142  0.00  0.00    +0.000 A 
ATOM     21  C   UNL     1       8.562  16.626  19.845  0.00  0.00    +0.000 A 
ENDBRANCH  12  16
BRANCH  13  22
ATOM     22  C   UNL     1      10.127  12.485  20.125  0.00  0.00    +0.000 A 
ATOM     23  C   UNL     1      11.466  12.155  20.364  0.00  0.00    +0.000 A 
ATOM     24  C   UNL     1      12.249  11.611  19.344  0.00  0.00    +0.000 A 
ATOM     25  C   UNL     1      11.693  11.381  18.086  0.00  0.00    +0.000 A 
ATOM     26  C   UNL     1      10.356  11.695  17.847  0.00  0.00    +0.000 A 
ATOM     27  C   UNL     1       9.571  12.249  18.864  0.00  0.00    +0.000 A 
ENDBRANCH  13  22
BRANCH  15  28
ATOM     28  C   UNL     1       7.700  12.672  24.215  0.00  0.00    +0.000 A 
ATOM     29  C   UNL     1       6.583  11.862  23.985  0.00  0.00    +0.000 A 
ATOM     30  C   UNL     1       5.931  11.150  24.996  0.00  0.00    +0.000 A 
ATOM     31  C   UNL     1       6.329  11.312  26.310  0.00  0.00    +0.000 A 
ATOM     32  C   UNL     1       7.358  12.201  26.598  0.00  0.00    +0.000 A 
ATOM     33  C   UNL     1       8.030  12.873  25.562  0.00  0.00    +0.000 A 
ENDBRANCH  15  28
TORSDOF 3
ENDMDL
MODEL 9
REMARK VINA RESULT:      -6.5      1.792      6.306
REMARK  Name = 
REMARK  5 active torsions:
REMARK  status: ('A' for Active; 'I' for Inactive)
REMARK    1  A    between atoms: C_1  and  N_2
REMARK    2  A    between atoms: N_5  and  C_6
REMARK    3  A    between atoms: C_12  and  C_13
REMARK    4  A    between atoms: C_19  and  C_20
REMARK    5  A    between atoms: N_27  and  C_28
REMARK                            x       y       z     vdW  Elec       q    Type
REMARK                         _______ _______ _______ _____ _____    ______ ____
ROOT
ATOM      1  C   UNL     1       4.792  15.459  23.931  0.00  0.00    +0.000 C 
ATOM      2  N   UNL     1       6.211  15.593  23.619  0.00  0.00    +0.000 N 
ATOM      3  C   UNL     1       7.001  16.314  24.501  0.00  0.00    +0.000 C 
ATOM      4  O   UNL     1       6.525  16.968  25.430  0.00  0.00    +0.000 OA
ATOM      5  N   UNL     1       8.370  16.208  24.319  0.00  0.00    +0.000 N 
ATOM      6  C   UNL     1       9.256  16.574  25.413  0.00  0.00    +0.000 C 
ATOM      7  C   UNL     1       8.993  15.637  23.217  0.00  0.00    +0.000 C 
ATOM      8  O   UNL     1      10.183  15.870  22.993  0.00  0.00    +0.000 OA
ATOM      9  C   UNL     1       8.173  14.595  22.468  0.00  0.00    +0.000 C 
ATOM     10  C   UNL     1       6.671  14.881  22.508  0.00  0.00    +0.000 C 
ATOM     11  O   UNL     1       5.892  14.470  21.654  0.00  0.00    +0.000 OA
ATOM     12  C   UNL     1       8.631  14.348  20.988  0.00  0.00    +0.000 C 
ATOM     13  C   UNL     1       9.415  13.062  21.166  0.00  0.00    +0.000 C 
ATOM     14  N   UNL     1       9.262  12.468  22.313  0.00  0.00    +0.000 NA
ATOM     15  N   UNL     1       8.483  13.258  23.114  0.00  0.00    +0.000 N 
ENDROOT
BRANCH  12  16
ATOM     16  C   UNL     1       9.300  15.477  20.213  0.00  0.00    +0.000 A 
ATOM     17  C   UNL     1      10.686  15.519  19.981  0.00  0.00    +0.000 A 
ATOM     18  C   UNL     1      11.271  16.562  19.259  0.00  0.00    +0.000 A 
ATOM     19  C   UNL     1      10.482  17.588  18.752  0.00  0.00    +0.000 A 
ATOM     20  C   UNL     1       9.105  17.566  18.967  0.00  0.00    +0.000 A 
ATOM     21  C   UNL     1       8.518  16.521  19.690  0.00  0.00    +0.000 A 
ENDBRANCH  12  16
BRANCH  13  22
ATOM     22  C   UNL     1      10.239  12.451  20.091  0.00  0.00    +0.000 A 
ATOM     23  C   UNL     1       9.625  12.135  18.874  0.00  0.00    +0.000 A 
ATOM     24  C   UNL     1      10.359  11.525  17.853  0.00  0.00    +0.000 A 
ATOM     25  C   UNL     1      11.712  11.245  18.040  0.00  0.00    +0.000 A 
ATOM     26  C   UNL     1      12.331  11.571  19.246  0.00  0.00    +0.000 A 
ATOM     27  C   UNL     1      11.598  12.173  20.274  0.00  0.00    +0.000 A 
ENDBRANCH  13  22
BRANCH  15  28
ATOM     28  C   UNL     1       7.763  12.648  24.150  0.00  0.00    +0.000 A 
ATOM     29  C   UNL     1       8.062  12.831  25.505  0.00  0.00    +0.000 A 
ATOM     30  C   UNL     1       7.266  12.331  26.539  0.00  0.00    +0.000 A 
ATOM     31  C   UNL     1       6.177  11.532  26.239  0.00  0.00    +0.000 A 
ATOM     32  C   UNL     1       5.914  11.225  24.909  0.00  0.00    +0.000 A 
ATOM     33  C   UNL     1       6.700  11.775  23.881  0.00  0.00    +0.000 A 
ENDBRANCH  15  28
TORSDOF 3
ENDMDL
