MODEL 1
REMARK VINA RESULT:      -8.1      0.000      0.000
REMARK  Name = 
REMARK  6 active torsions:
REMARK  status: ('A' for Active; 'I' for Inactive)
REMARK    1  A    between atoms: C_1  and  O_2
REMARK    2  A    between atoms: O_2  and  C_3
REMARK    3  A    between atoms: C_3  and  C_5
REMARK    4  A    between atoms: C_8  and  C_9
REMARK    5  A    between atoms: C_12  and  C_13
REMARK    6  A    between atoms: C_20  and  C_21
REMARK                            x       y       z     vdW  Elec       q    Type
REMARK                         _______ _______ _______ _____ _____    ______ ____
ROOT
ATOM      1  C   UNL     1       2.664   7.293  18.617  0.00  0.00    +0.000 A 
ATOM      2  C   UNL     1       2.216   8.567  18.210  0.00  0.00    +0.000 A 
ATOM      3  C   UNL     1       1.408   9.378  19.020  0.00  0.00    +0.000 A 
ATOM      4  C   UNL     1       0.962   8.941  20.268  0.00  0.00    +0.000 A 
ATOM      5  C   UNL     1       1.379   7.665  20.674  0.00  0.00    +0.000 A 
ATOM      6  C   UNL     1       2.237   6.849  19.892  0.00  0.00    +0.000 A 
ATOM      7  C   UNL     1       2.626   5.527  20.505  0.00  0.00    +0.000 C 
ENDROOT
BRANCH   1  11
ATOM      8  C   UNL     1       5.345   5.103  15.990  0.00  0.00    +0.000 A 
ATOM      9  C   UNL     1       5.403   6.493  16.068  0.00  0.00    +0.000 A 
ATOM     10  C   UNL     1       4.540   7.189  16.927  0.00  0.00    +0.000 A 
ATOM     11  C   UNL     1       3.567   6.528  17.705  0.00  0.00    +0.000 A 
ATOM     12  C   UNL     1       3.492   5.134  17.554  0.00  0.00    +0.000 A 
ATOM     13  C   UNL     1       4.384   4.423  16.740  0.00  0.00    +0.000 A 
BRANCH   8  14
ATOM     14  C   UNL     1       6.312   4.397  15.107  0.00  0.00    +0.000 C 
ATOM     15  O   UNL     1       7.521   4.525  15.195  0.00  0.00    +0.000 OA
BRANCH  14  17
ATOM     16  C   UNL     1       6.188   3.642  12.902  0.00  0.00    +0.000 C 
ATOM     17  O   UNL     1       5.654   3.605  14.227  0.00  0.00    +0.000 OA
ENDBRANCH  14  17
ENDBRANCH   8  14
ENDBRANCH   1  11
BRANCH   4  18
ATOM     18  C   UNL     1       0.088   9.776  21.120  0.00  0.00    +0.000 A 
ATOM     19  C   UNL     1      -0.136   9.480  22.473  0.00  0.00    +0.000 A 
ATOM     20  C   UNL     1      -0.952  10.296  23.255  0.00  0.00    +0.000 A 
ATOM     21  C   UNL     1      -1.528  11.405  22.667  0.00  0.00    +0.000 A 
ATOM     22  N   UNL     1      -1.354  11.736  21.373  0.00  0.00    +0.000 NA
ATOM     23  C   UNL     1      -0.561  10.916  20.639  0.00  0.00    +0.000 A 
ENDBRANCH   4  18
TORSDOF 4
ENDMDL
MODEL 2
REMARK VINA RESULT:      -8.1      0.606      1.002
REMARK  Name = 
REMARK  6 active torsions:
REMARK  status: ('A' for Active; 'I' for Inactive)
REMARK    1  A    between atoms: C_1  and  O_2
REMARK    2  A    between atoms: O_2  and  C_3
REMARK    3  A    between atoms: C_3  and  C_5
REMARK    4  A    between atoms: C_8  and  C_9
REMARK    5  A    between atoms: C_12  and  C_13
REMARK    6  A    between atoms: C_20  and  C_21
REMARK                            x       y       z     vdW  Elec       q    Type
REMARK                         _______ _______ _______ _____ _____    ______ ____
ROOT
ATOM      1  C   UNL     1       2.669   7.302  18.698  0.00  0.00    +0.000 A 
ATOM      2  C   UNL     1       2.236   8.585  18.305  0.00  0.00    +0.000 A 
ATOM      3  C   UNL     1       1.443   9.400  19.126  0.00  0.00    +0.000 A 
ATOM      4  C   UNL     1       0.997   8.958  20.373  0.00  0.00    +0.000 A 
ATOM      5  C   UNL     1       1.401   7.674  20.765  0.00  0.00    +0.000 A 
ATOM      6  C   UNL     1       2.243   6.854  19.972  0.00  0.00    +0.000 A 
ATOM      7  C   UNL     1       2.618   5.521  20.571  0.00  0.00    +0.000 C 
ENDROOT
BRANCH   1  11
ATOM      8  C   UNL     1       5.307   5.097  16.041  0.00  0.00    +0.000 A 
ATOM      9  C   UNL     1       5.439   6.475  16.191  0.00  0.00    +0.000 A 
ATOM     10  C   UNL     1       4.589   7.176  17.060  0.00  0.00    +0.000 A 
ATOM     11  C   UNL     1       3.557   6.534  17.775  0.00  0.00    +0.000 A 
ATOM     12  C   UNL     1       3.410   5.155  17.551  0.00  0.00    +0.000 A 
ATOM     13  C   UNL     1       4.287   4.436  16.727  0.00  0.00    +0.000 A 
BRANCH   8  14
ATOM     14  C   UNL     1       6.260   4.381  15.151  0.00  0.00    +0.000 C 
ATOM     15  O   UNL     1       7.472   4.470  15.254  0.00  0.00    +0.000 OA
BRANCH  14  17
ATOM     16  C   UNL     1       6.161   3.646  12.939  0.00  0.00    +0.000 C 
ATOM     17  O   UNL     1       5.588   3.630  14.247  0.00  0.00    +0.000 OA
ENDBRANCH  14  17
ENDBRANCH   8  14
ENDBRANCH   1  11
BRANCH   4  18
ATOM     18  C   UNL     1       0.140   9.797  21.237  0.00  0.00    +0.000 A 
ATOM     19  C   UNL     1      -0.594  10.881  20.731  0.00  0.00    +0.000 A 
ATOM     20  C   UNL     1      -1.407  11.644  21.568  0.00  0.00    +0.000 A 
ATOM     21  C   UNL     1      -1.476  11.303  22.905  0.00  0.00    +0.000 A 
ATOM     22  N   UNL     1      -0.791  10.279  23.448  0.00  0.00    +0.000 NA
ATOM     23  C   UNL     1      -0.003   9.562  22.607  0.00  0.00    +0.000 A 
ENDBRANCH   4  18
TORSDOF 4
ENDMDL
MODEL 3
REMARK VINA RESULT:      -8.0      0.803      1.028
REMARK  Name = 
REMARK  6 active torsions:
REMARK  status: ('A' for Active; 'I' for Inactive)
REMARK    1  A    between atoms: C_1  and  O_2
REMARK    2  A    between atoms: O_2  and  C_3
REMARK    3  A    between atoms: C_3  and  C_5
REMARK    4  A    between atoms: C_8  and  C_9
REMARK    5  A    between atoms: C_12  and  C_13
REMARK    6  A    between atoms: C_20  and  C_21
REMARK                            x       y       z     vdW  Elec       q    Type
REMARK                         _______ _______ _______ _____ _____    ______ ____
ROOT
ATOM      1  C   UNL     1       2.964   7.076  18.297  0.00  0.00    +0.000 A 
ATOM      2  C   UNL     1       2.450   8.348  17.967  0.00  0.00    +0.000 A 
ATOM      3  C   UNL     1       1.668   9.101  18.855  0.00  0.00    +0.000 A 
ATOM      4  C   UNL     1       1.315   8.603  20.110  0.00  0.00    +0.000 A 
ATOM      5  C   UNL     1       1.799   7.329  20.441  0.00  0.00    +0.000 A 
ATOM      6  C   UNL     1       2.632   6.573  19.578  0.00  0.00    +0.000 A 
ATOM      7  C   UNL     1       3.102   5.244  20.114  0.00  0.00    +0.000 C 
ENDROOT
BRANCH   1  11
ATOM      8  C   UNL     1       5.545   5.084  15.424  0.00  0.00    +0.000 A 
ATOM      9  C   UNL     1       5.466   6.474  15.465  0.00  0.00    +0.000 A 
ATOM     10  C   UNL     1       4.638   7.107  16.404  0.00  0.00    +0.000 A 
ATOM     11  C   UNL     1       3.833   6.378  17.303  0.00  0.00    +0.000 A 
ATOM     12  C   UNL     1       3.887   4.979  17.191  0.00  0.00    +0.000 A 
ATOM     13  C   UNL     1       4.751   4.335  16.294  0.00  0.00    +0.000 A 
BRANCH   8  14
ATOM     14  C   UNL     1       6.474   4.450  14.450  0.00  0.00    +0.000 C 
ATOM     15  O   UNL     1       6.211   3.430  13.836  0.00  0.00    +0.000 OA
BRANCH  14  17
ATOM     16  C   UNL     1       8.042   5.397  13.006  0.00  0.00    +0.000 C 
ATOM     17  O   UNL     1       7.616   5.171  14.350  0.00  0.00    +0.000 OA
ENDBRANCH  14  17
ENDBRANCH   8  14
ENDBRANCH   1  11
BRANCH   4  18
ATOM     18  C   UNL     1       0.469   9.376  21.045  0.00  0.00    +0.000 A 
ATOM     19  C   UNL     1       0.363   9.042  22.404  0.00  0.00    +0.000 A 
ATOM     20  C   UNL     1      -0.429   9.800  23.264  0.00  0.00    +0.000 A 
ATOM     21  C   UNL     1      -1.102  10.891  22.748  0.00  0.00    +0.000 A 
ATOM     22  N   UNL     1      -1.043  11.256  21.453  0.00  0.00    +0.000 NA
ATOM     23  C   UNL     1      -0.269  10.492  20.641  0.00  0.00    +0.000 A 
ENDBRANCH   4  18
TORSDOF 4
ENDMDL
MODEL 4
REMARK VINA RESULT:      -7.9      0.317      1.048
REMARK  Name = 
REMARK  6 active torsions:
REMARK  status: ('A' for Active; 'I' for Inactive)
REMARK    1  A    between atoms: C_1  and  O_2
REMARK    2  A    between atoms: O_2  and  C_3
REMARK    3  A    between atoms: C_3  and  C_5
REMARK    4  A    between atoms: C_8  and  C_9
REMARK    5  A    between atoms: C_12  and  C_13
REMARK    6  A    between atoms: C_20  and  C_21
REMARK                            x       y       z     vdW  Elec       q    Type
REMARK                         _______ _______ _______ _____ _____    ______ ____
ROOT
ATOM      1  C   UNL     1       2.575   7.323  18.650  0.00  0.00    +0.000 A 
ATOM      2  C   UNL     1       2.137   8.594  18.222  0.00  0.00    +0.000 A 
ATOM      3  C   UNL     1       1.347   9.431  19.024  0.00  0.00    +0.000 A 
ATOM      4  C   UNL     1       0.909   9.024  20.285  0.00  0.00    +0.000 A 
ATOM      5  C   UNL     1       1.317   7.752  20.712  0.00  0.00    +0.000 A 
ATOM      6  C   UNL     1       2.156   6.911  19.938  0.00  0.00    +0.000 A 
ATOM      7  C   UNL     1       2.538   5.597  20.573  0.00  0.00    +0.000 C 
ENDROOT
BRANCH   1  11
ATOM      8  C   UNL     1       5.093   4.986  15.989  0.00  0.00    +0.000 A 
ATOM      9  C   UNL     1       4.131   4.367  16.785  0.00  0.00    +0.000 A 
ATOM     10  C   UNL     1       3.316   5.132  17.633  0.00  0.00    +0.000 A 
ATOM     11  C   UNL     1       3.459   6.531  17.744  0.00  0.00    +0.000 A 
ATOM     12  C   UNL     1       4.482   7.114  16.978  0.00  0.00    +0.000 A 
ATOM     13  C   UNL     1       5.266   6.367  16.088  0.00  0.00    +0.000 A 
BRANCH   8  14
ATOM     14  C   UNL     1       5.902   4.147  15.065  0.00  0.00    +0.000 C 
ATOM     15  O   UNL     1       6.959   3.626  15.380  0.00  0.00    +0.000 OA
BRANCH  14  17
ATOM     16  C   UNL     1       6.124   3.521  12.828  0.00  0.00    +0.000 C 
ATOM     17  O   UNL     1       5.290   4.047  13.861  0.00  0.00    +0.000 OA
ENDBRANCH  14  17
ENDBRANCH   8  14
ENDBRANCH   1  11
BRANCH   4  18
ATOM     18  C   UNL     1       0.054   9.886  21.129  0.00  0.00    +0.000 A 
ATOM     19  C   UNL     1      -0.201   9.591  22.477  0.00  0.00    +0.000 A 
ATOM     20  C   UNL     1      -0.998  10.432  23.252  0.00  0.00    +0.000 A 
ATOM     21  C   UNL     1      -1.524  11.565  22.662  0.00  0.00    +0.000 A 
ATOM     22  N   UNL     1      -1.318  11.897  21.373  0.00  0.00    +0.000 NA
ATOM     23  C   UNL     1      -0.545  11.052  20.646  0.00  0.00    +0.000 A 
ENDBRANCH   4  18
TORSDOF 4
ENDMDL
MODEL 5
REMARK VINA RESULT:      -7.8      0.790      1.317
REMARK  Name = 
REMARK  6 active torsions:
REMARK  status: ('A' for Active; 'I' for Inactive)
REMARK    1  A    between atoms: C_1  and  O_2
REMARK    2  A    between atoms: O_2  and  C_3
REMARK    3  A    between atoms: C_3  and  C_5
REMARK    4  A    between atoms: C_8  and  C_9
REMARK    5  A    between atoms: C_12  and  C_13
REMARK    6  A    between atoms: C_20  and  C_21
REMARK                            x       y       z     vdW  Elec       q    Type
REMARK                         _______ _______ _______ _____ _____    ______ ____
ROOT
ATOM      1  C   UNL     1       2.407   7.564  18.769  0.00  0.00    +0.000 A 
ATOM      2  C   UNL     1       2.003   8.820  18.272  0.00  0.00    +0.000 A 
ATOM      3  C   UNL     1       1.175   9.690  18.997  0.00  0.00    +0.000 A 
ATOM      4  C   UNL     1       0.664   9.331  20.245  0.00  0.00    +0.000 A 
ATOM      5  C   UNL     1       1.038   8.073  20.741  0.00  0.00    +0.000 A 
ATOM      6  C   UNL     1       1.914   7.201  20.046  0.00  0.00    +0.000 A 
ATOM      7  C   UNL     1       2.249   5.909  20.749  0.00  0.00    +0.000 C 
ENDROOT
BRANCH   1  11
ATOM      8  C   UNL     1       5.161   5.182  16.398  0.00  0.00    +0.000 A 
ATOM      9  C   UNL     1       5.283   6.568  16.450  0.00  0.00    +0.000 A 
ATOM     10  C   UNL     1       4.395   7.327  17.227  0.00  0.00    +0.000 A 
ATOM     11  C   UNL     1       3.335   6.734  17.944  0.00  0.00    +0.000 A 
ATOM     12  C   UNL     1       3.201   5.342  17.817  0.00  0.00    +0.000 A 
ATOM     13  C   UNL     1       4.114   4.568  17.087  0.00  0.00    +0.000 A 
BRANCH   8  14
ATOM     14  C   UNL     1       6.153   4.407  15.605  0.00  0.00    +0.000 C 
ATOM     15  O   UNL     1       5.846   3.631  14.716  0.00  0.00    +0.000 OA
BRANCH  14  17
ATOM     16  C   UNL     1       7.642   4.484  17.400  0.00  0.00    +0.000 C 
ATOM     17  O   UNL     1       7.412   4.703  16.007  0.00  0.00    +0.000 OA
ENDBRANCH  14  17
ENDBRANCH   8  14
ENDBRANCH   1  11
BRANCH   4  18
ATOM     18  C   UNL     1      -0.231  10.228  21.009  0.00  0.00    +0.000 A 
ATOM     19  C   UNL     1      -0.397  10.109  22.397  0.00  0.00    +0.000 A 
ATOM     20  C   UNL     1      -1.235  10.980  23.091  0.00  0.00    +0.000 A 
ATOM     21  C   UNL     1      -1.892  11.966  22.380  0.00  0.00    +0.000 A 
ATOM     22  N   UNL     1      -1.776  12.125  21.047  0.00  0.00    +0.000 NA
ATOM     23  C   UNL     1      -0.959  11.255  20.402  0.00  0.00    +0.000 A 
ENDBRANCH   4  18
TORSDOF 4
ENDMDL
MODEL 6
REMARK VINA RESULT:      -7.8      0.860      1.599
REMARK  Name = 
REMARK  6 active torsions:
REMARK  status: ('A' for Active; 'I' for Inactive)
REMARK    1  A    between atoms: C_1  and  O_2
REMARK    2  A    between atoms: O_2  and  C_3
REMARK    3  A    between atoms: C_3  and  C_5
REMARK    4  A    between atoms: C_8  and  C_9
REMARK    5  A    between atoms: C_12  and  C_13
REMARK    6  A    between atoms: C_20  and  C_21
REMARK                            x       y       z     vdW  Elec       q    Type
REMARK                         _______ _______ _______ _____ _____    ______ ____
ROOT
ATOM      1  C   UNL     1       2.461   7.546  18.785  0.00  0.00    +0.000 A 
ATOM      2  C   UNL     1       2.057   8.815  18.318  0.00  0.00    +0.000 A 
ATOM      3  C   UNL     1       1.252   9.678  19.075  0.00  0.00    +0.000 A 
ATOM      4  C   UNL     1       0.763   9.301  20.327  0.00  0.00    +0.000 A 
ATOM      5  C   UNL     1       1.137   8.032  20.793  0.00  0.00    +0.000 A 
ATOM      6  C   UNL     1       1.990   7.165  20.065  0.00  0.00    +0.000 A 
ATOM      7  C   UNL     1       2.329   5.858  20.738  0.00  0.00    +0.000 C 
ENDROOT
BRANCH   1  11
ATOM      8  C   UNL     1       5.145   5.186  16.314  0.00  0.00    +0.000 A 
ATOM      9  C   UNL     1       5.251   6.574  16.354  0.00  0.00    +0.000 A 
ATOM     10  C   UNL     1       4.386   7.326  17.163  0.00  0.00    +0.000 A 
ATOM     11  C   UNL     1       3.365   6.724  17.927  0.00  0.00    +0.000 A 
ATOM     12  C   UNL     1       3.244   5.329  17.813  0.00  0.00    +0.000 A 
ATOM     13  C   UNL     1       4.136   4.563  17.050  0.00  0.00    +0.000 A 
BRANCH   8  14
ATOM     14  C   UNL     1       6.114   4.420  15.485  0.00  0.00    +0.000 C 
ATOM     15  O   UNL     1       5.781   3.667  14.585  0.00  0.00    +0.000 OA
BRANCH  14  17
ATOM     16  C   UNL     1       7.639   4.435  17.251  0.00  0.00    +0.000 C 
ATOM     17  O   UNL     1       7.383   4.693  15.870  0.00  0.00    +0.000 OA
ENDBRANCH  14  17
ENDBRANCH   8  14
ENDBRANCH   1  11
BRANCH   4  18
ATOM     18  C   UNL     1      -0.108  10.192  21.124  0.00  0.00    +0.000 A 
ATOM     19  C   UNL     1      -0.867  11.215  20.535  0.00  0.00    +0.000 A 
ATOM     20  C   UNL     1      -1.692  12.028  21.311  0.00  0.00    +0.000 A 
ATOM     21  C   UNL     1      -1.748  11.798  22.672  0.00  0.00    +0.000 A 
ATOM     22  N   UNL     1      -1.039  10.836  23.293  0.00  0.00    +0.000 NA
ATOM     23  C   UNL     1      -0.240  10.068  22.510  0.00  0.00    +0.000 A 
ENDBRANCH   4  18
TORSDOF 4
ENDMDL
MODEL 7
REMARK VINA RESULT:      -7.7      0.942      1.403
REMARK  Name = 
REMARK  6 active torsions:
REMARK  status: ('A' for Active; 'I' for Inactive)
REMARK    1  A    between atoms: C_1  and  O_2
REMARK    2  A    between atoms: O_2  and  C_3
REMARK    3  A    between atoms: C_3  and  C_5
REMARK    4  A    between atoms: C_8  and  C_9
REMARK    5  A    between atoms: C_12  and  C_13
REMARK    6  A    between atoms: C_20  and  C_21
REMARK                            x       y       z     vdW  Elec       q    Type
REMARK                         _______ _______ _______ _____ _____    ______ ____
ROOT
ATOM      1  C   UNL     1       2.587   7.715  18.453  0.00  0.00    +0.000 A 
ATOM      2  C   UNL     1       2.194   8.890  17.778  0.00  0.00    +0.000 A 
ATOM      3  C   UNL     1       1.299   9.817  18.332  0.00  0.00    +0.000 A 
ATOM      4  C   UNL     1       0.707   9.598  19.577  0.00  0.00    +0.000 A 
ATOM      5  C   UNL     1       1.070   8.422  20.248  0.00  0.00    +0.000 A 
ATOM      6  C   UNL     1       2.011   7.496  19.728  0.00  0.00    +0.000 A 
ATOM      7  C   UNL     1       2.321   6.309  20.607  0.00  0.00    +0.000 C 
ENDROOT
BRANCH   1  11
ATOM      8  C   UNL     1       5.549   5.134  16.598  0.00  0.00    +0.000 A 
ATOM      9  C   UNL     1       5.755   6.509  16.680  0.00  0.00    +0.000 A 
ATOM     10  C   UNL     1       4.797   7.332  17.291  0.00  0.00    +0.000 A 
ATOM     11  C   UNL     1       3.588   6.818  17.803  0.00  0.00    +0.000 A 
ATOM     12  C   UNL     1       3.383   5.438  17.645  0.00  0.00    +0.000 A 
ATOM     13  C   UNL     1       4.356   4.598  17.086  0.00  0.00    +0.000 A 
BRANCH   8  14
ATOM     14  C   UNL     1       6.611   4.287  15.991  0.00  0.00    +0.000 C 
ATOM     15  O   UNL     1       7.787   4.356  16.305  0.00  0.00    +0.000 OA
BRANCH  14  17
ATOM     16  C   UNL     1       6.155   3.931  13.731  0.00  0.00    +0.000 C 
ATOM     17  O   UNL     1       6.077   3.448  15.073  0.00  0.00    +0.000 OA
ENDBRANCH  14  17
ENDBRANCH   8  14
ENDBRANCH   1  11
BRANCH   4  18
ATOM     18  C   UNL     1      -0.257  10.555  20.161  0.00  0.00    +0.000 A 
ATOM     19  C   UNL     1      -1.152  11.289  19.367  0.00  0.00    +0.000 A 
ATOM     20  C   UNL     1      -2.061  12.172  19.948  0.00  0.00    +0.000 A 
ATOM     21  C   UNL     1      -2.063  12.302  21.323  0.00  0.00    +0.000 A 
ATOM     22  N   UNL     1      -1.226  11.629  22.135  0.00  0.00    +0.000 NA
ATOM     23  C   UNL     1      -0.348  10.784  21.536  0.00  0.00    +0.000 A 
ENDBRANCH   4  18
TORSDOF 4
ENDMDL
MODEL 8
REMARK VINA RESULT:      -7.7      5.103      9.374
REMARK  Name = 
REMARK  6 active torsions:
REMARK  status: ('A' for Active; 'I' for Inactive)
REMARK    1  A    between atoms: C_1  and  O_2
REMARK    2  A    between atoms: O_2  and  C_3
REMARK    3  A    between atoms: C_3  and  C_5
REMARK    4  A    between atoms: C_8  and  C_9
REMARK    5  A    between atoms: C_12  and  C_13
REMARK    6  A    between atoms: C_20  and  C_21
REMARK                            x       y       z     vdW  Elec       q    Type
REMARK                         _______ _______ _______ _____ _____    ______ ____
ROOT
ATOM      1  C   UNL     1       1.357   8.626  19.951  0.00  0.00    +0.000 A 
ATOM      2  C   UNL     1       1.700   7.349  20.445  0.00  0.00    +0.000 A 
ATOM      3  C   UNL     1       2.483   6.443  19.717  0.00  0.00    +0.000 A 
ATOM      4  C   UNL     1       2.931   6.743  18.430  0.00  0.00    +0.000 A 
ATOM      5  C   UNL     1       2.576   7.999  17.917  0.00  0.00    +0.000 A 
ATOM      6  C   UNL     1       1.827   8.949  18.656  0.00  0.00    +0.000 A 
ATOM      7  C   UNL     1       1.578  10.269  17.968  0.00  0.00    +0.000 C 
ENDROOT
BRANCH   1  11
ATOM      8  C   UNL     1      -0.998  11.291  22.448  0.00  0.00    +0.000 A 
ATOM      9  C   UNL     1      -0.725  11.615  21.121  0.00  0.00    +0.000 A 
ATOM     10  C   UNL     1       0.028  10.743  20.320  0.00  0.00    +0.000 A 
ATOM     11  C   UNL     1       0.564   9.540  20.826  0.00  0.00    +0.000 A 
ATOM     12  C   UNL     1       0.325   9.276  22.185  0.00  0.00    +0.000 A 
ATOM     13  C   UNL     1      -0.470  10.114  22.979  0.00  0.00    +0.000 A 
BRANCH   8  14
ATOM     14  C   UNL     1      -1.843  12.217  23.249  0.00  0.00    +0.000 C 
ATOM     15  O   UNL     1      -1.513  13.357  23.529  0.00  0.00    +0.000 OA
BRANCH  14  17
ATOM     16  C   UNL     1      -3.948  12.487  24.219  0.00  0.00    +0.000 C 
ATOM     17  O   UNL     1      -3.004  11.614  23.596  0.00  0.00    +0.000 OA
ENDBRANCH  14  17
ENDBRANCH   8  14
ENDBRANCH   1  11
BRANCH   4  18
ATOM     18  C   UNL     1       3.737   5.785  17.641  0.00  0.00    +0.000 A 
ATOM     19  C   UNL     1       4.726   6.207  16.741  0.00  0.00    +0.000 A 
ATOM     20  C   UNL     1       5.480   5.280  16.024  0.00  0.00    +0.000 A 
ATOM     21  C   UNL     1       5.234   3.936  16.227  0.00  0.00    +0.000 A 
ATOM     22  N   UNL     1       4.295   3.471  17.073  0.00  0.00    +0.000 NA
ATOM     23  C   UNL     1       3.573   4.401  17.749  0.00  0.00    +0.000 A 
ENDBRANCH   4  18
TORSDOF 4
ENDMDL
MODEL 9
REMARK VINA RESULT:      -7.7      5.091      9.390
REMARK  Name = 
REMARK  6 active torsions:
REMARK  status: ('A' for Active; 'I' for Inactive)
REMARK    1  A    between atoms: C_1  and  O_2
REMARK    2  A    between atoms: O_2  and  C_3
REMARK    3  A    between atoms: C_3  and  C_5
REMARK    4  A    between atoms: C_8  and  C_9
REMARK    5  A    between atoms: C_12  and  C_13
REMARK    6  A    between atoms: C_20  and  C_21
REMARK                            x       y       z     vdW  Elec       q    Type
REMARK                         _______ _______ _______ _____ _____    ______ ____
ROOT
ATOM      1  C   UNL     1       1.380   8.609  19.850  0.00  0.00    +0.000 A 
ATOM      2  C   UNL     1       1.709   7.329  20.344  0.00  0.00    +0.000 A 
ATOM      3  C   UNL     1       2.518   6.430  19.635  0.00  0.00    +0.000 A 
ATOM      4  C   UNL     1       3.008   6.742  18.365  0.00  0.00    +0.000 A 
ATOM      5  C   UNL     1       2.668   8.002  17.852  0.00  0.00    +0.000 A 
ATOM      6  C   UNL     1       1.892   8.945  18.573  0.00  0.00    +0.000 A 
ATOM      7  C   UNL     1       1.664  10.270  17.889  0.00  0.00    +0.000 C 
ENDROOT
BRANCH   1  11
ATOM      8  C   UNL     1      -0.964  11.247  22.385  0.00  0.00    +0.000 A 
ATOM      9  C   UNL     1      -0.368  10.102  22.909  0.00  0.00    +0.000 A 
ATOM     10  C   UNL     1       0.395   9.262  22.084  0.00  0.00    +0.000 A 
ATOM     11  C   UNL     1       0.557   9.515  20.705  0.00  0.00    +0.000 A 
ATOM     12  C   UNL     1      -0.111  10.641  20.197  0.00  0.00    +0.000 A 
ATOM     13  C   UNL     1      -0.832  11.516  21.023  0.00  0.00    +0.000 A 
BRANCH   8  14
ATOM     14  C   UNL     1      -1.722  12.140  23.303  0.00  0.00    +0.000 C 
ATOM     15  O   UNL     1      -1.283  13.194  23.731  0.00  0.00    +0.000 OA
BRANCH  14  17
ATOM     16  C   UNL     1      -3.869  12.556  24.116  0.00  0.00    +0.000 C 
ATOM     17  O   UNL     1      -2.943  11.618  23.566  0.00  0.00    +0.000 OA
ENDBRANCH  14  17
ENDBRANCH   8  14
ENDBRANCH   1  11
BRANCH   4  18
ATOM     18  C   UNL     1       3.841   5.792  17.596  0.00  0.00    +0.000 A 
ATOM     19  C   UNL     1       4.830   6.225  16.700  0.00  0.00    +0.000 A 
ATOM     20  C   UNL     1       5.610   5.305  16.001  0.00  0.00    +0.000 A 
ATOM     21  C   UNL     1       5.390   3.959  16.218  0.00  0.00    +0.000 A 
ATOM     22  N   UNL     1       4.453   3.485  17.060  0.00  0.00    +0.000 NA
ATOM     23  C   UNL     1       3.705   4.407  17.718  0.00  0.00    +0.000 A 
ENDBRANCH   4  18
TORSDOF 4
ENDMDL
