MODEL 1
REMARK VINA RESULT:      -8.4      0.000      0.000
REMARK  Name = 
REMARK  4 active torsions:
REMARK  status: ('A' for Active; 'I' for Inactive)
REMARK    1  A    between atoms: N_4  and  S_5
REMARK    2  A    between atoms: S_5  and  C_8
REMARK    3  A    between atoms: N_20  and  C_21
REMARK    4  A    between atoms: C_21  and  C_22
REMARK                            x       y       z     vdW  Elec       q    Type
REMARK                         _______ _______ _______ _____ _____    ______ ____
ROOT
ATOM      1  O   UNL     1       2.654   8.194  17.876  0.00  0.00    +0.000 OA
ATOM      2  C   UNL     1       2.307   7.216  18.539  0.00  0.00    +0.000 C 
ATOM      3  C   UNL     1       2.169   5.839  17.881  0.00  0.00    +0.000 C 
ATOM      4  N   UNL     1       2.487   4.681  18.758  0.00  0.00    +0.000 NA
ATOM      5  C   UNL     1       1.671   4.792  20.006  0.00  0.00    +0.000 C 
ATOM      6  C   UNL     1       1.951   6.113  20.730  0.00  0.00    +0.000 C 
ATOM      7  N   UNL     1       1.890   7.296  19.870  0.00  0.00    +0.000 N 
ENDROOT
BRANCH   4   8
ATOM      8  S   UNL     1       4.148   4.407  19.025  0.00  0.00    +0.000 S 
ATOM      9  O   UNL     1       4.693   5.576  19.688  0.00  0.00    +0.000 OA
ATOM     10  O   UNL     1       4.304   3.091  19.602  0.00  0.00    +0.000 OA
BRANCH   8  11
ATOM     11  C   UNL     1       5.014   4.346  17.474  0.00  0.00    +0.000 A 
ATOM     12  C   UNL     1       4.725   3.726  16.270  0.00  0.00    +0.000 A 
ATOM     13  C   UNL     1       5.652   4.070  15.232  0.00  0.00    +0.000 A 
ATOM     14  C   UNL     1       5.728   3.721  13.866  0.00  0.00    +0.000 A 
ATOM     15  C   UNL     1       6.736   4.291  13.090  0.00  0.00    +0.000 A 
ATOM     16  C   UNL     1       7.618   5.164  13.702  0.00  0.00    +0.000 A 
ATOM     17 CL   UNL     1       8.849   5.931  12.778  0.00  0.00    +0.000 Cl
ATOM     18  N   UNL     1       7.620   5.508  15.003  0.00  0.00    +0.000 NA
ATOM     19  C   UNL     1       6.625   4.942  15.714  0.00  0.00    +0.000 A 
ATOM     20  S   UNL     1       6.453   5.261  17.379  0.00  0.00    +0.000 S 
ENDBRANCH   8  11
ENDBRANCH   4   8
BRANCH   7  21
ATOM     21  C   UNL     1       1.875   8.594  20.549  0.00  0.00    +0.000 C 
BRANCH  21  22
ATOM     22  C   UNL     1       0.948   9.568  19.858  0.00  0.00    +0.000 A 
ATOM     23  C   UNL     1       1.256  10.859  19.593  0.00  0.00    +0.000 A 
ATOM     24  C   UNL     1       0.126  11.381  18.902  0.00  0.00    +0.000 A 
ATOM     25  C   UNL     1      -0.216  12.541  18.337  0.00  0.00    +0.000 A 
ATOM     26  N   UNL     1      -1.419  12.684  17.690  0.00  0.00    +0.000 N 
ATOM     27  C   UNL     1      -2.313  11.636  17.587  0.00  0.00    +0.000 A 
ATOM     28  C   UNL     1      -2.103  10.425  18.132  0.00  0.00    +0.000 A 
ATOM     29  C   UNL     1      -0.819  10.243  18.840  0.00  0.00    +0.000 A 
ATOM     30  N   UNL     1      -0.333   9.179  19.425  0.00  0.00    +0.000 NA
ATOM     31  H   UNL     1      -1.621  13.551  17.203  0.00  0.00    +0.000 HD
ENDBRANCH  21  22
ENDBRANCH   7  21
TORSDOF 4
ENDMDL
MODEL 2
REMARK VINA RESULT:      -8.0      2.226      2.768
REMARK  Name = 
REMARK  4 active torsions:
REMARK  status: ('A' for Active; 'I' for Inactive)
REMARK    1  A    between atoms: N_4  and  S_5
REMARK    2  A    between atoms: S_5  and  C_8
REMARK    3  A    between atoms: N_20  and  C_21
REMARK    4  A    between atoms: C_21  and  C_22
REMARK                            x       y       z     vdW  Elec       q    Type
REMARK                         _______ _______ _______ _____ _____    ______ ____
ROOT
ATOM      1  O   UNL     1       2.728   6.642  17.773  0.00  0.00    +0.000 OA
ATOM      2  C   UNL     1       2.120   5.823  18.462  0.00  0.00    +0.000 C 
ATOM      3  C   UNL     1       1.412   4.631  17.810  0.00  0.00    +0.000 C 
ATOM      4  N   UNL     1       1.373   3.389  18.628  0.00  0.00    +0.000 NA
ATOM      5  C   UNL     1       0.799   3.721  19.967  0.00  0.00    +0.000 C 
ATOM      6  C   UNL     1       1.625   4.805  20.667  0.00  0.00    +0.000 C 
ATOM      7  N   UNL     1       1.911   5.975  19.835  0.00  0.00    +0.000 N 
ENDROOT
BRANCH   4   8
ATOM      8  S   UNL     1       2.834   2.514  18.685  0.00  0.00    +0.000 S 
ATOM      9  O   UNL     1       3.103   2.182  20.071  0.00  0.00    +0.000 OA
ATOM     10  O   UNL     1       2.786   1.481  17.674  0.00  0.00    +0.000 OA
BRANCH   8  11
ATOM     11  C   UNL     1       4.193   3.562  18.220  0.00  0.00    +0.000 A 
ATOM     12  C   UNL     1       4.693   3.947  16.988  0.00  0.00    +0.000 A 
ATOM     13  C   UNL     1       5.729   4.931  17.091  0.00  0.00    +0.000 A 
ATOM     14  C   UNL     1       6.482   5.630  16.123  0.00  0.00    +0.000 A 
ATOM     15  C   UNL     1       7.389   6.596  16.557  0.00  0.00    +0.000 A 
ATOM     16  C   UNL     1       7.511   6.814  17.918  0.00  0.00    +0.000 A 
ATOM     17 CL   UNL     1       8.579   8.029  18.501  0.00  0.00    +0.000 Cl
ATOM     18  N   UNL     1       6.849   6.159  18.889  0.00  0.00    +0.000 NA
ATOM     19  C   UNL     1       5.978   5.240  18.426  0.00  0.00    +0.000 A 
ATOM     20  S   UNL     1       5.039   4.311  19.502  0.00  0.00    +0.000 S 
ENDBRANCH   8  11
ENDBRANCH   4   8
BRANCH   7  21
ATOM     21  C   UNL     1       2.452   7.149  20.526  0.00  0.00    +0.000 C 
BRANCH  21  22
ATOM     22  C   UNL     1       1.460   8.289  20.536  0.00  0.00    +0.000 A 
ATOM     23  C   UNL     1       0.783   8.702  21.632  0.00  0.00    +0.000 A 
ATOM     24  C   UNL     1       0.007   9.814  21.198  0.00  0.00    +0.000 A 
ATOM     25  C   UNL     1      -0.835  10.688  21.756  0.00  0.00    +0.000 A 
ATOM     26  N   UNL     1      -1.389  11.705  21.017  0.00  0.00    +0.000 N 
ATOM     27  C   UNL     1      -1.090  11.871  19.679  0.00  0.00    +0.000 A 
ATOM     28  C   UNL     1      -0.278  11.048  18.991  0.00  0.00    +0.000 A 
ATOM     29  C   UNL     1       0.329   9.941  19.759  0.00  0.00    +0.000 A 
ATOM     30  N   UNL     1       1.174   9.023  19.370  0.00  0.00    +0.000 NA
ATOM     31  H   UNL     1      -1.964  12.400  21.482  0.00  0.00    +0.000 HD
ENDBRANCH  21  22
ENDBRANCH   7  21
TORSDOF 4
ENDMDL
MODEL 3
REMARK VINA RESULT:      -7.9      5.833     10.700
REMARK  Name = 
REMARK  4 active torsions:
REMARK  status: ('A' for Active; 'I' for Inactive)
REMARK    1  A    between atoms: N_4  and  S_5
REMARK    2  A    between atoms: S_5  and  C_8
REMARK    3  A    between atoms: N_20  and  C_21
REMARK    4  A    between atoms: C_21  and  C_22
REMARK                            x       y       z     vdW  Elec       q    Type
REMARK                         _______ _______ _______ _____ _____    ______ ____
ROOT
ATOM      1  O   UNL     1       1.413   8.701  21.936  0.00  0.00    +0.000 OA
ATOM      2  C   UNL     1       0.861   9.038  20.888  0.00  0.00    +0.000 C 
ATOM      3  C   UNL     1      -0.506   9.729  20.917  0.00  0.00    +0.000 C 
ATOM      4  N   UNL     1      -0.743  10.713  19.827  0.00  0.00    +0.000 NA
ATOM      5  C   UNL     1      -0.478  10.043  18.517  0.00  0.00    +0.000 C 
ATOM      6  C   UNL     1       0.953   9.501  18.455  0.00  0.00    +0.000 C 
ATOM      7  N   UNL     1       1.347   8.707  19.621  0.00  0.00    +0.000 N 
ENDROOT
BRANCH   4   8
ATOM      8  S   UNL     1       0.041  12.213  20.021  0.00  0.00    +0.000 S 
ATOM      9  O   UNL     1       1.399  11.955  20.457  0.00  0.00    +0.000 OA
ATOM     10  O   UNL     1      -0.218  13.017  18.847  0.00  0.00    +0.000 OA
BRANCH   8  11
ATOM     11  C   UNL     1      -0.684  13.111  21.373  0.00  0.00    +0.000 A 
ATOM     12  C   UNL     1      -1.898  12.988  22.028  0.00  0.00    +0.000 A 
ATOM     13  C   UNL     1      -2.002  13.847  23.170  0.00  0.00    +0.000 A 
ATOM     14  C   UNL     1      -3.012  14.027  24.141  0.00  0.00    +0.000 A 
ATOM     15  C   UNL     1      -2.774  14.913  25.190  0.00  0.00    +0.000 A 
ATOM     16  C   UNL     1      -1.561  15.578  25.223  0.00  0.00    +0.000 A 
ATOM     17 CL   UNL     1      -1.200  16.644  26.523  0.00  0.00    +0.000 Cl
ATOM     18  N   UNL     1      -0.575  15.476  24.312  0.00  0.00    +0.000 NA
ATOM     19  C   UNL     1      -0.843  14.604  23.320  0.00  0.00    +0.000 A 
ATOM     20  S   UNL     1       0.287  14.329  22.074  0.00  0.00    +0.000 S 
ENDBRANCH   8  11
ENDBRANCH   4   8
BRANCH   7  21
ATOM     21  C   UNL     1       2.591   7.942  19.497  0.00  0.00    +0.000 C 
BRANCH  21  22
ATOM     22  C   UNL     1       2.314   6.473  19.276  0.00  0.00    +0.000 A 
ATOM     23  C   UNL     1       2.486   5.832  18.096  0.00  0.00    +0.000 A 
ATOM     24  C   UNL     1       2.154   4.472  18.355  0.00  0.00    +0.000 A 
ATOM     25  C   UNL     1       2.140   3.328  17.666  0.00  0.00    +0.000 A 
ATOM     26  N   UNL     1       1.794   2.144  18.271  0.00  0.00    +0.000 N 
ATOM     27  C   UNL     1       1.462   2.087  19.611  0.00  0.00    +0.000 A 
ATOM     28  C   UNL     1       1.413   3.168  20.410  0.00  0.00    +0.000 A 
ATOM     29  C   UNL     1       1.775   4.457  19.786  0.00  0.00    +0.000 A 
ATOM     30  N   UNL     1       1.853   5.648  20.319  0.00  0.00    +0.000 NA
ATOM     31  H   UNL     1       1.865   1.279  17.746  0.00  0.00    +0.000 HD
ENDBRANCH  21  22
ENDBRANCH   7  21
TORSDOF 4
ENDMDL
MODEL 4
REMARK VINA RESULT:      -7.9      4.436      6.638
REMARK  Name = 
REMARK  4 active torsions:
REMARK  status: ('A' for Active; 'I' for Inactive)
REMARK    1  A    between atoms: N_4  and  S_5
REMARK    2  A    between atoms: S_5  and  C_8
REMARK    3  A    between atoms: N_20  and  C_21
REMARK    4  A    between atoms: C_21  and  C_22
REMARK                            x       y       z     vdW  Elec       q    Type
REMARK                         _______ _______ _______ _____ _____    ______ ____
ROOT
ATOM      1  O   UNL     1       0.926  14.223  20.624  0.00  0.00    +0.000 OA
ATOM      2  C   UNL     1       0.288  13.387  19.984  0.00  0.00    +0.000 C 
ATOM      3  C   UNL     1       1.013  12.335  19.138  0.00  0.00    +0.000 C 
ATOM      4  N   UNL     1       0.328  11.020  19.034  0.00  0.00    +0.000 NA
ATOM      5  C   UNL     1      -1.073  11.250  18.567  0.00  0.00    +0.000 C 
ATOM      6  C   UNL     1      -1.827  12.179  19.523  0.00  0.00    +0.000 C 
ATOM      7  N   UNL     1      -1.104  13.406  19.865  0.00  0.00    +0.000 N 
ENDROOT
BRANCH   4   8
ATOM      8  S   UNL     1       0.455  10.026  20.413  0.00  0.00    +0.000 S 
ATOM      9  O   UNL     1       1.271  10.718  21.391  0.00  0.00    +0.000 OA
ATOM     10  O   UNL     1      -0.868   9.553  20.756  0.00  0.00    +0.000 OA
BRANCH   8  11
ATOM     11  C   UNL     1       1.390   8.563  20.027  0.00  0.00    +0.000 A 
ATOM     12  C   UNL     1       1.605   7.386  20.722  0.00  0.00    +0.000 A 
ATOM     13  C   UNL     1       2.322   6.410  19.954  0.00  0.00    +0.000 A 
ATOM     14  C   UNL     1       2.720   5.083  20.228  0.00  0.00    +0.000 A 
ATOM     15  C   UNL     1       3.357   4.360  19.221  0.00  0.00    +0.000 A 
ATOM     16  C   UNL     1       3.576   4.984  18.006  0.00  0.00    +0.000 A 
ATOM     17 CL   UNL     1       4.314   4.119  16.716  0.00  0.00    +0.000 Cl
ATOM     18  N   UNL     1       3.252   6.253  17.695  0.00  0.00    +0.000 NA
ATOM     19  C   UNL     1       2.631   6.913  18.693  0.00  0.00    +0.000 A 
ATOM     20  S   UNL     1       2.134   8.530  18.490  0.00  0.00    +0.000 S 
ENDBRANCH   8  11
ENDBRANCH   4   8
BRANCH   7  21
ATOM     21  C   UNL     1      -1.876  14.449  20.546  0.00  0.00    +0.000 C 
BRANCH  21  22
ATOM     22  C   UNL     1      -2.832  13.856  21.556  0.00  0.00    +0.000 A 
ATOM     23  C   UNL     1      -2.452  13.277  22.719  0.00  0.00    +0.000 A 
ATOM     24  C   UNL     1      -3.664  12.907  23.368  0.00  0.00    +0.000 A 
ATOM     25  C   UNL     1      -4.011  12.344  24.528  0.00  0.00    +0.000 A 
ATOM     26  N   UNL     1      -5.332  12.172  24.862  0.00  0.00    +0.000 N 
ATOM     27  C   UNL     1      -6.349  12.584  24.022  0.00  0.00    +0.000 A 
ATOM     28  C   UNL     1      -6.136  13.141  22.817  0.00  0.00    +0.000 A 
ATOM     29  C   UNL     1      -4.725  13.334  22.428  0.00  0.00    +0.000 A 
ATOM     30  N   UNL     1      -4.224  13.877  21.349  0.00  0.00    +0.000 NA
ATOM     31  H   UNL     1      -5.570  11.813  25.781  0.00  0.00    +0.000 HD
ENDBRANCH  21  22
ENDBRANCH   7  21
TORSDOF 4
ENDMDL
MODEL 5
REMARK VINA RESULT:      -7.8      0.965      1.362
REMARK  Name = 
REMARK  4 active torsions:
REMARK  status: ('A' for Active; 'I' for Inactive)
REMARK    1  A    between atoms: N_4  and  S_5
REMARK    2  A    between atoms: S_5  and  C_8
REMARK    3  A    between atoms: N_20  and  C_21
REMARK    4  A    between atoms: C_21  and  C_22
REMARK                            x       y       z     vdW  Elec       q    Type
REMARK                         _______ _______ _______ _____ _____    ______ ____
ROOT
ATOM      1  O   UNL     1       2.647   8.555  18.601  0.00  0.00    +0.000 OA
ATOM      2  C   UNL     1       2.245   7.466  19.011  0.00  0.00    +0.000 C 
ATOM      3  C   UNL     1       2.134   6.269  18.060  0.00  0.00    +0.000 C 
ATOM      4  N   UNL     1       2.378   4.940  18.681  0.00  0.00    +0.000 NA
ATOM      5  C   UNL     1       1.482   4.800  19.870  0.00  0.00    +0.000 C 
ATOM      6  C   UNL     1       1.730   5.923  20.881  0.00  0.00    +0.000 C 
ATOM      7  N   UNL     1       1.740   7.266  20.298  0.00  0.00    +0.000 N 
ENDROOT
BRANCH   4   8
ATOM      8  S   UNL     1       4.013   4.571  18.986  0.00  0.00    +0.000 S 
ATOM      9  O   UNL     1       4.609   5.705  19.664  0.00  0.00    +0.000 OA
ATOM     10  O   UNL     1       4.081   3.247  19.561  0.00  0.00    +0.000 OA
BRANCH   8  11
ATOM     11  C   UNL     1       4.910   4.463  17.454  0.00  0.00    +0.000 A 
ATOM     12  C   UNL     1       4.646   3.806  16.265  0.00  0.00    +0.000 A 
ATOM     13  C   UNL     1       5.593   4.119  15.235  0.00  0.00    +0.000 A 
ATOM     14  C   UNL     1       5.696   3.728  13.882  0.00  0.00    +0.000 A 
ATOM     15  C   UNL     1       6.719   4.275  13.109  0.00  0.00    +0.000 A 
ATOM     16  C   UNL     1       7.588   5.167  13.711  0.00  0.00    +0.000 A 
ATOM     17 CL   UNL     1       8.837   5.907  12.788  0.00  0.00    +0.000 Cl
ATOM     18  N   UNL     1       7.564   5.552  15.001  0.00  0.00    +0.000 NA
ATOM     19  C   UNL     1       6.555   5.006  15.709  0.00  0.00    +0.000 A 
ATOM     20  S   UNL     1       6.351   5.377  17.360  0.00  0.00    +0.000 S 
ENDBRANCH   8  11
ENDBRANCH   4   8
BRANCH   7  21
ATOM     21  C   UNL     1       1.696   8.386  21.243  0.00  0.00    +0.000 C 
BRANCH  21  22
ATOM     22  C   UNL     1       0.848   9.520  20.714  0.00  0.00    +0.000 A 
ATOM     23  C   UNL     1      -0.267   9.356  19.965  0.00  0.00    +0.000 A 
ATOM     24  C   UNL     1      -0.762  10.670  19.734  0.00  0.00    +0.000 A 
ATOM     25  C   UNL     1      -1.814  11.217  19.120  0.00  0.00    +0.000 A 
ATOM     26  N   UNL     1      -2.011  12.577  19.134  0.00  0.00    +0.000 N 
ATOM     27  C   UNL     1      -1.141  13.426  19.791  0.00  0.00    +0.000 A 
ATOM     28  C   UNL     1      -0.032  13.008  20.425  0.00  0.00    +0.000 A 
ATOM     29  C   UNL     1       0.209  11.550  20.423  0.00  0.00    +0.000 A 
ATOM     30  N   UNL     1       1.170  10.864  20.984  0.00  0.00    +0.000 NA
ATOM     31  H   UNL     1      -2.858  12.960  18.726  0.00  0.00    +0.000 HD
ENDBRANCH  21  22
ENDBRANCH   7  21
TORSDOF 4
ENDMDL
MODEL 6
REMARK VINA RESULT:      -7.7      0.996      1.187
REMARK  Name = 
REMARK  4 active torsions:
REMARK  status: ('A' for Active; 'I' for Inactive)
REMARK    1  A    between atoms: N_4  and  S_5
REMARK    2  A    between atoms: S_5  and  C_8
REMARK    3  A    between atoms: N_20  and  C_21
REMARK    4  A    between atoms: C_21  and  C_22
REMARK                            x       y       z     vdW  Elec       q    Type
REMARK                         _______ _______ _______ _____ _____    ______ ____
ROOT
ATOM      1  O   UNL     1       2.748   7.949  17.058  0.00  0.00    +0.000 OA
ATOM      2  C   UNL     1       2.356   7.254  17.995  0.00  0.00    +0.000 C 
ATOM      3  C   UNL     1       2.056   5.766  17.788  0.00  0.00    +0.000 C 
ATOM      4  N   UNL     1       2.321   4.894  18.964  0.00  0.00    +0.000 NA
ATOM      5  C   UNL     1       1.596   5.456  20.144  0.00  0.00    +0.000 C 
ATOM      6  C   UNL     1       2.037   6.895  20.426  0.00  0.00    +0.000 C 
ATOM      7  N   UNL     1       2.029   7.769  19.252  0.00  0.00    +0.000 N 
ENDROOT
BRANCH   4   8
ATOM      8  S   UNL     1       3.964   4.543  19.250  0.00  0.00    +0.000 S 
ATOM      9  O   UNL     1       4.561   5.691  19.902  0.00  0.00    +0.000 OA
ATOM     10  O   UNL     1       4.050   3.228  19.844  0.00  0.00    +0.000 OA
BRANCH   8  11
ATOM     11  C   UNL     1       4.839   4.418  17.707  0.00  0.00    +0.000 A 
ATOM     12  C   UNL     1       4.587   3.702  16.549  0.00  0.00    +0.000 A 
ATOM     13  C   UNL     1       5.500   4.019  15.490  0.00  0.00    +0.000 A 
ATOM     14  C   UNL     1       5.599   3.582  14.151  0.00  0.00    +0.000 A 
ATOM     15  C   UNL     1       6.582   4.147  13.339  0.00  0.00    +0.000 A 
ATOM     16  C   UNL     1       7.416   5.102  13.890  0.00  0.00    +0.000 A 
ATOM     17 CL   UNL     1       8.611   5.864  12.916  0.00  0.00    +0.000 Cl
ATOM     18  N   UNL     1       7.394   5.536  15.165  0.00  0.00    +0.000 NA
ATOM     19  C   UNL     1       6.426   4.971  15.912  0.00  0.00    +0.000 A 
ATOM     20  S   UNL     1       6.231   5.395  17.551  0.00  0.00    +0.000 S 
ENDBRANCH   8  11
ENDBRANCH   4   8
BRANCH   7  21
ATOM     21  C   UNL     1       2.172   9.205  19.507  0.00  0.00    +0.000 C 
BRANCH  21  22
ATOM     22  C   UNL     1       0.865   9.935  19.301  0.00  0.00    +0.000 A 
ATOM     23  C   UNL     1       0.097   9.829  18.192  0.00  0.00    +0.000 A 
ATOM     24  C   UNL     1      -1.045  10.640  18.446  0.00  0.00    +0.000 A 
ATOM     25  C   UNL     1      -2.177  10.949  17.809  0.00  0.00    +0.000 A 
ATOM     26  N   UNL     1      -3.117  11.761  18.395  0.00  0.00    +0.000 N 
ATOM     27  C   UNL     1      -2.936  12.278  19.663  0.00  0.00    +0.000 A 
ATOM     28  C   UNL     1      -1.832  12.066  20.400  0.00  0.00    +0.000 A 
ATOM     29  C   UNL     1      -0.801  11.199  19.794  0.00  0.00    +0.000 A 
ATOM     30  N   UNL     1       0.341  10.793  20.286  0.00  0.00    +0.000 NA
ATOM     31  H   UNL     1      -4.002  11.918  17.922  0.00  0.00    +0.000 HD
ENDBRANCH  21  22
ENDBRANCH   7  21
TORSDOF 4
ENDMDL
MODEL 7
REMARK VINA RESULT:      -7.7      2.375      2.987
REMARK  Name = 
REMARK  4 active torsions:
REMARK  status: ('A' for Active; 'I' for Inactive)
REMARK    1  A    between atoms: N_4  and  S_5
REMARK    2  A    between atoms: S_5  and  C_8
REMARK    3  A    between atoms: N_20  and  C_21
REMARK    4  A    between atoms: C_21  and  C_22
REMARK                            x       y       z     vdW  Elec       q    Type
REMARK                         _______ _______ _______ _____ _____    ______ ____
ROOT
ATOM      1  O   UNL     1       2.678   6.690  17.712  0.00  0.00    +0.000 OA
ATOM      2  C   UNL     1       2.076   5.895  18.434  0.00  0.00    +0.000 C 
ATOM      3  C   UNL     1       1.278   4.739  17.823  0.00  0.00    +0.000 C 
ATOM      4  N   UNL     1       1.233   3.496  18.639  0.00  0.00    +0.000 NA
ATOM      5  C   UNL     1       0.754   3.846  20.011  0.00  0.00    +0.000 C 
ATOM      6  C   UNL     1       1.668   4.889  20.662  0.00  0.00    +0.000 C 
ATOM      7  N   UNL     1       1.955   6.050  19.818  0.00  0.00    +0.000 N 
ENDROOT
BRANCH   4   8
ATOM      8  S   UNL     1       2.654   2.557  18.608  0.00  0.00    +0.000 S 
ATOM      9  O   UNL     1       2.940   2.133  19.964  0.00  0.00    +0.000 OA
ATOM     10  O   UNL     1       2.536   1.589  17.541  0.00  0.00    +0.000 OA
BRANCH   8  11
ATOM     11  C   UNL     1       4.047   3.571  18.169  0.00  0.00    +0.000 A 
ATOM     12  C   UNL     1       4.555   3.977  16.947  0.00  0.00    +0.000 A 
ATOM     13  C   UNL     1       5.626   4.921  17.076  0.00  0.00    +0.000 A 
ATOM     14  C   UNL     1       6.399   5.624  16.126  0.00  0.00    +0.000 A 
ATOM     15  C   UNL     1       7.341   6.543  16.587  0.00  0.00    +0.000 A 
ATOM     16  C   UNL     1       7.476   6.712  17.953  0.00  0.00    +0.000 A 
ATOM     17 CL   UNL     1       8.590   7.869  18.569  0.00  0.00    +0.000 Cl
ATOM     18  N   UNL     1       6.796   6.049  18.907  0.00  0.00    +0.000 NA
ATOM     19  C   UNL     1       5.891   5.178  18.419  0.00  0.00    +0.000 A 
ATOM     20  S   UNL     1       4.924   4.248  19.469  0.00  0.00    +0.000 S 
ENDBRANCH   8  11
ENDBRANCH   4   8
BRANCH   7  21
ATOM     21  C   UNL     1       2.588   7.195  20.478  0.00  0.00    +0.000 C 
BRANCH  21  22
ATOM     22  C   UNL     1       1.595   8.308  20.724  0.00  0.00    +0.000 A 
ATOM     23  C   UNL     1       1.029   9.056  19.749  0.00  0.00    +0.000 A 
ATOM     24  C   UNL     1       0.137   9.938  20.422  0.00  0.00    +0.000 A 
ATOM     25  C   UNL     1      -0.736  10.887  20.075  0.00  0.00    +0.000 A 
ATOM     26  N   UNL     1      -1.494  11.530  21.024  0.00  0.00    +0.000 N 
ATOM     27  C   UNL     1      -1.393  11.214  22.365  0.00  0.00    +0.000 A 
ATOM     28  C   UNL     1      -0.536  10.298  22.849  0.00  0.00    +0.000 A 
ATOM     29  C   UNL     1       0.296   9.594  21.853  0.00  0.00    +0.000 A 
ATOM     30  N   UNL     1       1.175   8.641  22.025  0.00  0.00    +0.000 NA
ATOM     31  H   UNL     1      -2.204  12.191  20.727  0.00  0.00    +0.000 HD
ENDBRANCH  21  22
ENDBRANCH   7  21
TORSDOF 4
ENDMDL
MODEL 8
REMARK VINA RESULT:      -7.7      2.219      3.018
REMARK  Name = 
REMARK  4 active torsions:
REMARK  status: ('A' for Active; 'I' for Inactive)
REMARK    1  A    between atoms: N_4  and  S_5
REMARK    2  A    between atoms: S_5  and  C_8
REMARK    3  A    between atoms: N_20  and  C_21
REMARK    4  A    between atoms: C_21  and  C_22
REMARK                            x       y       z     vdW  Elec       q    Type
REMARK                         _______ _______ _______ _____ _____    ______ ____
ROOT
ATOM      1  O   UNL     1       1.767   5.254  17.537  0.00  0.00    +0.000 OA
ATOM      2  C   UNL     1       1.737   4.865  18.704  0.00  0.00    +0.000 C 
ATOM      3  C   UNL     1       1.194   3.473  19.046  0.00  0.00    +0.000 C 
ATOM      4  N   UNL     1       1.832   2.813  20.216  0.00  0.00    +0.000 NA
ATOM      5  C   UNL     1       1.766   3.745  21.382  0.00  0.00    +0.000 C 
ATOM      6  C   UNL     1       2.461   5.073  21.065  0.00  0.00    +0.000 C 
ATOM      7  N   UNL     1       2.053   5.677  19.795  0.00  0.00    +0.000 N 
ENDROOT
BRANCH   4   8
ATOM      8  S   UNL     1       3.379   2.159  19.925  0.00  0.00    +0.000 S 
ATOM      9  O   UNL     1       4.122   2.195  21.169  0.00  0.00    +0.000 OA
ATOM     10  O   UNL     1       3.219   0.921  19.195  0.00  0.00    +0.000 OA
BRANCH   8  11
ATOM     11  C   UNL     1       4.299   3.226  18.841  0.00  0.00    +0.000 A 
ATOM     12  C   UNL     1       5.121   4.314  19.083  0.00  0.00    +0.000 A 
ATOM     13  C   UNL     1       5.775   4.789  17.899  0.00  0.00    +0.000 A 
ATOM     14  C   UNL     1       6.714   5.820  17.676  0.00  0.00    +0.000 A 
ATOM     15  C   UNL     1       7.221   5.989  16.388  0.00  0.00    +0.000 A 
ATOM     16  C   UNL     1       6.771   5.142  15.392  0.00  0.00    +0.000 A 
ATOM     17 CL   UNL     1       7.402   5.277  13.798  0.00  0.00    +0.000 Cl
ATOM     18  N   UNL     1       5.855   4.165  15.533  0.00  0.00    +0.000 NA
ATOM     19  C   UNL     1       5.398   4.031  16.794  0.00  0.00    +0.000 A 
ATOM     20  S   UNL     1       4.238   2.843  17.177  0.00  0.00    +0.000 S 
ENDBRANCH   8  11
ENDBRANCH   4   8
BRANCH   7  21
ATOM     21  C   UNL     1       2.470   7.064  19.571  0.00  0.00    +0.000 C 
BRANCH  21  22
ATOM     22  C   UNL     1       1.567   8.036  20.296  0.00  0.00    +0.000 A 
ATOM     23  C   UNL     1       1.125   7.867  21.564  0.00  0.00    +0.000 A 
ATOM     24  C   UNL     1       0.353   9.028  21.851  0.00  0.00    +0.000 A 
ATOM     25  C   UNL     1      -0.319   9.512  22.898  0.00  0.00    +0.000 A 
ATOM     26  N   UNL     1      -0.935  10.739  22.835  0.00  0.00    +0.000 N 
ATOM     27  C   UNL     1      -0.873  11.521  21.698  0.00  0.00    +0.000 A 
ATOM     28  C   UNL     1      -0.250  11.141  20.569  0.00  0.00    +0.000 A 
ATOM     29  C   UNL     1       0.417   9.823  20.604  0.00  0.00    +0.000 A 
ATOM     30  N   UNL     1       1.121   9.220  19.682  0.00  0.00    +0.000 NA
ATOM     31  H   UNL     1      -1.374  11.117  23.669  0.00  0.00    +0.000 HD
ENDBRANCH  21  22
ENDBRANCH   7  21
TORSDOF 4
ENDMDL
MODEL 9
REMARK VINA RESULT:      -7.7      2.575      3.134
REMARK  Name = 
REMARK  4 active torsions:
REMARK  status: ('A' for Active; 'I' for Inactive)
REMARK    1  A    between atoms: N_4  and  S_5
REMARK    2  A    between atoms: S_5  and  C_8
REMARK    3  A    between atoms: N_20  and  C_21
REMARK    4  A    between atoms: C_21  and  C_22
REMARK                            x       y       z     vdW  Elec       q    Type
REMARK                         _______ _______ _______ _____ _____    ______ ____
ROOT
ATOM      1  O   UNL     1       1.395   5.116  17.375  0.00  0.00    +0.000 OA
ATOM      2  C   UNL     1       1.613   4.794  18.543  0.00  0.00    +0.000 C 
ATOM      3  C   UNL     1       1.177   3.422  19.068  0.00  0.00    +0.000 C 
ATOM      4  N   UNL     1       2.054   2.834  20.114  0.00  0.00    +0.000 NA
ATOM      5  C   UNL     1       2.215   3.832  21.215  0.00  0.00    +0.000 C 
ATOM      6  C   UNL     1       2.807   5.142  20.687  0.00  0.00    +0.000 C 
ATOM      7  N   UNL     1       2.135   5.671  19.498  0.00  0.00    +0.000 N 
ENDROOT
BRANCH   4   8
ATOM      8  S   UNL     1       3.518   2.172  19.545  0.00  0.00    +0.000 S 
ATOM      9  O   UNL     1       4.350   1.871  20.694  0.00  0.00    +0.000 OA
ATOM     10  O   UNL     1       3.206   1.150  18.571  0.00  0.00    +0.000 OA
BRANCH   8  11
ATOM     11  C   UNL     1       4.439   3.404  18.654  0.00  0.00    +0.000 A 
ATOM     12  C   UNL     1       4.363   3.861  17.349  0.00  0.00    +0.000 A 
ATOM     13  C   UNL     1       5.222   4.981  17.102  0.00  0.00    +0.000 A 
ATOM     14  C   UNL     1       5.440   5.785  15.962  0.00  0.00    +0.000 A 
ATOM     15  C   UNL     1       6.312   6.867  16.068  0.00  0.00    +0.000 A 
ATOM     16  C   UNL     1       6.927   7.094  17.286  0.00  0.00    +0.000 A 
ATOM     17 CL   UNL     1       7.973   8.445  17.483  0.00  0.00    +0.000 Cl
ATOM     18  N   UNL     1       6.788   6.347  18.397  0.00  0.00    +0.000 NA
ATOM     19  C   UNL     1       5.931   5.317  18.253  0.00  0.00    +0.000 A 
ATOM     20  S   UNL     1       5.615   4.259  19.551  0.00  0.00    +0.000 S 
ENDBRANCH   8  11
ENDBRANCH   4   8
BRANCH   7  21
ATOM     21  C   UNL     1       2.473   7.044  19.116  0.00  0.00    +0.000 C 
BRANCH  21  22
ATOM     22  C   UNL     1       1.667   8.051  19.904  0.00  0.00    +0.000 A 
ATOM     23  C   UNL     1       1.153   9.191  19.388  0.00  0.00    +0.000 A 
ATOM     24  C   UNL     1       0.441   9.801  20.459  0.00  0.00    +0.000 A 
ATOM     25  C   UNL     1      -0.308  10.894  20.629  0.00  0.00    +0.000 A 
ATOM     26  N   UNL     1      -0.903  11.160  21.838  0.00  0.00    +0.000 N 
ATOM     27  C   UNL     1      -0.763  10.307  22.916  0.00  0.00    +0.000 A 
ATOM     28  C   UNL     1      -0.017   9.189  22.885  0.00  0.00    +0.000 A 
ATOM     29  C   UNL     1       0.641   8.879  21.600  0.00  0.00    +0.000 A 
ATOM     30  N   UNL     1       1.383   7.855  21.269  0.00  0.00    +0.000 NA
ATOM     31  H   UNL     1      -1.530  11.955  21.918  0.00  0.00    +0.000 HD
ENDBRANCH  21  22
ENDBRANCH   7  21
TORSDOF 4
ENDMDL
