MODEL 1
REMARK VINA RESULT:      -6.1      0.000      0.000
REMARK  Name = 
REMARK  6 active torsions:
REMARK  status: ('A' for Active; 'I' for Inactive)
REMARK    1  A    between atoms: C_2  and  C_3
REMARK    2  A    between atoms: C_3  and  N_4
REMARK    3  A    between atoms: C_5  and  C_7
REMARK    4  A    between atoms: C_9  and  C_10
REMARK    5  A    between atoms: C_10  and  C_11
REMARK    6  A    between atoms: C_12  and  C_13
REMARK                            x       y       z     vdW  Elec       q    Type
REMARK                         _______ _______ _______ _____ _____    ______ ____
ROOT
ATOM      1  C   UNL     1       6.515   4.654  15.620  0.00  0.00    +0.000 A 
ATOM      2  C   UNL     1       7.330   5.345  16.510  0.00  0.00    +0.000 A 
ATOM      3  C   UNL     1       6.900   5.266  17.885  0.00  0.00    +0.000 A 
ATOM      4  C   UNL     1       5.727   4.538  17.992  0.00  0.00    +0.000 A 
ATOM      5  C   UNL     1       4.931   4.255  19.230  0.00  0.00    +0.000 C 
ATOM      6  S   UNL     1       5.205   3.938  16.473  0.00  0.00    +0.000 S 
ENDROOT
BRANCH   1   8
ATOM      7  N   UNL     1       5.989   3.477  13.546  0.00  0.00    +0.000 N 
ATOM      8  C   UNL     1       6.679   4.515  14.159  0.00  0.00    +0.000 C 
ATOM      9  O   UNL     1       7.400   5.267  13.498  0.00  0.00    +0.000 OA
ATOM     10  H   UNL     1       5.495   2.835  14.149  0.00  0.00    +0.000 HD
BRANCH   7  11
ATOM     11  C   UNL     1       6.087   3.171  12.123  0.00  0.00    +0.000 C 
BRANCH  11  13
ATOM     12  C   UNL     1       3.544   3.209  10.895  0.00  0.00    +0.000 C 
ATOM     13  C   UNL     1       4.718   3.192  11.462  0.00  0.00    +0.000 C 
ENDBRANCH  11  13
ENDBRANCH   7  11
ENDBRANCH   1   8
BRANCH   3  14
ATOM     14  C   UNL     1       7.615   5.912  19.044  0.00  0.00    +0.000 C 
ATOM     15  C   UNL     1       8.227   7.252  18.659  0.00  0.00    +0.000 C 
ENDBRANCH   3  14
TORSDOF 4
ENDMDL
MODEL 2
REMARK VINA RESULT:      -5.9      2.581      4.143
REMARK  Name = 
REMARK  6 active torsions:
REMARK  status: ('A' for Active; 'I' for Inactive)
REMARK    1  A    between atoms: C_2  and  C_3
REMARK    2  A    between atoms: C_3  and  N_4
REMARK    3  A    between atoms: C_5  and  C_7
REMARK    4  A    between atoms: C_9  and  C_10
REMARK    5  A    between atoms: C_10  and  C_11
REMARK    6  A    between atoms: C_12  and  C_13
REMARK                            x       y       z     vdW  Elec       q    Type
REMARK                         _______ _______ _______ _____ _____    ______ ____
ROOT
ATOM      1  C   UNL     1       4.176   5.062  17.220  0.00  0.00    +0.000 A 
ATOM      2  C   UNL     1       3.688   3.822  17.617  0.00  0.00    +0.000 A 
ATOM      3  C   UNL     1       2.810   3.874  18.762  0.00  0.00    +0.000 A 
ATOM      4  C   UNL     1       2.690   5.171  19.230  0.00  0.00    +0.000 A 
ATOM      5  C   UNL     1       1.912   5.652  20.417  0.00  0.00    +0.000 C 
ATOM      6  S   UNL     1       3.581   6.282  18.274  0.00  0.00    +0.000 S 
ENDROOT
BRANCH   1   8
ATOM      7  N   UNL     1       5.734   4.288  15.506  0.00  0.00    +0.000 N 
ATOM      8  C   UNL     1       5.073   5.363  16.085  0.00  0.00    +0.000 C 
ATOM      9  O   UNL     1       5.250   6.510  15.666  0.00  0.00    +0.000 OA
ATOM     10  H   UNL     1       5.627   3.388  15.953  0.00  0.00    +0.000 HD
BRANCH   7  11
ATOM     11  C   UNL     1       6.693   4.422  14.415  0.00  0.00    +0.000 C 
BRANCH  11  13
ATOM     12  C   UNL     1       5.758   3.154  12.072  0.00  0.00    +0.000 C 
ATOM     13  C   UNL     1       6.190   3.740  13.154  0.00  0.00    +0.000 C 
ENDBRANCH  11  13
ENDBRANCH   7  11
ENDBRANCH   1   8
BRANCH   3  14
ATOM     14  C   UNL     1       2.137   2.676  19.381  0.00  0.00    +0.000 C 
ATOM     15  C   UNL     1       0.762   2.423  18.779  0.00  0.00    +0.000 C 
ENDBRANCH   3  14
TORSDOF 4
ENDMDL
MODEL 3
REMARK VINA RESULT:      -5.8      3.419      6.043
REMARK  Name = 
REMARK  6 active torsions:
REMARK  status: ('A' for Active; 'I' for Inactive)
REMARK    1  A    between atoms: C_2  and  C_3
REMARK    2  A    between atoms: C_3  and  N_4
REMARK    3  A    between atoms: C_5  and  C_7
REMARK    4  A    between atoms: C_9  and  C_10
REMARK    5  A    between atoms: C_10  and  C_11
REMARK    6  A    between atoms: C_12  and  C_13
REMARK                            x       y       z     vdW  Elec       q    Type
REMARK                         _______ _______ _______ _____ _____    ______ ____
ROOT
ATOM      1  C   UNL     1       4.348   4.014  17.415  0.00  0.00    +0.000 A 
ATOM      2  C   UNL     1       4.997   3.883  16.192  0.00  0.00    +0.000 A 
ATOM      3  C   UNL     1       6.094   4.802  16.006  0.00  0.00    +0.000 A 
ATOM      4  C   UNL     1       6.220   5.644  17.098  0.00  0.00    +0.000 A 
ATOM      5  C   UNL     1       7.200   6.761  17.289  0.00  0.00    +0.000 C 
ATOM      6  S   UNL     1       5.068   5.288  18.318  0.00  0.00    +0.000 S 
ENDROOT
BRANCH   1   8
ATOM      7  N   UNL     1       2.179   3.933  18.533  0.00  0.00    +0.000 N 
ATOM      8  C   UNL     1       3.209   3.226  17.928  0.00  0.00    +0.000 C 
ATOM      9  O   UNL     1       3.163   1.995  17.844  0.00  0.00    +0.000 OA
ATOM     10  H   UNL     1       2.316   4.926  18.661  0.00  0.00    +0.000 HD
BRANCH   7  11
ATOM     11  C   UNL     1       1.011   3.301  19.138  0.00  0.00    +0.000 C 
BRANCH  11  13
ATOM     12  C   UNL     1       1.501   2.622  21.835  0.00  0.00    +0.000 C 
ATOM     13  C   UNL     1       1.275   2.935  20.589  0.00  0.00    +0.000 C 
ENDBRANCH  11  13
ENDBRANCH   7  11
ENDBRANCH   1   8
BRANCH   3  14
ATOM     14  C   UNL     1       6.968   4.856  14.779  0.00  0.00    +0.000 C 
ATOM     15  C   UNL     1       6.388   4.037  13.633  0.00  0.00    +0.000 C 
ENDBRANCH   3  14
TORSDOF 4
ENDMDL
MODEL 4
REMARK VINA RESULT:      -5.8      1.720      2.801
REMARK  Name = 
REMARK  6 active torsions:
REMARK  status: ('A' for Active; 'I' for Inactive)
REMARK    1  A    between atoms: C_2  and  C_3
REMARK    2  A    between atoms: C_3  and  N_4
REMARK    3  A    between atoms: C_5  and  C_7
REMARK    4  A    between atoms: C_9  and  C_10
REMARK    5  A    between atoms: C_10  and  C_11
REMARK    6  A    between atoms: C_12  and  C_13
REMARK                            x       y       z     vdW  Elec       q    Type
REMARK                         _______ _______ _______ _____ _____    ______ ____
ROOT
ATOM      1  C   UNL     1       6.088   4.515  15.562  0.00  0.00    +0.000 A 
ATOM      2  C   UNL     1       4.914   3.912  16.001  0.00  0.00    +0.000 A 
ATOM      3  C   UNL     1       4.638   4.114  17.403  0.00  0.00    +0.000 A 
ATOM      4  C   UNL     1       5.650   4.842  18.004  0.00  0.00    +0.000 A 
ATOM      5  C   UNL     1       5.771   5.233  19.446  0.00  0.00    +0.000 C 
ATOM      6  S   UNL     1       6.863   5.298  16.880  0.00  0.00    +0.000 S 
ENDROOT
BRANCH   1   8
ATOM      7  N   UNL     1       6.191   3.540  13.326  0.00  0.00    +0.000 N 
ATOM      8  C   UNL     1       6.649   4.521  14.196  0.00  0.00    +0.000 C 
ATOM      9  O   UNL     1       7.495   5.341  13.829  0.00  0.00    +0.000 OA
ATOM     10  H   UNL     1       5.574   2.837  13.709  0.00  0.00    +0.000 HD
BRANCH   7  11
ATOM     11  C   UNL     1       6.684   3.375  11.962  0.00  0.00    +0.000 C 
BRANCH  11  13
ATOM     12  C   UNL     1       6.219   0.754  11.020  0.00  0.00    +0.000 C 
ATOM     13  C   UNL     1       6.433   1.965  11.455  0.00  0.00    +0.000 C 
ENDBRANCH  11  13
ENDBRANCH   7  11
ENDBRANCH   1   8
BRANCH   3  14
ATOM     14  C   UNL     1       3.425   3.581  18.123  0.00  0.00    +0.000 C 
ATOM     15  C   UNL     1       2.161   4.341  17.745  0.00  0.00    +0.000 C 
ENDBRANCH   3  14
TORSDOF 4
ENDMDL
MODEL 5
REMARK VINA RESULT:      -5.8      2.630      4.195
REMARK  Name = 
REMARK  6 active torsions:
REMARK  status: ('A' for Active; 'I' for Inactive)
REMARK    1  A    between atoms: C_2  and  C_3
REMARK    2  A    between atoms: C_3  and  N_4
REMARK    3  A    between atoms: C_5  and  C_7
REMARK    4  A    between atoms: C_9  and  C_10
REMARK    5  A    between atoms: C_10  and  C_11
REMARK    6  A    between atoms: C_12  and  C_13
REMARK                            x       y       z     vdW  Elec       q    Type
REMARK                         _______ _______ _______ _____ _____    ______ ____
ROOT
ATOM      1  C   UNL     1       4.541   4.501  17.421  0.00  0.00    +0.000 A 
ATOM      2  C   UNL     1       3.328   3.847  17.232  0.00  0.00    +0.000 A 
ATOM      3  C   UNL     1       2.355   4.099  18.268  0.00  0.00    +0.000 A 
ATOM      4  C   UNL     1       2.884   4.919  19.249  0.00  0.00    +0.000 A 
ATOM      5  C   UNL     1       2.224   5.387  20.511  0.00  0.00    +0.000 C 
ATOM      6  S   UNL     1       4.492   5.396  18.887  0.00  0.00    +0.000 S 
ENDROOT
BRANCH   1   8
ATOM      7  N   UNL     1       5.504   4.477  15.178  0.00  0.00    +0.000 N 
ATOM      8  C   UNL     1       5.731   4.475  16.548  0.00  0.00    +0.000 C 
ATOM      9  O   UNL     1       6.881   4.441  16.995  0.00  0.00    +0.000 OA
ATOM     10  H   UNL     1       4.545   4.406  14.871  0.00  0.00    +0.000 HD
BRANCH   7  11
ATOM     11  C   UNL     1       6.569   4.399  14.183  0.00  0.00    +0.000 C 
BRANCH  11  13
ATOM     12  C   UNL     1       5.725   2.969  11.898  0.00  0.00    +0.000 C 
ATOM     13  C   UNL     1       6.115   3.629  12.953  0.00  0.00    +0.000 C 
ENDBRANCH  11  13
ENDBRANCH   7  11
ENDBRANCH   1   8
BRANCH   3  14
ATOM     14  C   UNL     1       0.962   3.525  18.292  0.00  0.00    +0.000 C 
ATOM     15  C   UNL     1       0.917   2.170  18.986  0.00  0.00    +0.000 C 
ENDBRANCH   3  14
TORSDOF 4
ENDMDL
MODEL 6
REMARK VINA RESULT:      -5.7      1.293      2.485
REMARK  Name = 
REMARK  6 active torsions:
REMARK  status: ('A' for Active; 'I' for Inactive)
REMARK    1  A    between atoms: C_2  and  C_3
REMARK    2  A    between atoms: C_3  and  N_4
REMARK    3  A    between atoms: C_5  and  C_7
REMARK    4  A    between atoms: C_9  and  C_10
REMARK    5  A    between atoms: C_10  and  C_11
REMARK    6  A    between atoms: C_12  and  C_13
REMARK                            x       y       z     vdW  Elec       q    Type
REMARK                         _______ _______ _______ _____ _____    ______ ____
ROOT
ATOM      1  C   UNL     1       6.017   4.554  15.702  0.00  0.00    +0.000 A 
ATOM      2  C   UNL     1       4.800   4.304  16.327  0.00  0.00    +0.000 A 
ATOM      3  C   UNL     1       4.804   4.560  17.747  0.00  0.00    +0.000 A 
ATOM      4  C   UNL     1       6.058   4.965  18.169  0.00  0.00    +0.000 A 
ATOM      5  C   UNL     1       6.498   5.289  19.565  0.00  0.00    +0.000 C 
ATOM      6  S   UNL     1       7.169   5.071  16.867  0.00  0.00    +0.000 S 
ENDROOT
BRANCH   1   8
ATOM      7  N   UNL     1       5.631   3.468  13.549  0.00  0.00    +0.000 N 
ATOM      8  C   UNL     1       6.347   4.416  14.269  0.00  0.00    +0.000 C 
ATOM      9  O   UNL     1       7.223   5.092  13.721  0.00  0.00    +0.000 OA
ATOM     10  H   UNL     1       4.998   2.878  14.070  0.00  0.00    +0.000 HD
BRANCH   7  11
ATOM     11  C   UNL     1       5.873   3.171  12.141  0.00  0.00    +0.000 C 
BRANCH  11  13
ATOM     12  C   UNL     1       3.466   3.204  10.664  0.00  0.00    +0.000 C 
ATOM     13  C   UNL     1       4.577   3.189  11.347  0.00  0.00    +0.000 C 
ENDBRANCH  11  13
ENDBRANCH   7  11
ENDBRANCH   1   8
BRANCH   3  14
ATOM     14  C   UNL     1       3.612   4.384  18.652  0.00  0.00    +0.000 C 
ATOM     15  C   UNL     1       2.353   4.030  17.871  0.00  0.00    +0.000 C 
ENDBRANCH   3  14
TORSDOF 4
ENDMDL
MODEL 7
REMARK VINA RESULT:      -5.7      2.462      3.183
REMARK  Name = 
REMARK  6 active torsions:
REMARK  status: ('A' for Active; 'I' for Inactive)
REMARK    1  A    between atoms: C_2  and  C_3
REMARK    2  A    between atoms: C_3  and  N_4
REMARK    3  A    between atoms: C_5  and  C_7
REMARK    4  A    between atoms: C_9  and  C_10
REMARK    5  A    between atoms: C_10  and  C_11
REMARK    6  A    between atoms: C_12  and  C_13
REMARK                            x       y       z     vdW  Elec       q    Type
REMARK                         _______ _______ _______ _____ _____    ______ ____
ROOT
ATOM      1  C   UNL     1       5.177   5.148  17.311  0.00  0.00    +0.000 A 
ATOM      2  C   UNL     1       4.326   6.248  17.340  0.00  0.00    +0.000 A 
ATOM      3  C   UNL     1       3.419   6.262  18.463  0.00  0.00    +0.000 A 
ATOM      4  C   UNL     1       3.586   5.130  19.242  0.00  0.00    +0.000 A 
ATOM      5  C   UNL     1       2.820   4.739  20.470  0.00  0.00    +0.000 C 
ATOM      6  S   UNL     1       4.836   4.119  18.645  0.00  0.00    +0.000 S 
ENDROOT
BRANCH   1   8
ATOM      7  N   UNL     1       5.823   4.701  15.000  0.00  0.00    +0.000 N 
ATOM      8  C   UNL     1       6.228   4.839  16.321  0.00  0.00    +0.000 C 
ATOM      9  O   UNL     1       7.413   4.694  16.634  0.00  0.00    +0.000 OA
ATOM     10  H   UNL     1       4.830   4.732  14.817  0.00  0.00    +0.000 HD
BRANCH   7  11
ATOM     11  C   UNL     1       6.727   4.344  13.911  0.00  0.00    +0.000 C 
BRANCH  11  13
ATOM     12  C   UNL     1       5.349   3.014  11.836  0.00  0.00    +0.000 C 
ATOM     13  C   UNL     1       5.985   3.628  12.794  0.00  0.00    +0.000 C 
ENDBRANCH  11  13
ENDBRANCH   7  11
ENDBRANCH   1   8
BRANCH   3  14
ATOM     14  C   UNL     1       2.410   7.347  18.735  0.00  0.00    +0.000 C 
ATOM     15  C   UNL     1       2.550   8.510  17.761  0.00  0.00    +0.000 C 
ENDBRANCH   3  14
TORSDOF 4
ENDMDL
MODEL 8
REMARK VINA RESULT:      -5.7      2.776      4.322
REMARK  Name = 
REMARK  6 active torsions:
REMARK  status: ('A' for Active; 'I' for Inactive)
REMARK    1  A    between atoms: C_2  and  C_3
REMARK    2  A    between atoms: C_3  and  N_4
REMARK    3  A    between atoms: C_5  and  C_7
REMARK    4  A    between atoms: C_9  and  C_10
REMARK    5  A    between atoms: C_10  and  C_11
REMARK    6  A    between atoms: C_12  and  C_13
REMARK                            x       y       z     vdW  Elec       q    Type
REMARK                         _______ _______ _______ _____ _____    ______ ____
ROOT
ATOM      1  C   UNL     1       3.709   4.541  17.545  0.00  0.00    +0.000 A 
ATOM      2  C   UNL     1       3.430   4.978  18.835  0.00  0.00    +0.000 A 
ATOM      3  C   UNL     1       2.351   4.267  19.477  0.00  0.00    +0.000 A 
ATOM      4  C   UNL     1       1.807   3.323  18.622  0.00  0.00    +0.000 A 
ATOM      5  C   UNL     1       0.650   2.407  18.881  0.00  0.00    +0.000 C 
ATOM      6  S   UNL     1       2.621   3.282  17.113  0.00  0.00    +0.000 S 
ENDROOT
BRANCH   1   8
ATOM      7  N   UNL     1       5.482   4.078  15.932  0.00  0.00    +0.000 N 
ATOM      8  C   UNL     1       4.754   5.035  16.625  0.00  0.00    +0.000 C 
ATOM      9  O   UNL     1       4.992   6.237  16.476  0.00  0.00    +0.000 OA
ATOM     10  H   UNL     1       5.311   3.110  16.167  0.00  0.00    +0.000 HD
BRANCH   7  11
ATOM     11  C   UNL     1       6.583   4.397  15.028  0.00  0.00    +0.000 C 
BRANCH  11  13
ATOM     12  C   UNL     1       6.070   3.446  12.419  0.00  0.00    +0.000 C 
ATOM     13  C   UNL     1       6.307   3.885  13.624  0.00  0.00    +0.000 C 
ENDBRANCH  11  13
ENDBRANCH   7  11
ENDBRANCH   1   8
BRANCH   3  14
ATOM     14  C   UNL     1       1.863   4.534  20.878  0.00  0.00    +0.000 C 
ATOM     15  C   UNL     1       2.196   3.388  21.823  0.00  0.00    +0.000 C 
ENDBRANCH   3  14
TORSDOF 4
ENDMDL
MODEL 9
REMARK VINA RESULT:      -5.7      2.434      2.938
REMARK  Name = 
REMARK  6 active torsions:
REMARK  status: ('A' for Active; 'I' for Inactive)
REMARK    1  A    between atoms: C_2  and  C_3
REMARK    2  A    between atoms: C_3  and  N_4
REMARK    3  A    between atoms: C_5  and  C_7
REMARK    4  A    between atoms: C_9  and  C_10
REMARK    5  A    between atoms: C_10  and  C_11
REMARK    6  A    between atoms: C_12  and  C_13
REMARK                            x       y       z     vdW  Elec       q    Type
REMARK                         _______ _______ _______ _____ _____    ______ ____
ROOT
ATOM      1  C   UNL     1       5.002   5.259  16.364  0.00  0.00    +0.000 A 
ATOM      2  C   UNL     1       4.543   6.462  16.892  0.00  0.00    +0.000 A 
ATOM      3  C   UNL     1       3.514   6.311  17.893  0.00  0.00    +0.000 A 
ATOM      4  C   UNL     1       3.189   4.977  18.067  0.00  0.00    +0.000 A 
ATOM      5  C   UNL     1       2.149   4.394  18.974  0.00  0.00    +0.000 C 
ATOM      6  S   UNL     1       4.143   3.952  17.076  0.00  0.00    +0.000 S 
ENDROOT
BRANCH   1   8
ATOM      7  N   UNL     1       5.681   4.390  14.187  0.00  0.00    +0.000 N 
ATOM      8  C   UNL     1       6.052   5.057  15.347  0.00  0.00    +0.000 C 
ATOM      9  O   UNL     1       7.214   5.443  15.506  0.00  0.00    +0.000 OA
ATOM     10  H   UNL     1       4.745   4.012  14.153  0.00  0.00    +0.000 HD
BRANCH   7  11
ATOM     11  C   UNL     1       6.611   4.063  13.110  0.00  0.00    +0.000 C 
BRANCH  11  13
ATOM     12  C   UNL     1       5.513   2.131  11.368  0.00  0.00    +0.000 C 
ATOM     13  C   UNL     1       6.020   3.023  12.172  0.00  0.00    +0.000 C 
ENDBRANCH  11  13
ENDBRANCH   7  11
ENDBRANCH   1   8
BRANCH   3  14
ATOM     14  C   UNL     1       2.862   7.453  18.629  0.00  0.00    +0.000 C 
ATOM     15  C   UNL     1       2.294   8.495  17.674  0.00  0.00    +0.000 C 
ENDBRANCH   3  14
TORSDOF 4
ENDMDL
