MODEL 1
REMARK VINA RESULT:      -8.4      0.000      0.000
REMARK  Name = 
REMARK  11 active torsions:
REMARK  status: ('A' for Active; 'I' for Inactive)
REMARK    1  A    between atoms: C_1  and  C_2
REMARK    2  A    between atoms: C_2  and  C_3
REMARK    3  A    between atoms: C_3  and  S_4
REMARK    4  A    between atoms: S_4  and  C_7
REMARK    5  A    between atoms: C_11  and  C_12
REMARK    6  A    between atoms: C_13  and  C_14
REMARK    7  A    between atoms: C_16  and  C_17
REMARK    8  A    between atoms: C_23  and  O_24
REMARK    9  A    between atoms: O_24  and  C_25
REMARK   10  A    between atoms: C_25  and  C_26
REMARK   11  A    between atoms: C_26  and  O_28
REMARK                            x       y       z     vdW  Elec       q    Type
REMARK                         _______ _______ _______ _____ _____    ______ ____
ROOT
ATOM      1  C   UNL     1       3.375   6.390  17.888  0.00  0.00    +0.000 A 
ATOM      2  C   UNL     1       4.576   6.444  17.161  0.00  0.00    +0.000 A 
ATOM      3  C   UNL     1       5.376   5.299  16.997  0.00  0.00    +0.000 A 
ATOM      4  C   UNL     1       4.939   4.087  17.545  0.00  0.00    +0.000 A 
ATOM      5  C   UNL     1       3.749   4.025  18.269  0.00  0.00    +0.000 A 
ATOM      6  C   UNL     1       2.979   5.179  18.483  0.00  0.00    +0.000 A 
ENDROOT
BRANCH   3   7
ATOM      7  C   UNL     1       6.689   5.338  16.253  0.00  0.00    +0.000 C 
ATOM      8  F   UNL     1       7.507   4.287  16.526  0.00  0.00    +0.000 F 
ATOM      9  F   UNL     1       6.513   5.338  14.902  0.00  0.00    +0.000 F 
ATOM     10  F   UNL     1       7.409   6.460  16.533  0.00  0.00    +0.000 F 
ENDBRANCH   3   7
BRANCH   1  12
ATOM     11  C   UNL     1       1.889   8.567  18.120  0.00  0.00    +0.000 C 
ATOM     12  C   UNL     1       2.582   7.589  18.000  0.00  0.00    +0.000 C 
BRANCH  11  17
ATOM     13  C   UNL     1      -1.105  10.800  18.106  0.00  0.00    +0.000 A 
ATOM     14  C   UNL     1      -0.565  12.001  18.571  0.00  0.00    +0.000 A 
ATOM     15  C   UNL     1       0.786  12.057  18.907  0.00  0.00    +0.000 A 
ATOM     16  C   UNL     1       1.595  10.923  18.766  0.00  0.00    +0.000 A 
ATOM     17  C   UNL     1       1.055   9.723  18.283  0.00  0.00    +0.000 A 
ATOM     18  C   UNL     1      -0.301   9.664  17.949  0.00  0.00    +0.000 A 
BRANCH  13  19
ATOM     19  S   UNL     1      -2.828  10.736  17.661  0.00  0.00    +0.000 S 
ATOM     20  O   UNL     1      -3.503  11.769  18.421  0.00  0.00    +0.000 OA
ATOM     21  O   UNL     1      -3.227   9.345  17.766  0.00  0.00    +0.000 OA
BRANCH  19  22
ATOM     22  C   UNL     1      -2.858  11.208  15.938  0.00  0.00    +0.000 C 
BRANCH  22  24
ATOM     23  C   UNL     1      -2.977   9.865  13.807  0.00  0.00    +0.000 C 
ATOM     24  C   UNL     1      -3.677  10.224  15.108  0.00  0.00    +0.000 C 
ENDBRANCH  22  24
ENDBRANCH  19  22
ENDBRANCH  13  19
ENDBRANCH  11  17
ENDBRANCH   1  12
BRANCH   6  25
ATOM     25  O   UNL     1       1.840   5.182  19.256  0.00  0.00    +0.000 OA
BRANCH  25  26
ATOM     26  C   UNL     1       2.068   5.068  20.666  0.00  0.00    +0.000 C 
BRANCH  26  27
ATOM     27  C   UNL     1       1.632   3.705  21.166  0.00  0.00    +0.000 C 
ATOM     28  O   UNL     1       2.150   3.134  22.115  0.00  0.00    +0.000 OA
BRANCH  27  29
ATOM     29  O   UNL     1       0.600   3.179  20.465  0.00  0.00    +0.000 OA
ATOM     30  H   UNL     1       0.941   2.577  19.768  0.00  0.00    +0.000 HD
ENDBRANCH  27  29
ENDBRANCH  26  27
ENDBRANCH  25  26
ENDBRANCH   6  25
TORSDOF 10
ENDMDL
MODEL 2
REMARK VINA RESULT:      -8.0      4.678      8.398
REMARK  Name = 
REMARK  11 active torsions:
REMARK  status: ('A' for Active; 'I' for Inactive)
REMARK    1  A    between atoms: C_1  and  C_2
REMARK    2  A    between atoms: C_2  and  C_3
REMARK    3  A    between atoms: C_3  and  S_4
REMARK    4  A    between atoms: S_4  and  C_7
REMARK    5  A    between atoms: C_11  and  C_12
REMARK    6  A    between atoms: C_13  and  C_14
REMARK    7  A    between atoms: C_16  and  C_17
REMARK    8  A    between atoms: C_23  and  O_24
REMARK    9  A    between atoms: O_24  and  C_25
REMARK   10  A    between atoms: C_25  and  C_26
REMARK   11  A    between atoms: C_26  and  O_28
REMARK                            x       y       z     vdW  Elec       q    Type
REMARK                         _______ _______ _______ _____ _____    ______ ____
ROOT
ATOM      1  C   UNL     1       0.140   9.928  18.307  0.00  0.00    +0.000 A 
ATOM      2  C   UNL     1      -0.896   9.986  17.359  0.00  0.00    +0.000 A 
ATOM      3  C   UNL     1      -1.963  10.891  17.505  0.00  0.00    +0.000 A 
ATOM      4  C   UNL     1      -1.961  11.764  18.598  0.00  0.00    +0.000 A 
ATOM      5  C   UNL     1      -0.937  11.713  19.545  0.00  0.00    +0.000 A 
ATOM      6  C   UNL     1       0.097  10.772  19.432  0.00  0.00    +0.000 A 
ENDROOT
BRANCH   3   7
ATOM      7  C   UNL     1      -3.106  10.946  16.521  0.00  0.00    +0.000 C 
ATOM      8  F   UNL     1      -2.730  11.287  15.260  0.00  0.00    +0.000 F 
ATOM      9  F   UNL     1      -3.748   9.750  16.412  0.00  0.00    +0.000 F 
ATOM     10  F   UNL     1      -4.060  11.847  16.887  0.00  0.00    +0.000 F 
ENDBRANCH   3   7
BRANCH   1  12
ATOM     11  C   UNL     1       2.104   8.193  17.943  0.00  0.00    +0.000 C 
ATOM     12  C   UNL     1       1.221   8.999  18.092  0.00  0.00    +0.000 C 
BRANCH  11  17
ATOM     13  C   UNL     1       3.993   4.976  18.097  0.00  0.00    +0.000 A 
ATOM     14  C   UNL     1       5.190   5.319  17.464  0.00  0.00    +0.000 A 
ATOM     15  C   UNL     1       5.355   6.611  16.970  0.00  0.00    +0.000 A 
ATOM     16  C   UNL     1       4.334   7.558  17.121  0.00  0.00    +0.000 A 
ATOM     17  C   UNL     1       3.141   7.216  17.772  0.00  0.00    +0.000 A 
ATOM     18  C   UNL     1       2.973   5.920  18.264  0.00  0.00    +0.000 A 
BRANCH  13  19
ATOM     19  S   UNL     1       3.793   3.328  18.743  0.00  0.00    +0.000 S 
ATOM     20  O   UNL     1       4.767   3.166  19.805  0.00  0.00    +0.000 OA
ATOM     21  O   UNL     1       3.778   2.438  17.598  0.00  0.00    +0.000 OA
BRANCH  19  22
ATOM     22  C   UNL     1       2.167   3.336  19.482  0.00  0.00    +0.000 C 
BRANCH  22  24
ATOM     23  C   UNL     1       1.713   2.571  21.842  0.00  0.00    +0.000 C 
ATOM     24  C   UNL     1       2.233   3.697  20.963  0.00  0.00    +0.000 C 
ENDBRANCH  22  24
ENDBRANCH  19  22
ENDBRANCH  13  19
ENDBRANCH  11  17
ENDBRANCH   1  12
BRANCH   6  25
ATOM     25  O   UNL     1       1.084  10.632  20.381  0.00  0.00    +0.000 OA
BRANCH  25  26
ATOM     26  C   UNL     1       0.626  10.197  21.668  0.00  0.00    +0.000 C 
BRANCH  26  27
ATOM     27  C   UNL     1       0.428   8.693  21.680  0.00  0.00    +0.000 C 
ATOM     28  O   UNL     1      -0.660   8.156  21.828  0.00  0.00    +0.000 OA
BRANCH  27  29
ATOM     29  O   UNL     1       1.574   7.997  21.499  0.00  0.00    +0.000 OA
ATOM     30  H   UNL     1       1.492   7.105  21.905  0.00  0.00    +0.000 HD
ENDBRANCH  27  29
ENDBRANCH  26  27
ENDBRANCH  25  26
ENDBRANCH   6  25
TORSDOF 10
ENDMDL
MODEL 3
REMARK VINA RESULT:      -8.0      2.130      2.660
REMARK  Name = 
REMARK  11 active torsions:
REMARK  status: ('A' for Active; 'I' for Inactive)
REMARK    1  A    between atoms: C_1  and  C_2
REMARK    2  A    between atoms: C_2  and  C_3
REMARK    3  A    between atoms: C_3  and  S_4
REMARK    4  A    between atoms: S_4  and  C_7
REMARK    5  A    between atoms: C_11  and  C_12
REMARK    6  A    between atoms: C_13  and  C_14
REMARK    7  A    between atoms: C_16  and  C_17
REMARK    8  A    between atoms: C_23  and  O_24
REMARK    9  A    between atoms: O_24  and  C_25
REMARK   10  A    between atoms: C_25  and  C_26
REMARK   11  A    between atoms: C_26  and  O_28
REMARK                            x       y       z     vdW  Elec       q    Type
REMARK                         _______ _______ _______ _____ _____    ______ ____
ROOT
ATOM      1  C   UNL     1       3.508   5.807  18.279  0.00  0.00    +0.000 A 
ATOM      2  C   UNL     1       4.891   6.023  18.156  0.00  0.00    +0.000 A 
ATOM      3  C   UNL     1       5.710   5.103  17.478  0.00  0.00    +0.000 A 
ATOM      4  C   UNL     1       5.120   3.978  16.892  0.00  0.00    +0.000 A 
ATOM      5  C   UNL     1       3.748   3.755  17.011  0.00  0.00    +0.000 A 
ATOM      6  C   UNL     1       2.938   4.641  17.737  0.00  0.00    +0.000 A 
ENDROOT
BRANCH   3   7
ATOM      7  C   UNL     1       7.204   5.292  17.364  0.00  0.00    +0.000 C 
ATOM      8  F   UNL     1       7.565   6.431  16.714  0.00  0.00    +0.000 F 
ATOM      9  F   UNL     1       7.809   5.347  18.582  0.00  0.00    +0.000 F 
ATOM     10  F   UNL     1       7.806   4.270  16.696  0.00  0.00    +0.000 F 
ENDBRANCH   3   7
BRANCH   1  12
ATOM     11  C   UNL     1       2.061   7.604  19.575  0.00  0.00    +0.000 C 
ATOM     12  C   UNL     1       2.714   6.797  18.963  0.00  0.00    +0.000 C 
BRANCH  11  17
ATOM     13  C   UNL     1       0.034  10.622  20.430  0.00  0.00    +0.000 A 
ATOM     14  C   UNL     1      -0.166  10.450  21.801  0.00  0.00    +0.000 A 
ATOM     15  C   UNL     1       0.355   9.322  22.431  0.00  0.00    +0.000 A 
ATOM     16  C   UNL     1       1.083   8.378  21.696  0.00  0.00    +0.000 A 
ATOM     17  C   UNL     1       1.298   8.561  20.323  0.00  0.00    +0.000 A 
ATOM     18  C   UNL     1       0.773   9.691  19.689  0.00  0.00    +0.000 A 
BRANCH  13  19
ATOM     19  S   UNL     1      -0.617  12.075  19.631  0.00  0.00    +0.000 S 
ATOM     20  O   UNL     1       0.285  12.405  18.546  0.00  0.00    +0.000 OA
ATOM     21  O   UNL     1      -0.902  13.029  20.686  0.00  0.00    +0.000 OA
BRANCH  19  22
ATOM     22  C   UNL     1      -2.163  11.533  18.919  0.00  0.00    +0.000 C 
BRANCH  22  24
ATOM     23  C   UNL     1      -3.261   9.883  17.359  0.00  0.00    +0.000 C 
ATOM     24  C   UNL     1      -1.967  10.303  18.039  0.00  0.00    +0.000 C 
ENDBRANCH  22  24
ENDBRANCH  19  22
ENDBRANCH  13  19
ENDBRANCH  11  17
ENDBRANCH   1  12
BRANCH   6  25
ATOM     25  O   UNL     1       1.595   4.422  17.947  0.00  0.00    +0.000 OA
BRANCH  25  26
ATOM     26  C   UNL     1       1.268   3.122  18.454  0.00  0.00    +0.000 C 
BRANCH  26  27
ATOM     27  C   UNL     1       1.173   3.150  19.967  0.00  0.00    +0.000 C 
ATOM     28  O   UNL     1       1.664   2.296  20.691  0.00  0.00    +0.000 OA
BRANCH  27  29
ATOM     29  O   UNL     1       0.500   4.222  20.444  0.00  0.00    +0.000 OA
ATOM     30  H   UNL     1       0.582   4.260  21.423  0.00  0.00    +0.000 HD
ENDBRANCH  27  29
ENDBRANCH  26  27
ENDBRANCH  25  26
ENDBRANCH   6  25
TORSDOF 10
ENDMDL
MODEL 4
REMARK VINA RESULT:      -8.0      4.943      8.672
REMARK  Name = 
REMARK  11 active torsions:
REMARK  status: ('A' for Active; 'I' for Inactive)
REMARK    1  A    between atoms: C_1  and  C_2
REMARK    2  A    between atoms: C_2  and  C_3
REMARK    3  A    between atoms: C_3  and  S_4
REMARK    4  A    between atoms: S_4  and  C_7
REMARK    5  A    between atoms: C_11  and  C_12
REMARK    6  A    between atoms: C_13  and  C_14
REMARK    7  A    between atoms: C_16  and  C_17
REMARK    8  A    between atoms: C_23  and  O_24
REMARK    9  A    between atoms: O_24  and  C_25
REMARK   10  A    between atoms: C_25  and  C_26
REMARK   11  A    between atoms: C_26  and  O_28
REMARK                            x       y       z     vdW  Elec       q    Type
REMARK                         _______ _______ _______ _____ _____    ______ ____
ROOT
ATOM      1  C   UNL     1      -0.035  10.034  18.465  0.00  0.00    +0.000 A 
ATOM      2  C   UNL     1      -1.034  10.000  17.478  0.00  0.00    +0.000 A 
ATOM      3  C   UNL     1      -2.044  10.978  17.435  0.00  0.00    +0.000 A 
ATOM      4  C   UNL     1      -2.020  12.013  18.376  0.00  0.00    +0.000 A 
ATOM      5  C   UNL     1      -1.033  12.053  19.361  0.00  0.00    +0.000 A 
ATOM      6  C   UNL     1      -0.060  11.046  19.441  0.00  0.00    +0.000 A 
ENDROOT
BRANCH   3   7
ATOM      7  C   UNL     1      -3.149  10.944  16.407  0.00  0.00    +0.000 C 
ATOM      8  F   UNL     1      -4.166  11.808  16.665  0.00  0.00    +0.000 F 
ATOM      9  F   UNL     1      -2.700  11.253  15.159  0.00  0.00    +0.000 F 
ATOM     10  F   UNL     1      -3.719   9.712  16.301  0.00  0.00    +0.000 F 
ENDBRANCH   3   7
BRANCH   1  12
ATOM     11  C   UNL     1       1.815   8.142  18.447  0.00  0.00    +0.000 C 
ATOM     12  C   UNL     1       0.989   9.020  18.445  0.00  0.00    +0.000 C 
BRANCH  11  17
ATOM     13  C   UNL     1       4.545   5.842  17.350  0.00  0.00    +0.000 A 
ATOM     14  C   UNL     1       4.645   4.979  18.444  0.00  0.00    +0.000 A 
ATOM     15  C   UNL     1       3.820   5.179  19.549  0.00  0.00    +0.000 A 
ATOM     16  C   UNL     1       2.892   6.227  19.554  0.00  0.00    +0.000 A 
ATOM     17  C   UNL     1       2.781   7.081  18.448  0.00  0.00    +0.000 A 
ATOM     18  C   UNL     1       3.610   6.884  17.341  0.00  0.00    +0.000 A 
BRANCH  13  19
ATOM     19  S   UNL     1       5.588   5.572  15.932  0.00  0.00    +0.000 S 
ATOM     20  O   UNL     1       5.369   6.682  15.025  0.00  0.00    +0.000 OA
ATOM     21  O   UNL     1       5.360   4.204  15.509  0.00  0.00    +0.000 OA
BRANCH  19  22
ATOM     22  C   UNL     1       7.250   5.702  16.573  0.00  0.00    +0.000 C 
BRANCH  22  24
ATOM     23  C   UNL     1       8.024   6.575  18.809  0.00  0.00    +0.000 C 
ATOM     24  C   UNL     1       7.405   6.930  17.465  0.00  0.00    +0.000 C 
ENDBRANCH  22  24
ENDBRANCH  19  22
ENDBRANCH  13  19
ENDBRANCH  11  17
ENDBRANCH   1  12
BRANCH   6  25
ATOM     25  O   UNL     1       0.885  11.001  20.441  0.00  0.00    +0.000 OA
BRANCH  25  26
ATOM     26  C   UNL     1       0.354  10.994  21.773  0.00  0.00    +0.000 C 
BRANCH  26  27
ATOM     27  C   UNL     1       0.667   9.680  22.461  0.00  0.00    +0.000 C 
ATOM     28  O   UNL     1       1.176   8.724  21.894  0.00  0.00    +0.000 OA
BRANCH  27  29
ATOM     29  O   UNL     1       0.339   9.668  23.774  0.00  0.00    +0.000 OA
ATOM     30  H   UNL     1       0.359  10.583  24.133  0.00  0.00    +0.000 HD
ENDBRANCH  27  29
ENDBRANCH  26  27
ENDBRANCH  25  26
ENDBRANCH   6  25
TORSDOF 10
ENDMDL
MODEL 5
REMARK VINA RESULT:      -7.9      2.052      2.443
REMARK  Name = 
REMARK  11 active torsions:
REMARK  status: ('A' for Active; 'I' for Inactive)
REMARK    1  A    between atoms: C_1  and  C_2
REMARK    2  A    between atoms: C_2  and  C_3
REMARK    3  A    between atoms: C_3  and  S_4
REMARK    4  A    between atoms: S_4  and  C_7
REMARK    5  A    between atoms: C_11  and  C_12
REMARK    6  A    between atoms: C_13  and  C_14
REMARK    7  A    between atoms: C_16  and  C_17
REMARK    8  A    between atoms: C_23  and  O_24
REMARK    9  A    between atoms: O_24  and  C_25
REMARK   10  A    between atoms: C_25  and  C_26
REMARK   11  A    between atoms: C_26  and  O_28
REMARK                            x       y       z     vdW  Elec       q    Type
REMARK                         _______ _______ _______ _____ _____    ______ ____
ROOT
ATOM      1  C   UNL     1       3.442   5.855  18.756  0.00  0.00    +0.000 A 
ATOM      2  C   UNL     1       4.032   6.189  17.526  0.00  0.00    +0.000 A 
ATOM      3  C   UNL     1       4.792   5.248  16.807  0.00  0.00    +0.000 A 
ATOM      4  C   UNL     1       4.925   3.954  17.323  0.00  0.00    +0.000 A 
ATOM      5  C   UNL     1       4.344   3.615  18.545  0.00  0.00    +0.000 A 
ATOM      6  C   UNL     1       3.635   4.568  19.291  0.00  0.00    +0.000 A 
ENDROOT
BRANCH   3   7
ATOM      7  C   UNL     1       5.467   5.592  15.501  0.00  0.00    +0.000 C 
ATOM      8  F   UNL     1       6.821   5.670  15.587  0.00  0.00    +0.000 F 
ATOM      9  F   UNL     1       5.203   4.675  14.530  0.00  0.00    +0.000 F 
ATOM     10  F   UNL     1       5.050   6.790  15.004  0.00  0.00    +0.000 F 
ENDBRANCH   3   7
BRANCH   1  12
ATOM     11  C   UNL     1       1.960   7.681  19.968  0.00  0.00    +0.000 C 
ATOM     12  C   UNL     1       2.653   6.852  19.435  0.00  0.00    +0.000 C 
BRANCH  11  17
ATOM     13  C   UNL     1      -0.368  10.564  20.434  0.00  0.00    +0.000 A 
ATOM     14  C   UNL     1      -0.503  10.597  21.824  0.00  0.00    +0.000 A 
ATOM     15  C   UNL     1       0.163   9.649  22.598  0.00  0.00    +0.000 A 
ATOM     16  C   UNL     1       0.970   8.682  21.986  0.00  0.00    +0.000 A 
ATOM     17  C   UNL     1       1.117   8.661  20.592  0.00  0.00    +0.000 A 
ATOM     18  C   UNL     1       0.447   9.609  19.815  0.00  0.00    +0.000 A 
BRANCH  13  19
ATOM     19  S   UNL     1      -1.206  11.789  19.450  0.00  0.00    +0.000 S 
ATOM     20  O   UNL     1      -0.228  12.340  18.533  0.00  0.00    +0.000 OA
ATOM     21  O   UNL     1      -1.925  12.640  20.379  0.00  0.00    +0.000 OA
BRANCH  19  22
ATOM     22  C   UNL     1      -2.393  10.855  18.496  0.00  0.00    +0.000 C 
BRANCH  22  24
ATOM     23  C   UNL     1      -2.746   9.911  16.184  0.00  0.00    +0.000 C 
ATOM     24  C   UNL     1      -1.737  10.200  17.284  0.00  0.00    +0.000 C 
ENDBRANCH  22  24
ENDBRANCH  19  22
ENDBRANCH  13  19
ENDBRANCH  11  17
ENDBRANCH   1  12
BRANCH   6  25
ATOM     25  O   UNL     1       3.112   4.302  20.536  0.00  0.00    +0.000 OA
BRANCH  25  26
ATOM     26  C   UNL     1       2.529   3.001  20.680  0.00  0.00    +0.000 C 
BRANCH  26  27
ATOM     27  C   UNL     1       1.230   2.912  19.902  0.00  0.00    +0.000 C 
ATOM     28  O   UNL     1       1.031   2.102  19.008  0.00  0.00    +0.000 OA
BRANCH  27  29
ATOM     29  O   UNL     1       0.302   3.812  20.301  0.00  0.00    +0.000 OA
ATOM     30  H   UNL     1      -0.572   3.372  20.395  0.00  0.00    +0.000 HD
ENDBRANCH  27  29
ENDBRANCH  26  27
ENDBRANCH  25  26
ENDBRANCH   6  25
TORSDOF 10
ENDMDL
MODEL 6
REMARK VINA RESULT:      -7.9      2.149      3.407
REMARK  Name = 
REMARK  11 active torsions:
REMARK  status: ('A' for Active; 'I' for Inactive)
REMARK    1  A    between atoms: C_1  and  C_2
REMARK    2  A    between atoms: C_2  and  C_3
REMARK    3  A    between atoms: C_3  and  S_4
REMARK    4  A    between atoms: S_4  and  C_7
REMARK    5  A    between atoms: C_11  and  C_12
REMARK    6  A    between atoms: C_13  and  C_14
REMARK    7  A    between atoms: C_16  and  C_17
REMARK    8  A    between atoms: C_23  and  O_24
REMARK    9  A    between atoms: O_24  and  C_25
REMARK   10  A    between atoms: C_25  and  C_26
REMARK   11  A    between atoms: C_26  and  O_28
REMARK                            x       y       z     vdW  Elec       q    Type
REMARK                         _______ _______ _______ _____ _____    ______ ____
ROOT
ATOM      1  C   UNL     1       3.414   6.417  17.995  0.00  0.00    +0.000 A 
ATOM      2  C   UNL     1       4.633   6.525  17.304  0.00  0.00    +0.000 A 
ATOM      3  C   UNL     1       5.466   5.406  17.126  0.00  0.00    +0.000 A 
ATOM      4  C   UNL     1       5.047   4.167  17.621  0.00  0.00    +0.000 A 
ATOM      5  C   UNL     1       3.839   4.051  18.310  0.00  0.00    +0.000 A 
ATOM      6  C   UNL     1       3.034   5.177  18.539  0.00  0.00    +0.000 A 
ENDROOT
BRANCH   3   7
ATOM      7  C   UNL     1       6.797   5.504  16.420  0.00  0.00    +0.000 C 
ATOM      8  F   UNL     1       7.496   6.632  16.718  0.00  0.00    +0.000 F 
ATOM      9  F   UNL     1       7.618   4.461  16.725  0.00  0.00    +0.000 F 
ATOM     10  F   UNL     1       6.666   5.488  15.064  0.00  0.00    +0.000 F 
ENDBRANCH   3   7
BRANCH   1  12
ATOM     11  C   UNL     1       1.861   8.545  18.245  0.00  0.00    +0.000 C 
ATOM     12  C   UNL     1       2.588   7.591  18.125  0.00  0.00    +0.000 C 
BRANCH  11  17
ATOM     13  C   UNL     1       0.527  11.872  19.291  0.00  0.00    +0.000 A 
ATOM     14  C   UNL     1      -0.756  11.849  18.739  0.00  0.00    +0.000 A 
ATOM     15  C   UNL     1      -1.164  10.737  18.006  0.00  0.00    +0.000 A 
ATOM     16  C   UNL     1      -0.298   9.650  17.836  0.00  0.00    +0.000 A 
ATOM     17  C   UNL     1       0.983   9.668  18.404  0.00  0.00    +0.000 A 
ATOM     18  C   UNL     1       1.394  10.784  19.137  0.00  0.00    +0.000 A 
BRANCH  13  19
ATOM     19  S   UNL     1       1.038  13.287  20.244  0.00  0.00    +0.000 S 
ATOM     20  O   UNL     1       2.237  12.905  20.963  0.00  0.00    +0.000 OA
ATOM     21  O   UNL     1      -0.141  13.755  20.948  0.00  0.00    +0.000 OA
BRANCH  19  22
ATOM     22  C   UNL     1       1.493  14.506  19.020  0.00  0.00    +0.000 C 
BRANCH  22  24
ATOM     23  C   UNL     1       3.681  15.072  17.901  0.00  0.00    +0.000 C 
ATOM     24  C   UNL     1       2.625  14.002  18.130  0.00  0.00    +0.000 C 
ENDBRANCH  22  24
ENDBRANCH  19  22
ENDBRANCH  13  19
ENDBRANCH  11  17
ENDBRANCH   1  12
BRANCH   6  25
ATOM     25  O   UNL     1       1.875   5.126  19.280  0.00  0.00    +0.000 OA
BRANCH  25  26
ATOM     26  C   UNL     1       2.069   5.031  20.697  0.00  0.00    +0.000 C 
BRANCH  26  27
ATOM     27  C   UNL     1       1.665   3.657  21.197  0.00  0.00    +0.000 C 
ATOM     28  O   UNL     1       2.258   3.059  22.083  0.00  0.00    +0.000 OA
BRANCH  27  29
ATOM     29  O   UNL     1       0.572   3.158  20.575  0.00  0.00    +0.000 OA
ATOM     30  H   UNL     1      -0.234   3.627  20.885  0.00  0.00    +0.000 HD
ENDBRANCH  27  29
ENDBRANCH  26  27
ENDBRANCH  25  26
ENDBRANCH   6  25
TORSDOF 10
ENDMDL
MODEL 7
REMARK VINA RESULT:      -7.9      4.907      8.570
REMARK  Name = 
REMARK  11 active torsions:
REMARK  status: ('A' for Active; 'I' for Inactive)
REMARK    1  A    between atoms: C_1  and  C_2
REMARK    2  A    between atoms: C_2  and  C_3
REMARK    3  A    between atoms: C_3  and  S_4
REMARK    4  A    between atoms: S_4  and  C_7
REMARK    5  A    between atoms: C_11  and  C_12
REMARK    6  A    between atoms: C_13  and  C_14
REMARK    7  A    between atoms: C_16  and  C_17
REMARK    8  A    between atoms: C_23  and  O_24
REMARK    9  A    between atoms: O_24  and  C_25
REMARK   10  A    between atoms: C_25  and  C_26
REMARK   11  A    between atoms: C_26  and  O_28
REMARK                            x       y       z     vdW  Elec       q    Type
REMARK                         _______ _______ _______ _____ _____    ______ ____
ROOT
ATOM      1  C   UNL     1       0.048   9.863  18.130  0.00  0.00    +0.000 A 
ATOM      2  C   UNL     1      -0.998   9.691  17.208  0.00  0.00    +0.000 A 
ATOM      3  C   UNL     1      -1.996  10.670  17.054  0.00  0.00    +0.000 A 
ATOM      4  C   UNL     1      -1.914  11.842  17.812  0.00  0.00    +0.000 A 
ATOM      5  C   UNL     1      -0.879  12.021  18.731  0.00  0.00    +0.000 A 
ATOM      6  C   UNL     1       0.085  11.020  18.928  0.00  0.00    +0.000 A 
ENDROOT
BRANCH   3   7
ATOM      7  C   UNL     1      -3.151  10.492  16.097  0.00  0.00    +0.000 C 
ATOM      8  F   UNL     1      -4.371  10.648  16.675  0.00  0.00    +0.000 F 
ATOM      9  F   UNL     1      -3.106  11.382  15.067  0.00  0.00    +0.000 F 
ATOM     10  F   UNL     1      -3.161   9.258  15.521  0.00  0.00    +0.000 F 
ENDBRANCH   3   7
BRANCH   1  12
ATOM     11  C   UNL     1       1.918   8.003  18.347  0.00  0.00    +0.000 C 
ATOM     12  C   UNL     1       1.058   8.838  18.227  0.00  0.00    +0.000 C 
BRANCH  11  17
ATOM     13  C   UNL     1       5.026   6.004  17.810  0.00  0.00    +0.000 A 
ATOM     14  C   UNL     1       4.927   5.048  18.822  0.00  0.00    +0.000 A 
ATOM     15  C   UNL     1       3.839   5.084  19.692  0.00  0.00    +0.000 A 
ATOM     16  C   UNL     1       2.850   6.064  19.541  0.00  0.00    +0.000 A 
ATOM     17  C   UNL     1       2.942   7.012  18.513  0.00  0.00    +0.000 A 
ATOM     18  C   UNL     1       4.035   6.979  17.643  0.00  0.00    +0.000 A 
BRANCH  13  19
ATOM     19  S   UNL     1       6.409   5.944  16.689  0.00  0.00    +0.000 S 
ATOM     20  O   UNL     1       7.259   4.852  17.120  0.00  0.00    +0.000 OA
ATOM     21  O   UNL     1       6.919   7.298  16.593  0.00  0.00    +0.000 OA
BRANCH  19  22
ATOM     22  C   UNL     1       5.687   5.494  15.118  0.00  0.00    +0.000 C 
BRANCH  22  24
ATOM     23  C   UNL     1       6.082   3.751  13.338  0.00  0.00    +0.000 C 
ATOM     24  C   UNL     1       5.882   4.009  14.823  0.00  0.00    +0.000 C 
ENDBRANCH  22  24
ENDBRANCH  19  22
ENDBRANCH  13  19
ENDBRANCH  11  17
ENDBRANCH   1  12
BRANCH   6  25
ATOM     25  O   UNL     1       1.076  11.118  19.878  0.00  0.00    +0.000 OA
BRANCH  25  26
ATOM     26  C   UNL     1       0.615  11.119  21.235  0.00  0.00    +0.000 C 
BRANCH  26  27
ATOM     27  C   UNL     1       0.817   9.754  21.865  0.00  0.00    +0.000 C 
ATOM     28  O   UNL     1       1.764   9.476  22.587  0.00  0.00    +0.000 OA
BRANCH  27  29
ATOM     29  O   UNL     1      -0.161   8.870  21.561  0.00  0.00    +0.000 OA
ATOM     30  H   UNL     1       0.192   8.171  20.967  0.00  0.00    +0.000 HD
ENDBRANCH  27  29
ENDBRANCH  26  27
ENDBRANCH  25  26
ENDBRANCH   6  25
TORSDOF 10
ENDMDL
MODEL 8
REMARK VINA RESULT:      -7.9      2.158      2.594
REMARK  Name = 
REMARK  11 active torsions:
REMARK  status: ('A' for Active; 'I' for Inactive)
REMARK    1  A    between atoms: C_1  and  C_2
REMARK    2  A    between atoms: C_2  and  C_3
REMARK    3  A    between atoms: C_3  and  S_4
REMARK    4  A    between atoms: S_4  and  C_7
REMARK    5  A    between atoms: C_11  and  C_12
REMARK    6  A    between atoms: C_13  and  C_14
REMARK    7  A    between atoms: C_16  and  C_17
REMARK    8  A    between atoms: C_23  and  O_24
REMARK    9  A    between atoms: O_24  and  C_25
REMARK   10  A    between atoms: C_25  and  C_26
REMARK   11  A    between atoms: C_26  and  O_28
REMARK                            x       y       z     vdW  Elec       q    Type
REMARK                         _______ _______ _______ _____ _____    ______ ____
ROOT
ATOM      1  C   UNL     1       3.364   6.037  18.753  0.00  0.00    +0.000 A 
ATOM      2  C   UNL     1       3.944   6.374  17.518  0.00  0.00    +0.000 A 
ATOM      3  C   UNL     1       4.750   5.456  16.822  0.00  0.00    +0.000 A 
ATOM      4  C   UNL     1       4.940   4.179  17.363  0.00  0.00    +0.000 A 
ATOM      5  C   UNL     1       4.369   3.837  18.589  0.00  0.00    +0.000 A 
ATOM      6  C   UNL     1       3.613   4.771  19.313  0.00  0.00    +0.000 A 
ENDROOT
BRANCH   3   7
ATOM      7  C   UNL     1       5.415   5.806  15.512  0.00  0.00    +0.000 C 
ATOM      8  F   UNL     1       5.208   4.889  14.529  0.00  0.00    +0.000 F 
ATOM      9  F   UNL     1       4.976   6.996  15.016  0.00  0.00    +0.000 F 
ATOM     10  F   UNL     1       6.765   5.930  15.635  0.00  0.00    +0.000 F 
ENDBRANCH   3   7
BRANCH   1  12
ATOM     11  C   UNL     1       1.848   7.813  19.998  0.00  0.00    +0.000 C 
ATOM     12  C   UNL     1       2.526   7.009  19.409  0.00  0.00    +0.000 C 
BRANCH  11  17
ATOM     13  C   UNL     1      -0.314  10.765  20.746  0.00  0.00    +0.000 A 
ATOM     14  C   UNL     1      -0.457  10.667  22.132  0.00  0.00    +0.000 A 
ATOM     15  C   UNL     1       0.147   9.610  22.808  0.00  0.00    +0.000 A 
ATOM     16  C   UNL     1       0.901   8.663  22.104  0.00  0.00    +0.000 A 
ATOM     17  C   UNL     1       1.058   8.772  20.716  0.00  0.00    +0.000 A 
ATOM     18  C   UNL     1       0.450   9.830  20.035  0.00  0.00    +0.000 A 
BRANCH  13  19
ATOM     19  S   UNL     1      -1.072  12.128  19.887  0.00  0.00    +0.000 S 
ATOM     20  O   UNL     1      -0.098  13.201  19.847  0.00  0.00    +0.000 OA
ATOM     21  O   UNL     1      -2.375  12.321  20.494  0.00  0.00    +0.000 OA
BRANCH  19  22
ATOM     22  C   UNL     1      -1.303  11.529  18.220  0.00  0.00    +0.000 C 
BRANCH  22  24
ATOM     23  C   UNL     1      -2.979   9.753  17.590  0.00  0.00    +0.000 C 
ATOM     24  C   UNL     1      -2.770  11.218  17.941  0.00  0.00    +0.000 C 
ENDBRANCH  22  24
ENDBRANCH  19  22
ENDBRANCH  13  19
ENDBRANCH  11  17
ENDBRANCH   1  12
BRANCH   6  25
ATOM     25  O   UNL     1       3.096   4.505  20.561  0.00  0.00    +0.000 OA
BRANCH  25  26
ATOM     26  C   UNL     1       2.902   3.114  20.849  0.00  0.00    +0.000 C 
BRANCH  26  27
ATOM     27  C   UNL     1       1.435   2.824  21.097  0.00  0.00    +0.000 C 
ATOM     28  O   UNL     1       0.567   2.949  20.244  0.00  0.00    +0.000 OA
BRANCH  27  29
ATOM     29  O   UNL     1       1.174   2.400  22.355  0.00  0.00    +0.000 OA
ATOM     30  H   UNL     1       0.637   1.577  22.326  0.00  0.00    +0.000 HD
ENDBRANCH  27  29
ENDBRANCH  26  27
ENDBRANCH  25  26
ENDBRANCH   6  25
TORSDOF 10
ENDMDL
MODEL 9
REMARK VINA RESULT:      -7.8      2.017      2.508
REMARK  Name = 
REMARK  11 active torsions:
REMARK  status: ('A' for Active; 'I' for Inactive)
REMARK    1  A    between atoms: C_1  and  C_2
REMARK    2  A    between atoms: C_2  and  C_3
REMARK    3  A    between atoms: C_3  and  S_4
REMARK    4  A    between atoms: S_4  and  C_7
REMARK    5  A    between atoms: C_11  and  C_12
REMARK    6  A    between atoms: C_13  and  C_14
REMARK    7  A    between atoms: C_16  and  C_17
REMARK    8  A    between atoms: C_23  and  O_24
REMARK    9  A    between atoms: O_24  and  C_25
REMARK   10  A    between atoms: C_25  and  C_26
REMARK   11  A    between atoms: C_26  and  O_28
REMARK                            x       y       z     vdW  Elec       q    Type
REMARK                         _______ _______ _______ _____ _____    ______ ____
ROOT
ATOM      1  C   UNL     1       3.071   6.299  18.944  0.00  0.00    +0.000 A 
ATOM      2  C   UNL     1       3.744   6.593  17.746  0.00  0.00    +0.000 A 
ATOM      3  C   UNL     1       4.582   5.644  17.134  0.00  0.00    +0.000 A 
ATOM      4  C   UNL     1       4.711   4.380  17.721  0.00  0.00    +0.000 A 
ATOM      5  C   UNL     1       4.048   4.081  18.911  0.00  0.00    +0.000 A 
ATOM      6  C   UNL     1       3.257   5.046  19.554  0.00  0.00    +0.000 A 
ENDROOT
BRANCH   3   7
ATOM      7  C   UNL     1       5.345   5.947  15.867  0.00  0.00    +0.000 C 
ATOM      8  F   UNL     1       4.897   7.048  15.207  0.00  0.00    +0.000 F 
ATOM      9  F   UNL     1       6.668   6.163  16.104  0.00  0.00    +0.000 F 
ATOM     10  F   UNL     1       5.290   4.922  14.972  0.00  0.00    +0.000 F 
ENDBRANCH   3   7
BRANCH   1  12
ATOM     11  C   UNL     1       1.516   8.152  20.016  0.00  0.00    +0.000 C 
ATOM     12  C   UNL     1       2.204   7.302  19.512  0.00  0.00    +0.000 C 
BRANCH  11  17
ATOM     13  C   UNL     1      -0.672  11.151  20.429  0.00  0.00    +0.000 A 
ATOM     14  C   UNL     1      -0.824  11.202  21.817  0.00  0.00    +0.000 A 
ATOM     15  C   UNL     1      -0.216  10.228  22.606  0.00  0.00    +0.000 A 
ATOM     16  C   UNL     1       0.549   9.217  22.012  0.00  0.00    +0.000 A 
ATOM     17  C   UNL     1       0.714   9.177  20.621  0.00  0.00    +0.000 A 
ATOM     18  C   UNL     1       0.103  10.152  19.828  0.00  0.00    +0.000 A 
BRANCH  13  19
ATOM     19  S   UNL     1      -1.434  12.409  19.425  0.00  0.00    +0.000 S 
ATOM     20  O   UNL     1      -0.463  12.798  18.421  0.00  0.00    +0.000 OA
ATOM     21  O   UNL     1      -1.995  13.382  20.342  0.00  0.00    +0.000 OA
BRANCH  19  22
ATOM     22  C   UNL     1      -2.774  11.565  18.599  0.00  0.00    +0.000 C 
BRANCH  22  24
ATOM     23  C   UNL     1      -2.787  11.000  16.141  0.00  0.00    +0.000 C 
ATOM     24  C   UNL     1      -2.253  10.626  17.515  0.00  0.00    +0.000 C 
ENDBRANCH  22  24
ENDBRANCH  19  22
ENDBRANCH  13  19
ENDBRANCH  11  17
ENDBRANCH   1  12
BRANCH   6  25
ATOM     25  O   UNL     1       2.648   4.822  20.768  0.00  0.00    +0.000 OA
BRANCH  25  26
ATOM     26  C   UNL     1       1.601   3.843  20.746  0.00  0.00    +0.000 C 
BRANCH  26  27
ATOM     27  C   UNL     1       1.841   2.786  21.806  0.00  0.00    +0.000 C 
ATOM     28  O   UNL     1       0.965   2.355  22.542  0.00  0.00    +0.000 OA
BRANCH  27  29
ATOM     29  O   UNL     1       3.122   2.352  21.854  0.00  0.00    +0.000 OA
ATOM     30  H   UNL     1       3.597   2.620  21.035  0.00  0.00    +0.000 HD
ENDBRANCH  27  29
ENDBRANCH  26  27
ENDBRANCH  25  26
ENDBRANCH   6  25
TORSDOF 10
ENDMDL
