MODEL 1
REMARK VINA RESULT:      -8.0      0.000      0.000
REMARK  Name = 
REMARK  6 active torsions:
REMARK  status: ('A' for Active; 'I' for Inactive)
REMARK    1  A    between atoms: C_1  and  O_2
REMARK    2  A    between atoms: O_2  and  C_3
REMARK    3  A    between atoms: C_6  and  N_7
REMARK    4  A    between atoms: N_10  and  C_11
REMARK    5  A    between atoms: C_11  and  C_12
REMARK    6  A    between atoms: C_15  and  C_16
REMARK                            x       y       z     vdW  Elec       q    Type
REMARK                         _______ _______ _______ _____ _____    ______ ____
ROOT
ATOM      1  N   UNL     1       2.202   7.034  20.002  0.00  0.00    +0.000 N 
ATOM      2  C   UNL     1       2.026   5.726  20.640  0.00  0.00    +0.000 C 
ATOM      3  C   UNL     1       1.611   4.644  19.619  0.00  0.00    +0.000 C 
ATOM      4  N   UNL     1       2.446   4.575  18.391  0.00  0.00    +0.000 NA
ATOM      5  C   UNL     1       2.415   5.937  17.788  0.00  0.00    +0.000 C 
ATOM      6  C   UNL     1       2.925   7.067  18.716  0.00  0.00    +0.000 C 
ENDROOT
BRANCH   1  10
ATOM      7  C   UNL     1      -0.049  10.354  21.277  0.00  0.00    +0.000 A 
ATOM      8  C   UNL     1       0.136   9.259  22.118  0.00  0.00    +0.000 A 
ATOM      9  C   UNL     1       0.896   8.169  21.692  0.00  0.00    +0.000 A 
ATOM     10  C   UNL     1       1.467   8.125  20.418  0.00  0.00    +0.000 A 
ATOM     11  C   UNL     1       1.242   9.229  19.579  0.00  0.00    +0.000 A 
ATOM     12  C   UNL     1       0.496  10.329  20.001  0.00  0.00    +0.000 A 
BRANCH   7  14
ATOM     13  C   UNL     1      -1.393  11.104  23.054  0.00  0.00    +0.000 C 
ATOM     14  O   UNL     1      -0.783  11.381  21.796  0.00  0.00    +0.000 OA
ENDBRANCH   7  14
ENDBRANCH   1  10
BRANCH   4  15
ATOM     15  C   UNL     1       3.810   4.122  18.744  0.00  0.00    +0.000 C 
BRANCH  15  16
ATOM     16  C   UNL     1       4.812   4.519  17.714  0.00  0.00    +0.000 A 
ATOM     17  C   UNL     1       5.952   5.278  17.844  0.00  0.00    +0.000 A 
ATOM     18  O   UNL     1       6.580   5.310  16.640  0.00  0.00    +0.000 OA
ATOM     19  C   UNL     1       5.767   4.585  15.815  0.00  0.00    +0.000 A 
ATOM     20  N   UNL     1       4.673   4.124  16.401  0.00  0.00    +0.000 NA
BRANCH  19  21
ATOM     21  C   UNL     1       6.208   4.394  14.441  0.00  0.00    +0.000 A 
ATOM     22  C   UNL     1       7.336   5.063  13.937  0.00  0.00    +0.000 A 
ATOM     23  C   UNL     1       7.730   4.887  12.607  0.00  0.00    +0.000 A 
ATOM     24  C   UNL     1       7.004   4.041  11.778  0.00  0.00    +0.000 A 
ATOM     25  C   UNL     1       5.901   3.361  12.282  0.00  0.00    +0.000 A 
ATOM     26  F   UNL     1       5.210   2.537  11.485  0.00  0.00    +0.000 F 
ATOM     27  C   UNL     1       5.503   3.525  13.606  0.00  0.00    +0.000 A 
ENDBRANCH  19  21
ENDBRANCH  15  16
ENDBRANCH   4  15
TORSDOF 5
ENDMDL
MODEL 2
REMARK VINA RESULT:      -7.9      1.207      1.816
REMARK  Name = 
REMARK  6 active torsions:
REMARK  status: ('A' for Active; 'I' for Inactive)
REMARK    1  A    between atoms: C_1  and  O_2
REMARK    2  A    between atoms: O_2  and  C_3
REMARK    3  A    between atoms: C_6  and  N_7
REMARK    4  A    between atoms: N_10  and  C_11
REMARK    5  A    between atoms: C_11  and  C_12
REMARK    6  A    between atoms: C_15  and  C_16
REMARK                            x       y       z     vdW  Elec       q    Type
REMARK                         _______ _______ _______ _____ _____    ______ ____
ROOT
ATOM      1  N   UNL     1       2.340   6.686  19.879  0.00  0.00    +0.000 N 
ATOM      2  C   UNL     1       2.138   5.456  20.650  0.00  0.00    +0.000 C 
ATOM      3  C   UNL     1       1.712   4.279  19.747  0.00  0.00    +0.000 C 
ATOM      4  N   UNL     1       2.554   4.066  18.539  0.00  0.00    +0.000 NA
ATOM      5  C   UNL     1       2.549   5.358  17.795  0.00  0.00    +0.000 C 
ATOM      6  C   UNL     1       3.072   6.572  18.602  0.00  0.00    +0.000 C 
ENDROOT
BRANCH   1  10
ATOM      7  C   UNL     1       0.155  10.172  20.767  0.00  0.00    +0.000 A 
ATOM      8  C   UNL     1       0.838  10.053  19.559  0.00  0.00    +0.000 A 
ATOM      9  C   UNL     1       1.547   8.888  19.267  0.00  0.00    +0.000 A 
ATOM     10  C   UNL     1       1.621   7.826  20.171  0.00  0.00    +0.000 A 
ATOM     11  C   UNL     1       0.946   7.982  21.395  0.00  0.00    +0.000 A 
ATOM     12  C   UNL     1       0.223   9.138  21.689  0.00  0.00    +0.000 A 
BRANCH   7  14
ATOM     13  C   UNL     1      -0.220  12.366  20.010  0.00  0.00    +0.000 C 
ATOM     14  O   UNL     1      -0.532  11.338  20.946  0.00  0.00    +0.000 OA
ENDBRANCH   7  14
ENDBRANCH   1  10
BRANCH   4  15
ATOM     15  C   UNL     1       3.908   3.632  18.949  0.00  0.00    +0.000 C 
BRANCH  15  16
ATOM     16  C   UNL     1       4.949   4.060  17.971  0.00  0.00    +0.000 A 
ATOM     17  C   UNL     1       6.183   4.626  18.192  0.00  0.00    +0.000 A 
ATOM     18  O   UNL     1       6.802   4.776  16.992  0.00  0.00    +0.000 OA
ATOM     19  C   UNL     1       5.892   4.317  16.082  0.00  0.00    +0.000 A 
ATOM     20  N   UNL     1       4.749   3.915  16.614  0.00  0.00    +0.000 NA
BRANCH  19  21
ATOM     21  C   UNL     1       6.294   4.304  14.683  0.00  0.00    +0.000 A 
ATOM     22  C   UNL     1       5.658   3.471  13.748  0.00  0.00    +0.000 A 
ATOM     23  C   UNL     1       6.075   3.454  12.414  0.00  0.00    +0.000 A 
ATOM     24  C   UNL     1       7.123   4.270  12.007  0.00  0.00    +0.000 A 
ATOM     25  C   UNL     1       7.739   5.111  12.926  0.00  0.00    +0.000 A 
ATOM     26  F   UNL     1       8.741   5.905  12.530  0.00  0.00    +0.000 F 
ATOM     27  C   UNL     1       7.329   5.139  14.257  0.00  0.00    +0.000 A 
ENDBRANCH  19  21
ENDBRANCH  15  16
ENDBRANCH   4  15
TORSDOF 5
ENDMDL
MODEL 3
REMARK VINA RESULT:      -7.8      0.536      1.108
REMARK  Name = 
REMARK  6 active torsions:
REMARK  status: ('A' for Active; 'I' for Inactive)
REMARK    1  A    between atoms: C_1  and  O_2
REMARK    2  A    between atoms: O_2  and  C_3
REMARK    3  A    between atoms: C_6  and  N_7
REMARK    4  A    between atoms: N_10  and  C_11
REMARK    5  A    between atoms: C_11  and  C_12
REMARK    6  A    between atoms: C_15  and  C_16
REMARK                            x       y       z     vdW  Elec       q    Type
REMARK                         _______ _______ _______ _____ _____    ______ ____
ROOT
ATOM      1  N   UNL     1       2.265   6.966  19.955  0.00  0.00    +0.000 N 
ATOM      2  C   UNL     1       2.204   5.700  20.692  0.00  0.00    +0.000 C 
ATOM      3  C   UNL     1       1.854   4.517  19.764  0.00  0.00    +0.000 C 
ATOM      4  N   UNL     1       2.667   4.419  18.523  0.00  0.00    +0.000 NA
ATOM      5  C   UNL     1       2.519   5.726  17.823  0.00  0.00    +0.000 C 
ATOM      6  C   UNL     1       2.957   6.958  18.652  0.00  0.00    +0.000 C 
ENDROOT
BRANCH   1  10
ATOM      7  C   UNL     1      -0.194  10.209  21.030  0.00  0.00    +0.000 A 
ATOM      8  C   UNL     1       0.421  10.170  19.780  0.00  0.00    +0.000 A 
ATOM      9  C   UNL     1       1.222   9.085  19.427  0.00  0.00    +0.000 A 
ATOM     10  C   UNL     1       1.456   8.026  20.309  0.00  0.00    +0.000 A 
ATOM     11  C   UNL     1       0.846   8.103  21.573  0.00  0.00    +0.000 A 
ATOM     12  C   UNL     1       0.032   9.177  21.929  0.00  0.00    +0.000 A 
BRANCH   7  14
ATOM     13  C   UNL     1      -0.630  12.464  20.527  0.00  0.00    +0.000 C 
ATOM     14  O   UNL     1      -0.981  11.299  21.268  0.00  0.00    +0.000 OA
ENDBRANCH   7  14
ENDBRANCH   1  10
BRANCH   4  15
ATOM     15  C   UNL     1       4.069   4.099  18.873  0.00  0.00    +0.000 C 
BRANCH  15  16
ATOM     16  C   UNL     1       5.022   4.543  17.816  0.00  0.00    +0.000 A 
ATOM     17  C   UNL     1       6.122   5.362  17.913  0.00  0.00    +0.000 A 
ATOM     18  O   UNL     1       6.717   5.420  16.692  0.00  0.00    +0.000 OA
ATOM     19  C   UNL     1       5.923   4.648  15.892  0.00  0.00    +0.000 A 
ATOM     20  N   UNL     1       4.870   4.133  16.508  0.00  0.00    +0.000 NA
BRANCH  19  21
ATOM     21  C   UNL     1       6.337   4.473  14.508  0.00  0.00    +0.000 A 
ATOM     22  C   UNL     1       7.464   5.136  13.994  0.00  0.00    +0.000 A 
ATOM     23  C   UNL     1       7.833   4.975  12.655  0.00  0.00    +0.000 A 
ATOM     24  C   UNL     1       7.083   4.150  11.826  0.00  0.00    +0.000 A 
ATOM     25  C   UNL     1       5.980   3.476  12.339  0.00  0.00    +0.000 A 
ATOM     26  F   UNL     1       5.266   2.672  11.542  0.00  0.00    +0.000 F 
ATOM     27  C   UNL     1       5.607   3.625  13.672  0.00  0.00    +0.000 A 
ENDBRANCH  19  21
ENDBRANCH  15  16
ENDBRANCH   4  15
TORSDOF 5
ENDMDL
MODEL 4
REMARK VINA RESULT:      -7.6      1.340      1.553
REMARK  Name = 
REMARK  6 active torsions:
REMARK  status: ('A' for Active; 'I' for Inactive)
REMARK    1  A    between atoms: C_1  and  O_2
REMARK    2  A    between atoms: O_2  and  C_3
REMARK    3  A    between atoms: C_6  and  N_7
REMARK    4  A    between atoms: N_10  and  C_11
REMARK    5  A    between atoms: C_11  and  C_12
REMARK    6  A    between atoms: C_15  and  C_16
REMARK                            x       y       z     vdW  Elec       q    Type
REMARK                         _______ _______ _______ _____ _____    ______ ____
ROOT
ATOM      1  N   UNL     1       2.250   7.927  19.267  0.00  0.00    +0.000 N 
ATOM      2  C   UNL     1       2.346   6.842  20.248  0.00  0.00    +0.000 C 
ATOM      3  C   UNL     1       2.357   5.456  19.568  0.00  0.00    +0.000 C 
ATOM      4  N   UNL     1       3.325   5.304  18.449  0.00  0.00    +0.000 NA
ATOM      5  C   UNL     1       3.012   6.389  17.477  0.00  0.00    +0.000 C 
ATOM      6  C   UNL     1       3.091   7.822  18.058  0.00  0.00    +0.000 C 
ENDROOT
BRANCH   1  10
ATOM      7  C   UNL     1      -0.930  10.680  19.429  0.00  0.00    +0.000 A 
ATOM      8  C   UNL     1      -0.439  10.094  20.594  0.00  0.00    +0.000 A 
ATOM      9  C   UNL     1       0.624   9.194  20.532  0.00  0.00    +0.000 A 
ATOM     10  C   UNL     1       1.210   8.832  19.317  0.00  0.00    +0.000 A 
ATOM     11  C   UNL     1       0.679   9.415  18.153  0.00  0.00    +0.000 A 
ATOM     12  C   UNL     1      -0.375  10.326  18.207  0.00  0.00    +0.000 A 
BRANCH   7  14
ATOM     13  C   UNL     1      -2.803  11.724  18.465  0.00  0.00    +0.000 C 
ATOM     14  O   UNL     1      -1.952  11.568  19.598  0.00  0.00    +0.000 OA
ENDBRANCH   7  14
ENDBRANCH   1  10
BRANCH   4  15
ATOM     15  C   UNL     1       4.706   5.371  18.976  0.00  0.00    +0.000 C 
BRANCH  15  16
ATOM     16  C   UNL     1       5.719   5.093  17.919  0.00  0.00    +0.000 A 
ATOM     17  C   UNL     1       7.045   4.745  18.042  0.00  0.00    +0.000 A 
ATOM     18  O   UNL     1       7.544   4.527  16.796  0.00  0.00    +0.000 OA
ATOM     19  C   UNL     1       6.493   4.785  15.962  0.00  0.00    +0.000 A 
ATOM     20  N   UNL     1       5.389   5.168  16.583  0.00  0.00    +0.000 NA
BRANCH  19  21
ATOM     21  C   UNL     1       6.708   4.586  14.536  0.00  0.00    +0.000 A 
ATOM     22  C   UNL     1       7.649   5.350  13.826  0.00  0.00    +0.000 A 
ATOM     23  C   UNL     1       7.824   5.162  12.452  0.00  0.00    +0.000 A 
ATOM     24  C   UNL     1       7.066   4.210  11.782  0.00  0.00    +0.000 A 
ATOM     25  C   UNL     1       6.150   3.437  12.488  0.00  0.00    +0.000 A 
ATOM     26  F   UNL     1       5.429   2.512  11.843  0.00  0.00    +0.000 F 
ATOM     27  C   UNL     1       5.971   3.613  13.857  0.00  0.00    +0.000 A 
ENDBRANCH  19  21
ENDBRANCH  15  16
ENDBRANCH   4  15
TORSDOF 5
ENDMDL
MODEL 5
REMARK VINA RESULT:      -7.3      1.519      2.001
REMARK  Name = 
REMARK  6 active torsions:
REMARK  status: ('A' for Active; 'I' for Inactive)
REMARK    1  A    between atoms: C_1  and  O_2
REMARK    2  A    between atoms: O_2  and  C_3
REMARK    3  A    between atoms: C_6  and  N_7
REMARK    4  A    between atoms: N_10  and  C_11
REMARK    5  A    between atoms: C_11  and  C_12
REMARK    6  A    between atoms: C_15  and  C_16
REMARK                            x       y       z     vdW  Elec       q    Type
REMARK                         _______ _______ _______ _____ _____    ______ ____
ROOT
ATOM      1  N   UNL     1       1.677   8.587  20.255  0.00  0.00    +0.000 N 
ATOM      2  C   UNL     1       2.057   7.283  20.807  0.00  0.00    +0.000 C 
ATOM      3  C   UNL     1       1.778   6.139  19.810  0.00  0.00    +0.000 C 
ATOM      4  N   UNL     1       2.299   6.352  18.434  0.00  0.00    +0.000 NA
ATOM      5  C   UNL     1       1.719   7.642  17.963  0.00  0.00    +0.000 C 
ATOM      6  C   UNL     1       2.050   8.864  18.855  0.00  0.00    +0.000 C 
ENDROOT
BRANCH   1  10
ATOM      7  C   UNL     1      -1.142  11.007  22.234  0.00  0.00    +0.000 A 
ATOM      8  C   UNL     1      -0.542   9.935  22.892  0.00  0.00    +0.000 A 
ATOM      9  C   UNL     1       0.402   9.148  22.233  0.00  0.00    +0.000 A 
ATOM     10  C   UNL     1       0.755   9.384  20.902  0.00  0.00    +0.000 A 
ATOM     11  C   UNL     1       0.115  10.454  20.252  0.00  0.00    +0.000 A 
ATOM     12  C   UNL     1      -0.819  11.255  20.908  0.00  0.00    +0.000 A 
BRANCH   7  14
ATOM     13  C   UNL     1      -1.618  13.067  23.263  0.00  0.00    +0.000 C 
ATOM     14  O   UNL     1      -2.030  11.734  22.974  0.00  0.00    +0.000 OA
ENDBRANCH   7  14
ENDBRANCH   1  10
BRANCH   4  15
ATOM     15  C   UNL     1       3.778   6.351  18.458  0.00  0.00    +0.000 C 
BRANCH  15  16
ATOM     16  C   UNL     1       4.350   5.369  17.493  0.00  0.00    +0.000 A 
ATOM     17  C   UNL     1       4.304   3.995  17.506  0.00  0.00    +0.000 A 
ATOM     18  O   UNL     1       4.909   3.539  16.377  0.00  0.00    +0.000 OA
ATOM     19  C   UNL     1       5.327   4.671  15.737  0.00  0.00    +0.000 A 
ATOM     20  N   UNL     1       5.053   5.792  16.385  0.00  0.00    +0.000 NA
BRANCH  19  21
ATOM     21  C   UNL     1       5.979   4.506  14.446  0.00  0.00    +0.000 A 
ATOM     22  C   UNL     1       5.470   3.624  13.479  0.00  0.00    +0.000 A 
ATOM     23  C   UNL     1       6.125   3.460  12.254  0.00  0.00    +0.000 A 
ATOM     24  C   UNL     1       7.284   4.178  11.989  0.00  0.00    +0.000 A 
ATOM     25  C   UNL     1       7.776   5.068  12.936  0.00  0.00    +0.000 A 
ATOM     26  F   UNL     1       8.887   5.767  12.674  0.00  0.00    +0.000 F 
ATOM     27  C   UNL     1       7.130   5.242  14.158  0.00  0.00    +0.000 A 
ENDBRANCH  19  21
ENDBRANCH  15  16
ENDBRANCH   4  15
TORSDOF 5
ENDMDL
MODEL 6
REMARK VINA RESULT:      -7.2      2.565      4.827
REMARK  Name = 
REMARK  6 active torsions:
REMARK  status: ('A' for Active; 'I' for Inactive)
REMARK    1  A    between atoms: C_1  and  O_2
REMARK    2  A    between atoms: O_2  and  C_3
REMARK    3  A    between atoms: C_6  and  N_7
REMARK    4  A    between atoms: N_10  and  C_11
REMARK    5  A    between atoms: C_11  and  C_12
REMARK    6  A    between atoms: C_15  and  C_16
REMARK                            x       y       z     vdW  Elec       q    Type
REMARK                         _______ _______ _______ _____ _____    ______ ____
ROOT
ATOM      1  N   UNL     1      -0.669  10.489  22.128  0.00  0.00    +0.000 N 
ATOM      2  C   UNL     1      -0.493  10.168  20.709  0.00  0.00    +0.000 C 
ATOM      3  C   UNL     1       0.971   9.802  20.384  0.00  0.00    +0.000 C 
ATOM      4  N   UNL     1       1.587   8.789  21.281  0.00  0.00    +0.000 NA
ATOM      5  C   UNL     1       1.450   9.320  22.666  0.00  0.00    +0.000 C 
ATOM      6  C   UNL     1      -0.006   9.608  23.108  0.00  0.00    +0.000 C 
ENDROOT
BRANCH   1  10
ATOM      7  C   UNL     1      -2.188  14.233  23.308  0.00  0.00    +0.000 A 
ATOM      8  C   UNL     1      -2.889  13.063  23.593  0.00  0.00    +0.000 A 
ATOM      9  C   UNL     1      -2.370  11.826  23.211  0.00  0.00    +0.000 A 
ATOM     10  C   UNL     1      -1.163  11.718  22.516  0.00  0.00    +0.000 A 
ATOM     11  C   UNL     1      -0.490  12.915  22.217  0.00  0.00    +0.000 A 
ATOM     12  C   UNL     1      -0.994  14.155  22.607  0.00  0.00    +0.000 A 
BRANCH   7  14
ATOM     13  C   UNL     1      -3.458  15.277  24.989  0.00  0.00    +0.000 C 
ATOM     14  O   UNL     1      -2.765  15.389  23.749  0.00  0.00    +0.000 OA
ENDBRANCH   7  14
ENDBRANCH   1  10
BRANCH   4  15
ATOM     15  C   UNL     1       0.919   7.483  21.086  0.00  0.00    +0.000 C 
BRANCH  15  16
ATOM     16  C   UNL     1       1.780   6.523  20.337  0.00  0.00    +0.000 A 
ATOM     17  C   UNL     1       1.929   5.165  20.500  0.00  0.00    +0.000 A 
ATOM     18  O   UNL     1       2.774   4.713  19.536  0.00  0.00    +0.000 OA
ATOM     19  C   UNL     1       3.127   5.836  18.843  0.00  0.00    +0.000 A 
ATOM     20  N   UNL     1       2.591   6.952  19.309  0.00  0.00    +0.000 NA
BRANCH  19  21
ATOM     21  C   UNL     1       4.005   5.662  17.694  0.00  0.00    +0.000 A 
ATOM     22  C   UNL     1       4.405   6.757  16.910  0.00  0.00    +0.000 A 
ATOM     23  C   UNL     1       5.228   6.568  15.796  0.00  0.00    +0.000 A 
ATOM     24  C   UNL     1       5.657   5.289  15.462  0.00  0.00    +0.000 A 
ATOM     25  C   UNL     1       5.280   4.208  16.250  0.00  0.00    +0.000 A 
ATOM     26  F   UNL     1       5.703   2.978  15.934  0.00  0.00    +0.000 F 
ATOM     27  C   UNL     1       4.464   4.385  17.365  0.00  0.00    +0.000 A 
ENDBRANCH  19  21
ENDBRANCH  15  16
ENDBRANCH   4  15
TORSDOF 5
ENDMDL
MODEL 7
REMARK VINA RESULT:      -7.1      5.329     11.257
REMARK  Name = 
REMARK  6 active torsions:
REMARK  status: ('A' for Active; 'I' for Inactive)
REMARK    1  A    between atoms: C_1  and  O_2
REMARK    2  A    between atoms: O_2  and  C_3
REMARK    3  A    between atoms: C_6  and  N_7
REMARK    4  A    between atoms: N_10  and  C_11
REMARK    5  A    between atoms: C_11  and  C_12
REMARK    6  A    between atoms: C_15  and  C_16
REMARK                            x       y       z     vdW  Elec       q    Type
REMARK                         _______ _______ _______ _____ _____    ______ ____
ROOT
ATOM      1  N   UNL     1       1.965   7.830  19.735  0.00  0.00    +0.000 N 
ATOM      2  C   UNL     1       2.000   8.756  18.598  0.00  0.00    +0.000 C 
ATOM      3  C   UNL     1       0.721   9.618  18.525  0.00  0.00    +0.000 C 
ATOM      4  N   UNL     1       0.329  10.284  19.795  0.00  0.00    +0.000 NA
ATOM      5  C   UNL     1       0.203   9.202  20.812  0.00  0.00    +0.000 C 
ATOM      6  C   UNL     1       1.486   8.361  21.025  0.00  0.00    +0.000 C 
ENDROOT
BRANCH   1  10
ATOM      7  C   UNL     1       2.311   3.677  19.144  0.00  0.00    +0.000 A 
ATOM      8  C   UNL     1       1.978   4.190  20.396  0.00  0.00    +0.000 A 
ATOM      9  C   UNL     1       1.852   5.566  20.579  0.00  0.00    +0.000 A 
ATOM     10  C   UNL     1       2.077   6.470  19.537  0.00  0.00    +0.000 A 
ATOM     11  C   UNL     1       2.438   5.929  18.291  0.00  0.00    +0.000 A 
ATOM     12  C   UNL     1       2.553   4.553  18.096  0.00  0.00    +0.000 A 
BRANCH   7  14
ATOM     13  C   UNL     1       3.287   1.824  18.076  0.00  0.00    +0.000 C 
ATOM     14  O   UNL     1       2.382   2.317  19.061  0.00  0.00    +0.000 OA
ENDBRANCH   7  14
ENDBRANCH   1  10
BRANCH   4  15
ATOM     15  C   UNL     1       1.338  11.306  20.151  0.00  0.00    +0.000 C 
BRANCH  15  16
ATOM     16  C   UNL     1       0.733  12.451  20.890  0.00  0.00    +0.000 A 
ATOM     17  C   UNL     1       0.876  13.804  20.684  0.00  0.00    +0.000 A 
ATOM     18  O   UNL     1       0.075  14.454  21.569  0.00  0.00    +0.000 OA
ATOM     19  C   UNL     1      -0.502  13.455  22.301  0.00  0.00    +0.000 A 
ATOM     20  N   UNL     1      -0.108  12.238  21.961  0.00  0.00    +0.000 NA
BRANCH  19  21
ATOM     21  C   UNL     1      -1.469  13.844  23.317  0.00  0.00    +0.000 A 
ATOM     22  C   UNL     1      -1.248  14.955  24.146  0.00  0.00    +0.000 A 
ATOM     23  C   UNL     1      -2.177  15.299  25.134  0.00  0.00    +0.000 A 
ATOM     24  C   UNL     1      -3.329  14.539  25.294  0.00  0.00    +0.000 A 
ATOM     25  C   UNL     1      -3.559  13.452  24.458  0.00  0.00    +0.000 A 
ATOM     26  F   UNL     1      -4.675  12.728  24.606  0.00  0.00    +0.000 F 
ATOM     27  C   UNL     1      -2.643  13.103  23.469  0.00  0.00    +0.000 A 
ENDBRANCH  19  21
ENDBRANCH  15  16
ENDBRANCH   4  15
TORSDOF 5
ENDMDL
MODEL 8
REMARK VINA RESULT:      -7.1      2.941      5.428
REMARK  Name = 
REMARK  6 active torsions:
REMARK  status: ('A' for Active; 'I' for Inactive)
REMARK    1  A    between atoms: C_1  and  O_2
REMARK    2  A    between atoms: O_2  and  C_3
REMARK    3  A    between atoms: C_6  and  N_7
REMARK    4  A    between atoms: N_10  and  C_11
REMARK    5  A    between atoms: C_11  and  C_12
REMARK    6  A    between atoms: C_15  and  C_16
REMARK                            x       y       z     vdW  Elec       q    Type
REMARK                         _______ _______ _______ _____ _____    ______ ____
ROOT
ATOM      1  N   UNL     1      -0.523  11.345  22.450  0.00  0.00    +0.000 N 
ATOM      2  C   UNL     1      -0.384  10.084  23.184  0.00  0.00    +0.000 C 
ATOM      3  C   UNL     1      -0.745   8.868  22.304  0.00  0.00    +0.000 C 
ATOM      4  N   UNL     1      -0.088   8.830  20.971  0.00  0.00    +0.000 NA
ATOM      5  C   UNL     1      -0.433  10.115  20.299  0.00  0.00    +0.000 C 
ATOM      6  C   UNL     1      -0.001  11.386  21.071  0.00  0.00    +0.000 C 
ENDROOT
BRANCH   1  10
ATOM      7  C   UNL     1      -3.112  14.363  23.831  0.00  0.00    +0.000 A 
ATOM      8  C   UNL     1      -3.592  13.081  23.573  0.00  0.00    +0.000 A 
ATOM      9  C   UNL     1      -2.724  12.084  23.129  0.00  0.00    +0.000 A 
ATOM     10  C   UNL     1      -1.369  12.336  22.906  0.00  0.00    +0.000 A 
ATOM     11  C   UNL     1      -0.914  13.644  23.147  0.00  0.00    +0.000 A 
ATOM     12  C   UNL     1      -1.772  14.644  23.604  0.00  0.00    +0.000 A 
BRANCH   7  14
ATOM     13  C   UNL     1      -5.367  15.028  23.841  0.00  0.00    +0.000 C 
ATOM     14  O   UNL     1      -4.034  15.260  24.289  0.00  0.00    +0.000 OA
ENDBRANCH   7  14
ENDBRANCH   1  10
BRANCH   4  15
ATOM     15  C   UNL     1       1.368   8.633  21.142  0.00  0.00    +0.000 C 
BRANCH  15  16
ATOM     16  C   UNL     1       1.829   7.346  20.546  0.00  0.00    +0.000 A 
ATOM     17  C   UNL     1       1.506   6.053  20.888  0.00  0.00    +0.000 A 
ATOM     18  O   UNL     1       2.122   5.216  20.013  0.00  0.00    +0.000 OA
ATOM     19  C   UNL     1       2.824   6.047  19.187  0.00  0.00    +0.000 A 
ATOM     20  N   UNL     1       2.715   7.331  19.490  0.00  0.00    +0.000 NA
BRANCH  19  21
ATOM     21  C   UNL     1       3.562   5.434  18.092  0.00  0.00    +0.000 A 
ATOM     22  C   UNL     1       3.547   4.045  17.890  0.00  0.00    +0.000 A 
ATOM     23  C   UNL     1       4.282   3.471  16.848  0.00  0.00    +0.000 A 
ATOM     24  C   UNL     1       5.030   4.281  16.003  0.00  0.00    +0.000 A 
ATOM     25  C   UNL     1       5.027   5.659  16.188  0.00  0.00    +0.000 A 
ATOM     26  F   UNL     1       5.739   6.439  15.365  0.00  0.00    +0.000 F 
ATOM     27  C   UNL     1       4.295   6.241  17.219  0.00  0.00    +0.000 A 
ENDBRANCH  19  21
ENDBRANCH  15  16
ENDBRANCH   4  15
TORSDOF 5
ENDMDL
MODEL 9
REMARK VINA RESULT:      -7.1      3.085      5.547
REMARK  Name = 
REMARK  6 active torsions:
REMARK  status: ('A' for Active; 'I' for Inactive)
REMARK    1  A    between atoms: C_1  and  O_2
REMARK    2  A    between atoms: O_2  and  C_3
REMARK    3  A    between atoms: C_6  and  N_7
REMARK    4  A    between atoms: N_10  and  C_11
REMARK    5  A    between atoms: C_11  and  C_12
REMARK    6  A    between atoms: C_15  and  C_16
REMARK                            x       y       z     vdW  Elec       q    Type
REMARK                         _______ _______ _______ _____ _____    ______ ____
ROOT
ATOM      1  N   UNL     1      -0.954  11.538  22.070  0.00  0.00    +0.000 N 
ATOM      2  C   UNL     1      -0.462  10.396  22.845  0.00  0.00    +0.000 C 
ATOM      3  C   UNL     1      -0.673   9.063  22.094  0.00  0.00    +0.000 C 
ATOM      4  N   UNL     1      -0.201   9.045  20.685  0.00  0.00    +0.000 NA
ATOM      5  C   UNL     1      -0.890  10.175  19.999  0.00  0.00    +0.000 C 
ATOM      6  C   UNL     1      -0.634  11.566  20.629  0.00  0.00    +0.000 C 
ENDROOT
BRANCH   1  10
ATOM      7  C   UNL     1      -3.893  14.104  23.649  0.00  0.00    +0.000 A 
ATOM      8  C   UNL     1      -2.996  14.562  22.686  0.00  0.00    +0.000 A 
ATOM      9  C   UNL     1      -2.035  13.700  22.158  0.00  0.00    +0.000 A 
ATOM     10  C   UNL     1      -1.920  12.376  22.587  0.00  0.00    +0.000 A 
ATOM     11  C   UNL     1      -2.819  11.946  23.579  0.00  0.00    +0.000 A 
ATOM     12  C   UNL     1      -3.792  12.797  24.102  0.00  0.00    +0.000 A 
BRANCH   7  14
ATOM     13  C   UNL     1      -5.418  15.790  23.050  0.00  0.00    +0.000 C 
ATOM     14  O   UNL     1      -4.813  15.015  24.081  0.00  0.00    +0.000 OA
ENDBRANCH   7  14
ENDBRANCH   1  10
BRANCH   4  15
ATOM     15  C   UNL     1       1.274   9.155  20.655  0.00  0.00    +0.000 C 
BRANCH  15  16
ATOM     16  C   UNL     1       1.844   8.647  19.374  0.00  0.00    +0.000 A 
ATOM     17  C   UNL     1       1.896   9.247  18.137  0.00  0.00    +0.000 A 
ATOM     18  O   UNL     1       2.574   8.423  17.294  0.00  0.00    +0.000 OA
ATOM     19  C   UNL     1       2.880   7.334  18.061  0.00  0.00    +0.000 A 
ATOM     20  N   UNL     1       2.429   7.401  19.303  0.00  0.00    +0.000 NA
BRANCH  19  21
ATOM     21  C   UNL     1       3.665   6.278  17.437  0.00  0.00    +0.000 A 
ATOM     22  C   UNL     1       4.721   6.575  16.560  0.00  0.00    +0.000 A 
ATOM     23  C   UNL     1       5.448   5.547  15.951  0.00  0.00    +0.000 A 
ATOM     24  C   UNL     1       5.127   4.222  16.218  0.00  0.00    +0.000 A 
ATOM     25  C   UNL     1       4.097   3.927  17.104  0.00  0.00    +0.000 A 
ATOM     26  F   UNL     1       3.797   2.650  17.369  0.00  0.00    +0.000 F 
ATOM     27  C   UNL     1       3.369   4.943  17.719  0.00  0.00    +0.000 A 
ENDBRANCH  19  21
ENDBRANCH  15  16
ENDBRANCH   4  15
TORSDOF 5
ENDMDL
