MODEL 1
REMARK VINA RESULT:      -6.5      0.000      0.000
REMARK  Name = 
REMARK  4 active torsions:
REMARK  status: ('A' for Active; 'I' for Inactive)
REMARK    1  A    between atoms: C_2  and  O_3
REMARK    2  A    between atoms: C_2  and  C_4
REMARK    3  A    between atoms: C_4  and  N_5
REMARK    4  A    between atoms: C_11  and  C_12
REMARK                            x       y       z     vdW  Elec       q    Type
REMARK                         _______ _______ _______ _____ _____    ______ ____
ROOT
ATOM      1  N   UNL     1       4.966   5.201  16.396  0.00  0.00    +0.000 N 
ATOM      2  C   UNL     1       5.056   6.533  16.043  0.00  0.00    +0.000 A 
ATOM      3  N   UNL     1       4.363   7.492  16.567  0.00  0.00    +0.000 NA
ATOM      4  C   UNL     1       3.517   7.105  17.555  0.00  0.00    +0.000 A 
ATOM      5  S   UNL     1       2.520   8.228  18.360  0.00  0.00    +0.000 S 
ATOM      6  C   UNL     1       1.854   7.008  19.361  0.00  0.00    +0.000 A 
ATOM      7  C   UNL     1       2.419   5.769  19.130  0.00  0.00    +0.000 A 
ATOM      8  C   UNL     1       3.324   5.818  18.019  0.00  0.00    +0.000 A 
ATOM      9  C   UNL     1       4.014   4.764  17.305  0.00  0.00    +0.000 A 
ATOM     10  O   UNL     1       3.735   3.568  17.386  0.00  0.00    +0.000 OA
ENDROOT
BRANCH   7  11
ATOM     11  C   UNL     1       2.091   4.571  19.986  0.00  0.00    +0.000 A 
ATOM     12  C   UNL     1       2.551   4.378  21.273  0.00  0.00    +0.000 A 
ATOM     13  C   UNL     1       2.089   3.157  21.846  0.00  0.00    +0.000 A 
ATOM     14  C   UNL     1       1.277   2.463  20.981  0.00  0.00    +0.000 A 
ATOM     15  S   UNL     1       1.041   3.304  19.511  0.00  0.00    +0.000 S 
ENDBRANCH   7  11
BRANCH   1  16
ATOM     16  C   UNL     1       5.787   4.204  15.725  0.00  0.00    +0.000 C 
BRANCH  16  18
ATOM     17  O   UNL     1       7.726   5.172  14.670  0.00  0.00    +0.000 OA
ATOM     18  C   UNL     1       7.248   4.620  15.652  0.00  0.00    +0.000 C 
BRANCH  18  19
ATOM     19  O   UNL     1       7.965   4.403  16.776  0.00  0.00    +0.000 OA
ATOM     20  H   UNL     1       7.827   5.065  17.495  0.00  0.00    +0.000 HD
ENDBRANCH  18  19
ENDBRANCH  16  18
ENDBRANCH   1  16
TORSDOF 4
ENDMDL
MODEL 2
REMARK VINA RESULT:      -6.5      1.976      3.913
REMARK  Name = 
REMARK  4 active torsions:
REMARK  status: ('A' for Active; 'I' for Inactive)
REMARK    1  A    between atoms: C_2  and  O_3
REMARK    2  A    between atoms: C_2  and  C_4
REMARK    3  A    between atoms: C_4  and  N_5
REMARK    4  A    between atoms: C_11  and  C_12
REMARK                            x       y       z     vdW  Elec       q    Type
REMARK                         _______ _______ _______ _____ _____    ______ ____
ROOT
ATOM      1  N   UNL     1       4.802   4.913  17.118  0.00  0.00    +0.000 N 
ATOM      2  C   UNL     1       4.739   3.652  17.674  0.00  0.00    +0.000 A 
ATOM      3  N   UNL     1       4.043   3.329  18.716  0.00  0.00    +0.000 NA
ATOM      4  C   UNL     1       3.315   4.345  19.247  0.00  0.00    +0.000 A 
ATOM      5  S   UNL     1       2.340   4.112  20.625  0.00  0.00    +0.000 S 
ATOM      6  C   UNL     1       1.823   5.744  20.607  0.00  0.00    +0.000 A 
ATOM      7  C   UNL     1       2.338   6.449  19.537  0.00  0.00    +0.000 A 
ATOM      8  C   UNL     1       3.272   5.651  18.800  0.00  0.00    +0.000 A 
ATOM      9  C   UNL     1       4.177   5.994  17.722  0.00  0.00    +0.000 A 
ATOM     10  O   UNL     1       4.481   7.145  17.407  0.00  0.00    +0.000 OA
ENDROOT
BRANCH   7  11
ATOM     11  C   UNL     1       1.912   7.864  19.237  0.00  0.00    +0.000 A 
ATOM     12  C   UNL     1       1.935   8.442  17.983  0.00  0.00    +0.000 A 
ATOM     13  C   UNL     1       1.483   9.793  17.988  0.00  0.00    +0.000 A 
ATOM     14  C   UNL     1       1.114  10.202  19.249  0.00  0.00    +0.000 A 
ATOM     15  S   UNL     1       1.271   8.947  20.399  0.00  0.00    +0.000 S 
ENDBRANCH   7  11
BRANCH   1  16
ATOM     16  C   UNL     1       5.634   5.164  15.950  0.00  0.00    +0.000 C 
BRANCH  16  18
ATOM     17  O   UNL     1       7.881   4.425  16.416  0.00  0.00    +0.000 OA
ATOM     18  C   UNL     1       7.096   5.359  16.321  0.00  0.00    +0.000 C 
BRANCH  18  19
ATOM     19  O   UNL     1       7.485   6.644  16.470  0.00  0.00    +0.000 OA
ATOM     20  H   UNL     1       6.951   7.172  17.112  0.00  0.00    +0.000 HD
ENDBRANCH  18  19
ENDBRANCH  16  18
ENDBRANCH   1  16
TORSDOF 4
ENDMDL
MODEL 3
REMARK VINA RESULT:      -6.4      2.739      5.803
REMARK  Name = 
REMARK  4 active torsions:
REMARK  status: ('A' for Active; 'I' for Inactive)
REMARK    1  A    between atoms: C_2  and  O_3
REMARK    2  A    between atoms: C_2  and  C_4
REMARK    3  A    between atoms: C_4  and  N_5
REMARK    4  A    between atoms: C_11  and  C_12
REMARK                            x       y       z     vdW  Elec       q    Type
REMARK                         _______ _______ _______ _____ _____    ______ ____
ROOT
ATOM      1  N   UNL     1       2.756   4.457  20.447  0.00  0.00    +0.000 N 
ATOM      2  C   UNL     1       1.849   5.449  20.759  0.00  0.00    +0.000 A 
ATOM      3  N   UNL     1       1.740   6.582  20.144  0.00  0.00    +0.000 NA
ATOM      4  C   UNL     1       2.593   6.743  19.099  0.00  0.00    +0.000 A 
ATOM      5  S   UNL     1       2.600   8.172  18.172  0.00  0.00    +0.000 S 
ATOM      6  C   UNL     1       3.848   7.579  17.161  0.00  0.00    +0.000 A 
ATOM      7  C   UNL     1       4.221   6.289  17.483  0.00  0.00    +0.000 A 
ATOM      8  C   UNL     1       3.546   5.842  18.666  0.00  0.00    +0.000 A 
ATOM      9  C   UNL     1       3.725   4.653  19.473  0.00  0.00    +0.000 A 
ATOM     10  O   UNL     1       4.703   3.908  19.410  0.00  0.00    +0.000 OA
ENDROOT
BRANCH   7  11
ATOM     11  C   UNL     1       5.202   5.510  16.645  0.00  0.00    +0.000 A 
ATOM     12  C   UNL     1       4.863   4.470  15.802  0.00  0.00    +0.000 A 
ATOM     13  C   UNL     1       5.990   3.910  15.134  0.00  0.00    +0.000 A 
ATOM     14  C   UNL     1       7.157   4.551  15.478  0.00  0.00    +0.000 A 
ATOM     15  S   UNL     1       6.880   5.845  16.561  0.00  0.00    +0.000 S 
ENDBRANCH   7  11
BRANCH   1  16
ATOM     16  C   UNL     1       2.797   3.225  21.221  0.00  0.00    +0.000 C 
BRANCH  16  18
ATOM     17  O   UNL     1       1.037   2.301  22.584  0.00  0.00    +0.000 OA
ATOM     18  C   UNL     1       1.407   2.662  21.475  0.00  0.00    +0.000 C 
BRANCH  18  19
ATOM     19  O   UNL     1       0.584   2.655  20.404  0.00  0.00    +0.000 OA
ATOM     20  H   UNL     1       0.087   1.813  20.263  0.00  0.00    +0.000 HD
ENDBRANCH  18  19
ENDBRANCH  16  18
ENDBRANCH   1  16
TORSDOF 4
ENDMDL
MODEL 4
REMARK VINA RESULT:      -6.4      3.340      5.133
REMARK  Name = 
REMARK  4 active torsions:
REMARK  status: ('A' for Active; 'I' for Inactive)
REMARK    1  A    between atoms: C_2  and  O_3
REMARK    2  A    between atoms: C_2  and  C_4
REMARK    3  A    between atoms: C_4  and  N_5
REMARK    4  A    between atoms: C_11  and  C_12
REMARK                            x       y       z     vdW  Elec       q    Type
REMARK                         _______ _______ _______ _____ _____    ______ ____
ROOT
ATOM      1  N   UNL     1       2.793   3.142  18.862  0.00  0.00    +0.000 N 
ATOM      2  C   UNL     1       3.882   2.735  18.117  0.00  0.00    +0.000 A 
ATOM      3  N   UNL     1       4.634   3.512  17.407  0.00  0.00    +0.000 NA
ATOM      4  C   UNL     1       4.296   4.826  17.456  0.00  0.00    +0.000 A 
ATOM      5  S   UNL     1       5.169   5.999  16.582  0.00  0.00    +0.000 S 
ATOM      6  C   UNL     1       4.172   7.262  17.168  0.00  0.00    +0.000 A 
ATOM      7  C   UNL     1       3.219   6.811  18.062  0.00  0.00    +0.000 A 
ATOM      8  C   UNL     1       3.244   5.382  18.158  0.00  0.00    +0.000 A 
ATOM      9  C   UNL     1       2.348   4.456  18.819  0.00  0.00    +0.000 A 
ATOM     10  O   UNL     1       1.223   4.745  19.227  0.00  0.00    +0.000 OA
ENDROOT
BRANCH   7  11
ATOM     11  C   UNL     1       2.319   7.760  18.813  0.00  0.00    +0.000 A 
ATOM     12  C   UNL     1       2.008   7.650  20.153  0.00  0.00    +0.000 A 
ATOM     13  C   UNL     1       1.131   8.680  20.602  0.00  0.00    +0.000 A 
ATOM     14  C   UNL     1       0.812   9.555  19.591  0.00  0.00    +0.000 A 
ATOM     15  S   UNL     1       1.603   9.157  18.128  0.00  0.00    +0.000 S 
ENDBRANCH   7  11
BRANCH   1  16
ATOM     16  C   UNL     1       2.008   2.173  19.611  0.00  0.00    +0.000 C 
BRANCH  16  18
ATOM     17  O   UNL     1       3.013   2.407  21.790  0.00  0.00    +0.000 OA
ATOM     18  C   UNL     1       2.003   2.472  21.102  0.00  0.00    +0.000 C 
BRANCH  18  19
ATOM     19  O   UNL     1       0.818   2.885  21.602  0.00  0.00    +0.000 OA
ATOM     20  H   UNL     1       0.867   3.333  22.481  0.00  0.00    +0.000 HD
ENDBRANCH  18  19
ENDBRANCH  16  18
ENDBRANCH   1  16
TORSDOF 4
ENDMDL
MODEL 5
REMARK VINA RESULT:      -6.4      1.096      1.395
REMARK  Name = 
REMARK  4 active torsions:
REMARK  status: ('A' for Active; 'I' for Inactive)
REMARK    1  A    between atoms: C_2  and  O_3
REMARK    2  A    between atoms: C_2  and  C_4
REMARK    3  A    between atoms: C_4  and  N_5
REMARK    4  A    between atoms: C_11  and  C_12
REMARK                            x       y       z     vdW  Elec       q    Type
REMARK                         _______ _______ _______ _____ _____    ______ ____
ROOT
ATOM      1  N   UNL     1       5.677   5.285  16.714  0.00  0.00    +0.000 N 
ATOM      2  C   UNL     1       5.819   6.628  16.427  0.00  0.00    +0.000 A 
ATOM      3  N   UNL     1       4.984   7.556  16.764  0.00  0.00    +0.000 NA
ATOM      4  C   UNL     1       3.914   7.123  17.478  0.00  0.00    +0.000 A 
ATOM      5  S   UNL     1       2.705   8.200  18.007  0.00  0.00    +0.000 S 
ATOM      6  C   UNL     1       1.829   6.939  18.764  0.00  0.00    +0.000 A 
ATOM      7  C   UNL     1       2.471   5.719  18.668  0.00  0.00    +0.000 A 
ATOM      8  C   UNL     1       3.640   5.820  17.845  0.00  0.00    +0.000 A 
ATOM      9  C   UNL     1       4.527   4.802  17.322  0.00  0.00    +0.000 A 
ATOM     10  O   UNL     1       4.271   3.598  17.299  0.00  0.00    +0.000 OA
ENDROOT
BRANCH   7  11
ATOM     11  C   UNL     1       1.959   4.491  19.378  0.00  0.00    +0.000 A 
ATOM     12  C   UNL     1       1.261   3.467  18.769  0.00  0.00    +0.000 A 
ATOM     13  C   UNL     1       0.893   2.433  19.678  0.00  0.00    +0.000 A 
ATOM     14  C   UNL     1       1.337   2.693  20.953  0.00  0.00    +0.000 A 
ATOM     15  S   UNL     1       2.227   4.151  21.035  0.00  0.00    +0.000 S 
ENDBRANCH   7  11
BRANCH   1  16
ATOM     16  C   UNL     1       6.676   4.326  16.268  0.00  0.00    +0.000 C 
BRANCH  16  18
ATOM     17  O   UNL     1       7.691   5.252  14.288  0.00  0.00    +0.000 OA
ATOM     18  C   UNL     1       6.935   4.422  14.773  0.00  0.00    +0.000 C 
BRANCH  18  19
ATOM     19  O   UNL     1       6.326   3.478  14.022  0.00  0.00    +0.000 OA
ATOM     20  H   UNL     1       6.560   2.546  14.250  0.00  0.00    +0.000 HD
ENDBRANCH  18  19
ENDBRANCH  16  18
ENDBRANCH   1  16
TORSDOF 4
ENDMDL
MODEL 6
REMARK VINA RESULT:      -6.2      3.404      6.250
REMARK  Name = 
REMARK  4 active torsions:
REMARK  status: ('A' for Active; 'I' for Inactive)
REMARK    1  A    between atoms: C_2  and  O_3
REMARK    2  A    between atoms: C_2  and  C_4
REMARK    3  A    between atoms: C_4  and  N_5
REMARK    4  A    between atoms: C_11  and  C_12
REMARK                            x       y       z     vdW  Elec       q    Type
REMARK                         _______ _______ _______ _____ _____    ______ ____
ROOT
ATOM      1  N   UNL     1       2.137   6.613  19.822  0.00  0.00    +0.000 N 
ATOM      2  C   UNL     1       1.442   5.773  20.668  0.00  0.00    +0.000 A 
ATOM      3  N   UNL     1       1.511   4.482  20.662  0.00  0.00    +0.000 NA
ATOM      4  C   UNL     1       2.372   3.966  19.747  0.00  0.00    +0.000 A 
ATOM      5  S   UNL     1       2.594   2.284  19.588  0.00  0.00    +0.000 S 
ATOM      6  C   UNL     1       3.744   2.496  18.336  0.00  0.00    +0.000 A 
ATOM      7  C   UNL     1       4.002   3.828  18.076  0.00  0.00    +0.000 A 
ATOM      8  C   UNL     1       3.137   4.675  18.842  0.00  0.00    +0.000 A 
ATOM      9  C   UNL     1       2.916   6.106  18.792  0.00  0.00    +0.000 A 
ATOM     10  O   UNL     1       3.279   6.836  17.869  0.00  0.00    +0.000 OA
ENDROOT
BRANCH   7  11
ATOM     11  C   UNL     1       5.079   4.257  17.112  0.00  0.00    +0.000 A 
ATOM     12  C   UNL     1       4.931   4.305  15.740  0.00  0.00    +0.000 A 
ATOM     13  C   UNL     1       6.111   4.742  15.072  0.00  0.00    +0.000 A 
ATOM     14  C   UNL     1       7.123   5.029  15.959  0.00  0.00    +0.000 A 
ATOM     15  S   UNL     1       6.629   4.815  17.582  0.00  0.00    +0.000 S 
ENDBRANCH   7  11
BRANCH   1  16
ATOM     16  C   UNL     1       1.967   8.056  19.910  0.00  0.00    +0.000 C 
BRANCH  16  18
ATOM     17  O   UNL     1      -0.012   8.554  21.194  0.00  0.00    +0.000 OA
ATOM     18  C   UNL     1       1.208   8.466  21.163  0.00  0.00    +0.000 C 
BRANCH  18  19
ATOM     19  O   UNL     1       1.971   8.658  22.261  0.00  0.00    +0.000 OA
ATOM     20  H   UNL     1       2.616   7.935  22.455  0.00  0.00    +0.000 HD
ENDBRANCH  18  19
ENDBRANCH  16  18
ENDBRANCH   1  16
TORSDOF 4
ENDMDL
MODEL 7
REMARK VINA RESULT:      -6.1      2.599      3.197
REMARK  Name = 
REMARK  4 active torsions:
REMARK  status: ('A' for Active; 'I' for Inactive)
REMARK    1  A    between atoms: C_2  and  O_3
REMARK    2  A    between atoms: C_2  and  C_4
REMARK    3  A    between atoms: C_4  and  N_5
REMARK    4  A    between atoms: C_11  and  C_12
REMARK                            x       y       z     vdW  Elec       q    Type
REMARK                         _______ _______ _______ _____ _____    ______ ____
ROOT
ATOM      1  N   UNL     1       5.773   4.353  14.795  0.00  0.00    +0.000 N 
ATOM      2  C   UNL     1       7.010   4.965  14.779  0.00  0.00    +0.000 A 
ATOM      3  N   UNL     1       7.609   5.466  15.810  0.00  0.00    +0.000 NA
ATOM      4  C   UNL     1       6.933   5.328  16.980  0.00  0.00    +0.000 A 
ATOM      5  S   UNL     1       7.562   5.930  18.444  0.00  0.00    +0.000 S 
ATOM      6  C   UNL     1       6.205   5.368  19.325  0.00  0.00    +0.000 A 
ATOM      7  C   UNL     1       5.307   4.681  18.531  0.00  0.00    +0.000 A 
ATOM      8  C   UNL     1       5.697   4.737  17.154  0.00  0.00    +0.000 A 
ATOM      9  C   UNL     1       5.006   4.321  15.951  0.00  0.00    +0.000 A 
ATOM     10  O   UNL     1       3.804   4.058  15.892  0.00  0.00    +0.000 OA
ENDROOT
BRANCH   7  11
ATOM     11  C   UNL     1       4.107   3.977  19.112  0.00  0.00    +0.000 A 
ATOM     12  C   UNL     1       3.035   4.613  19.706  0.00  0.00    +0.000 A 
ATOM     13  C   UNL     1       2.042   3.704  20.172  0.00  0.00    +0.000 A 
ATOM     14  C   UNL     1       2.382   2.398  19.906  0.00  0.00    +0.000 A 
ATOM     15  S   UNL     1       3.863   2.282  19.060  0.00  0.00    +0.000 S 
ENDBRANCH   7  11
BRANCH   1  16
ATOM     16  C   UNL     1       5.189   3.838  13.566  0.00  0.00    +0.000 C 
BRANCH  16  18
ATOM     17  O   UNL     1       7.079   4.286  12.139  0.00  0.00    +0.000 OA
ATOM     18  C   UNL     1       6.248   3.480  12.535  0.00  0.00    +0.000 C 
BRANCH  18  19
ATOM     19  O   UNL     1       6.253   2.188  12.140  0.00  0.00    +0.000 OA
ATOM     20  H   UNL     1       5.646   1.977  11.389  0.00  0.00    +0.000 HD
ENDBRANCH  18  19
ENDBRANCH  16  18
ENDBRANCH   1  16
TORSDOF 4
ENDMDL
MODEL 8
REMARK VINA RESULT:      -6.1      3.515      6.170
REMARK  Name = 
REMARK  4 active torsions:
REMARK  status: ('A' for Active; 'I' for Inactive)
REMARK    1  A    between atoms: C_2  and  O_3
REMARK    2  A    between atoms: C_2  and  C_4
REMARK    3  A    between atoms: C_4  and  N_5
REMARK    4  A    between atoms: C_11  and  C_12
REMARK                            x       y       z     vdW  Elec       q    Type
REMARK                         _______ _______ _______ _____ _____    ______ ____
ROOT
ATOM      1  N   UNL     1       2.075   6.676  19.887  0.00  0.00    +0.000 N 
ATOM      2  C   UNL     1       1.275   5.855  20.656  0.00  0.00    +0.000 A 
ATOM      3  N   UNL     1       1.325   4.563  20.670  0.00  0.00    +0.000 NA
ATOM      4  C   UNL     1       2.277   4.025  19.865  0.00  0.00    +0.000 A 
ATOM      5  S   UNL     1       2.491   2.339  19.748  0.00  0.00    +0.000 S 
ATOM      6  C   UNL     1       3.779   2.520  18.634  0.00  0.00    +0.000 A 
ATOM      7  C   UNL     1       4.085   3.846  18.392  0.00  0.00    +0.000 A 
ATOM      8  C   UNL     1       3.151   4.714  19.046  0.00  0.00    +0.000 A 
ATOM      9  C   UNL     1       2.960   6.146  18.958  0.00  0.00    +0.000 A 
ATOM     10  O   UNL     1       3.437   6.861  18.076  0.00  0.00    +0.000 OA
ENDROOT
BRANCH   7  11
ATOM     11  C   UNL     1       5.272   4.249  17.554  0.00  0.00    +0.000 A 
ATOM     12  C   UNL     1       6.503   4.614  18.062  0.00  0.00    +0.000 A 
ATOM     13  C   UNL     1       7.442   4.952  17.044  0.00  0.00    +0.000 A 
ATOM     14  C   UNL     1       6.900   4.819  15.787  0.00  0.00    +0.000 A 
ATOM     15  S   UNL     1       5.290   4.247  15.842  0.00  0.00    +0.000 S 
ENDBRANCH   7  11
BRANCH   1  16
ATOM     16  C   UNL     1       1.918   8.122  19.942  0.00  0.00    +0.000 C 
BRANCH  16  18
ATOM     17  O   UNL     1      -0.051   8.744  21.186  0.00  0.00    +0.000 OA
ATOM     18  C   UNL     1       1.161   8.568  21.183  0.00  0.00    +0.000 C 
BRANCH  18  19
ATOM     19  O   UNL     1       1.908   8.687  22.302  0.00  0.00    +0.000 OA
ATOM     20  H   UNL     1       2.404   9.538  22.386  0.00  0.00    +0.000 HD
ENDBRANCH  18  19
ENDBRANCH  16  18
ENDBRANCH   1  16
TORSDOF 4
ENDMDL
MODEL 9
REMARK VINA RESULT:      -6.0      3.796      5.527
REMARK  Name = 
REMARK  4 active torsions:
REMARK  status: ('A' for Active; 'I' for Inactive)
REMARK    1  A    between atoms: C_2  and  O_3
REMARK    2  A    between atoms: C_2  and  C_4
REMARK    3  A    between atoms: C_4  and  N_5
REMARK    4  A    between atoms: C_11  and  C_12
REMARK                            x       y       z     vdW  Elec       q    Type
REMARK                         _______ _______ _______ _____ _____    ______ ____
ROOT
ATOM      1  N   UNL     1       1.179   9.124  19.395  0.00  0.00    +0.000 N 
ATOM      2  C   UNL     1       1.818   9.719  18.325  0.00  0.00    +0.000 A 
ATOM      3  N   UNL     1       2.707   9.152  17.577  0.00  0.00    +0.000 NA
ATOM      4  C   UNL     1       2.976   7.860  17.897  0.00  0.00    +0.000 A 
ATOM      5  S   UNL     1       4.123   6.951  17.025  0.00  0.00    +0.000 S 
ATOM      6  C   UNL     1       3.849   5.567  17.995  0.00  0.00    +0.000 A 
ATOM      7  C   UNL     1       2.858   5.769  18.937  0.00  0.00    +0.000 A 
ATOM      8  C   UNL     1       2.416   7.132  18.928  0.00  0.00    +0.000 A 
ATOM      9  C   UNL     1       1.535   7.853  19.823  0.00  0.00    +0.000 A 
ATOM     10  O   UNL     1       1.194   7.454  20.937  0.00  0.00    +0.000 OA
ENDROOT
BRANCH   7  11
ATOM     11  C   UNL     1       2.349   4.651  19.810  0.00  0.00    +0.000 A 
ATOM     12  C   UNL     1       2.684   4.478  21.138  0.00  0.00    +0.000 A 
ATOM     13  C   UNL     1       2.063   3.335  21.721  0.00  0.00    +0.000 A 
ATOM     14  C   UNL     1       1.258   2.678  20.819  0.00  0.00    +0.000 A 
ATOM     15  S   UNL     1       1.223   3.465  19.301  0.00  0.00    +0.000 S 
ENDBRANCH   7  11
BRANCH   1  16
ATOM     16  C   UNL     1       0.204   9.867  20.178  0.00  0.00    +0.000 C 
BRANCH  16  18
ATOM     17  O   UNL     1       1.157  11.869  21.123  0.00  0.00    +0.000 OA
ATOM     18  C   UNL     1       0.859  10.692  21.275  0.00  0.00    +0.000 C 
BRANCH  18  19
ATOM     19  O   UNL     1       1.025  10.053  22.453  0.00  0.00    +0.000 OA
ATOM     20  H   UNL     1       0.571   9.179  22.524  0.00  0.00    +0.000 HD
ENDBRANCH  18  19
ENDBRANCH  16  18
ENDBRANCH   1  16
TORSDOF 4
ENDMDL
