MODEL 1
REMARK VINA RESULT:      -8.5      0.000      0.000
REMARK  Name = 
REMARK  8 active torsions:
REMARK  status: ('A' for Active; 'I' for Inactive)
REMARK    1  A    between atoms: C_1  and  C_2
REMARK    2  A    between atoms: C_2  and  O_3
REMARK    3  A    between atoms: O_3  and  C_4
REMARK    4  A    between atoms: C_7  and  C_8
REMARK    5  A    between atoms: C_8  and  C_9
REMARK    6  A    between atoms: C_26  and  O_27
REMARK    7  A    between atoms: C_28  and  O_29
REMARK    8  A    between atoms: C_30  and  O_31
REMARK                            x       y       z     vdW  Elec       q    Type
REMARK                         _______ _______ _______ _____ _____    ______ ____
ROOT
ATOM      1  C   UNL     1       0.063  11.442  18.631  0.00  0.00    +0.000 A 
ATOM      2  C   UNL     1      -1.562  11.171  18.960  0.00  0.00    +0.000 A 
ATOM      3  C   UNL     1      -2.543  12.233  19.590  0.00  0.00    +0.000 A 
ATOM      4  C   UNL     1      -1.657  13.317  19.890  0.00  0.00    +0.000 A 
ATOM      5  C   UNL     1      -0.497  13.750  19.086  0.00  0.00    +0.000 A 
ATOM      6  C   UNL     1       0.439  12.819  18.611  0.00  0.00    +0.000 A 
ATOM      7 CL   UNL     1       2.002  13.421  18.191  0.00  0.00    +0.000 Cl
ATOM      8  O   UNL     1      -0.654  12.386  20.854  0.00  0.00    +0.000 OA
ATOM      9  C   UNL     1      -0.165  13.085  21.959  0.00  0.00    +0.000 C 
ATOM     10  C   UNL     1      -1.106  12.538  22.961  0.00  0.00    +0.000 C 
ATOM     11  C   UNL     1      -2.332  13.042  22.839  0.00  0.00    +0.000 C 
ATOM     12  C   UNL     1      -3.539  12.475  23.406  0.00  0.00    +0.000 C 
ATOM     13  O   UNL     1      -4.021  13.679  23.940  0.00  0.00    +0.000 OA
ATOM     14  C   UNL     1      -5.260  13.963  23.382  0.00  0.00    +0.000 C 
ATOM     15  C   UNL     1      -5.432  14.346  21.857  0.00  0.00    +0.000 C 
ATOM     16  O   UNL     1      -4.420  13.953  20.838  0.00  0.00    +0.000 OA
ATOM     17  C   UNL     1      -4.302  12.643  20.077  0.00  0.00    +0.000 C 
ATOM     18  C   UNL     1      -5.973  12.061  20.162  0.00  0.00    +0.000 C 
ATOM     19  C   UNL     1      -7.042  12.514  21.312  0.00  0.00    +0.000 C 
ATOM     20  C   UNL     1      -6.942  13.989  21.727  0.00  0.00    +0.000 C 
ENDROOT
BRANCH  18  21
ATOM     21  O   UNL     1      -6.685  12.567  18.973  0.00  0.00    +0.000 OA
ATOM     22  H   UNL     1      -6.020  12.987  18.366  0.00  0.00    +0.000 HD
ENDBRANCH  18  21
BRANCH  19  23
ATOM     23  O   UNL     1      -7.047  11.655  22.456  0.00  0.00    +0.000 OA
ATOM     24  H   UNL     1      -7.471  12.164  23.175  0.00  0.00    +0.000 HD
ENDBRANCH  19  23
BRANCH  20  25
ATOM     25  O   UNL     1      -7.758  14.841  20.910  0.00  0.00    +0.000 OA
ATOM     26  H   UNL     1      -8.455  15.199  21.456  0.00  0.00    +0.000 HD
ENDBRANCH  20  25
BRANCH   1  27
ATOM     27  C   UNL     1       1.447  10.425  18.326  0.00  0.00    +0.000 C 
BRANCH  27  31
ATOM     28  C   UNL     1       2.491   6.046  19.694  0.00  0.00    +0.000 A 
ATOM     29  C   UNL     1       2.692   6.560  18.430  0.00  0.00    +0.000 A 
ATOM     30  C   UNL     1       2.318   7.912  18.017  0.00  0.00    +0.000 A 
ATOM     31  C   UNL     1       1.708   8.846  18.844  0.00  0.00    +0.000 A 
ATOM     32  C   UNL     1       1.427   8.294  20.193  0.00  0.00    +0.000 A 
ATOM     33  C   UNL     1       1.863   6.903  20.602  0.00  0.00    +0.000 A 
BRANCH  28  34
ATOM     34  O   UNL     1       2.786   4.696  19.833  0.00  0.00    +0.000 OA
BRANCH  34  36
ATOM     35  C   UNL     1       1.052   3.166  20.672  0.00  0.00    +0.000 C 
ATOM     36  C   UNL     1       2.406   3.867  20.946  0.00  0.00    +0.000 C 
ENDBRANCH  34  36
ENDBRANCH  28  34
ENDBRANCH  27  31
ENDBRANCH   1  27
TORSDOF 7
ENDMDL
MODEL 2
REMARK VINA RESULT:      -8.2      2.236      3.308
REMARK  Name = 
REMARK  8 active torsions:
REMARK  status: ('A' for Active; 'I' for Inactive)
REMARK    1  A    between atoms: C_1  and  C_2
REMARK    2  A    between atoms: C_2  and  O_3
REMARK    3  A    between atoms: O_3  and  C_4
REMARK    4  A    between atoms: C_7  and  C_8
REMARK    5  A    between atoms: C_8  and  C_9
REMARK    6  A    between atoms: C_26  and  O_27
REMARK    7  A    between atoms: C_28  and  O_29
REMARK    8  A    between atoms: C_30  and  O_31
REMARK                            x       y       z     vdW  Elec       q    Type
REMARK                         _______ _______ _______ _____ _____    ______ ____
ROOT
ATOM      1  C   UNL     1       0.521   9.532  20.707  0.00  0.00    +0.000 A 
ATOM      2  C   UNL     1      -0.463  10.135  21.929  0.00  0.00    +0.000 A 
ATOM      3  C   UNL     1      -1.381  11.410  21.799  0.00  0.00    +0.000 A 
ATOM      4  C   UNL     1      -1.024  11.905  20.504  0.00  0.00    +0.000 A 
ATOM      5  C   UNL     1      -0.691  11.095  19.316  0.00  0.00    +0.000 A 
ATOM      6  C   UNL     1       0.210  10.023  19.403  0.00  0.00    +0.000 A 
ATOM      7 CL   UNL     1       0.960   9.506  17.936  0.00  0.00    +0.000 Cl
ATOM      8  O   UNL     1       0.602  12.044  20.877  0.00  0.00    +0.000 OA
ATOM      9  C   UNL     1       1.196  13.165  20.294  0.00  0.00    +0.000 C 
ATOM     10  C   UNL     1       1.174  14.035  21.491  0.00  0.00    +0.000 C 
ATOM     11  C   UNL     1      -0.046  14.487  21.772  0.00  0.00    +0.000 C 
ATOM     12  C   UNL     1      -0.469  15.048  23.040  0.00  0.00    +0.000 C 
ATOM     13  O   UNL     1      -1.109  16.168  22.490  0.00  0.00    +0.000 OA
ATOM     14  C   UNL     1      -2.448  16.154  22.853  0.00  0.00    +0.000 C 
ATOM     15  C   UNL     1      -3.460  15.067  22.307  0.00  0.00    +0.000 C 
ATOM     16  O   UNL     1      -2.987  13.747  21.806  0.00  0.00    +0.000 OA
ATOM     17  C   UNL     1      -2.688  12.485  22.597  0.00  0.00    +0.000 C 
ATOM     18  C   UNL     1      -3.687  12.753  24.035  0.00  0.00    +0.000 C 
ATOM     19  C   UNL     1      -4.169  14.227  24.552  0.00  0.00    +0.000 C 
ATOM     20  C   UNL     1      -4.533  15.207  23.428  0.00  0.00    +0.000 C 
ENDROOT
BRANCH  18  21
ATOM     21  O   UNL     1      -5.011  12.155  23.779  0.00  0.00    +0.000 OA
ATOM     22  H   UNL     1      -5.325  12.461  22.887  0.00  0.00    +0.000 HD
ENDBRANCH  18  21
BRANCH  19  23
ATOM     23  O   UNL     1      -3.268  14.826  25.488  0.00  0.00    +0.000 OA
ATOM     24  H   UNL     1      -2.796  15.527  24.998  0.00  0.00    +0.000 HD
ENDBRANCH  19  23
BRANCH  20  25
ATOM     25  O   UNL     1      -5.911  15.108  23.042  0.00  0.00    +0.000 OA
ATOM     26  H   UNL     1      -6.299  14.372  23.512  0.00  0.00    +0.000 HD
ENDBRANCH  20  25
BRANCH   1  27
ATOM     27  C   UNL     1       1.884   8.446  20.643  0.00  0.00    +0.000 C 
BRANCH  27  31
ATOM     28  C   UNL     1       1.727   4.074  18.909  0.00  0.00    +0.000 A 
ATOM     29  C   UNL     1       1.377   4.441  20.191  0.00  0.00    +0.000 A 
ATOM     30  C   UNL     1       1.476   5.801  20.721  0.00  0.00    +0.000 A 
ATOM     31  C   UNL     1       1.942   6.892  20.000  0.00  0.00    +0.000 A 
ATOM     32  C   UNL     1       2.383   6.509  18.635  0.00  0.00    +0.000 A 
ATOM     33  C   UNL     1       2.229   5.100  18.103  0.00  0.00    +0.000 A 
BRANCH  28  34
ATOM     34  O   UNL     1       1.692   2.709  18.657  0.00  0.00    +0.000 OA
BRANCH  34  36
ATOM     35  C   UNL     1       3.747   1.361  18.546  0.00  0.00    +0.000 C 
ATOM     36  C   UNL     1       2.571   1.999  17.765  0.00  0.00    +0.000 C 
ENDBRANCH  34  36
ENDBRANCH  28  34
ENDBRANCH  27  31
ENDBRANCH   1  27
TORSDOF 7
ENDMDL
MODEL 3
REMARK VINA RESULT:      -8.1      1.134      1.491
REMARK  Name = 
REMARK  8 active torsions:
REMARK  status: ('A' for Active; 'I' for Inactive)
REMARK    1  A    between atoms: C_1  and  C_2
REMARK    2  A    between atoms: C_2  and  O_3
REMARK    3  A    between atoms: O_3  and  C_4
REMARK    4  A    between atoms: C_7  and  C_8
REMARK    5  A    between atoms: C_8  and  C_9
REMARK    6  A    between atoms: C_26  and  O_27
REMARK    7  A    between atoms: C_28  and  O_29
REMARK    8  A    between atoms: C_30  and  O_31
REMARK                            x       y       z     vdW  Elec       q    Type
REMARK                         _______ _______ _______ _____ _____    ______ ____
ROOT
ATOM      1  C   UNL     1       0.405  10.795  18.705  0.00  0.00    +0.000 A 
ATOM      2  C   UNL     1      -1.230  10.428  18.821  0.00  0.00    +0.000 A 
ATOM      3  C   UNL     1      -2.381  11.489  19.012  0.00  0.00    +0.000 A 
ATOM      4  C   UNL     1      -1.642  12.703  19.182  0.00  0.00    +0.000 A 
ATOM      5  C   UNL     1      -0.387  13.071  18.497  0.00  0.00    +0.000 A 
ATOM      6  C   UNL     1       0.683  12.165  18.418  0.00  0.00    +0.000 A 
ATOM      7 CL   UNL     1       2.251  12.827  18.125  0.00  0.00    +0.000 Cl
ATOM      8  O   UNL     1      -0.770  12.127  20.491  0.00  0.00    +0.000 OA
ATOM      9  C   UNL     1      -0.542  13.105  21.460  0.00  0.00    +0.000 C 
ATOM     10  C   UNL     1      -1.610  12.696  22.398  0.00  0.00    +0.000 C 
ATOM     11  C   UNL     1      -2.826  13.022  21.962  0.00  0.00    +0.000 C 
ATOM     12  C   UNL     1      -4.074  12.467  22.444  0.00  0.00    +0.000 C 
ATOM     13  O   UNL     1      -4.728  13.699  22.589  0.00  0.00    +0.000 OA
ATOM     14  C   UNL     1      -5.860  13.714  21.787  0.00  0.00    +0.000 C 
ATOM     15  C   UNL     1      -5.775  13.725  20.207  0.00  0.00    +0.000 C 
ATOM     16  O   UNL     1      -4.569  13.227  19.490  0.00  0.00    +0.000 OA
ATOM     17  C   UNL     1      -4.223  11.802  19.094  0.00  0.00    +0.000 C 
ATOM     18  C   UNL     1      -5.837  11.073  19.044  0.00  0.00    +0.000 C 
ATOM     19  C   UNL     1      -7.128  11.652  19.862  0.00  0.00    +0.000 C 
ATOM     20  C   UNL     1      -7.208  13.183  19.923  0.00  0.00    +0.000 C 
ENDROOT
BRANCH  18  21
ATOM     21  O   UNL     1      -6.352  11.219  17.669  0.00  0.00    +0.000 OA
ATOM     22  H   UNL     1      -5.626  11.590  17.101  0.00  0.00    +0.000 HD
ENDBRANCH  18  21
BRANCH  19  23
ATOM     23  O   UNL     1      -7.283  11.075  21.163  0.00  0.00    +0.000 OA
ATOM     24  H   UNL     1      -7.399  11.824  21.779  0.00  0.00    +0.000 HD
ENDBRANCH  19  23
BRANCH  20  25
ATOM     25  O   UNL     1      -7.917  13.737  18.804  0.00  0.00    +0.000 OA
ATOM     26  H   UNL     1      -8.414  13.034  18.390  0.00  0.00    +0.000 HD
ENDBRANCH  20  25
BRANCH   1  27
ATOM     27  C   UNL     1       1.889   9.895  18.881  0.00  0.00    +0.000 C 
BRANCH  27  31
ATOM     28  C   UNL     1       2.126   5.216  19.317  0.00  0.00    +0.000 A 
ATOM     29  C   UNL     1       1.882   6.104  20.343  0.00  0.00    +0.000 A 
ATOM     30  C   UNL     1       1.857   7.559  20.190  0.00  0.00    +0.000 A 
ATOM     31  C   UNL     1       2.082   8.227  18.994  0.00  0.00    +0.000 A 
ATOM     32  C   UNL     1       2.407   7.292  17.888  0.00  0.00    +0.000 A 
ATOM     33  C   UNL     1       2.385   5.789  18.069  0.00  0.00    +0.000 A 
BRANCH  28  34
ATOM     34  O   UNL     1       2.248   3.888  19.707  0.00  0.00    +0.000 OA
BRANCH  34  36
ATOM     35  C   UNL     1       1.460   2.646  21.679  0.00  0.00    +0.000 C 
ATOM     36  C   UNL     1       1.182   3.063  20.213  0.00  0.00    +0.000 C 
ENDBRANCH  34  36
ENDBRANCH  28  34
ENDBRANCH  27  31
ENDBRANCH   1  27
TORSDOF 7
ENDMDL
MODEL 4
REMARK VINA RESULT:      -7.7      2.136      3.282
REMARK  Name = 
REMARK  8 active torsions:
REMARK  status: ('A' for Active; 'I' for Inactive)
REMARK    1  A    between atoms: C_1  and  C_2
REMARK    2  A    between atoms: C_2  and  O_3
REMARK    3  A    between atoms: O_3  and  C_4
REMARK    4  A    between atoms: C_7  and  C_8
REMARK    5  A    between atoms: C_8  and  C_9
REMARK    6  A    between atoms: C_26  and  O_27
REMARK    7  A    between atoms: C_28  and  O_29
REMARK    8  A    between atoms: C_30  and  O_31
REMARK                            x       y       z     vdW  Elec       q    Type
REMARK                         _______ _______ _______ _____ _____    ______ ____
ROOT
ATOM      1  C   UNL     1       0.019  10.242  19.739  0.00  0.00    +0.000 A 
ATOM      2  C   UNL     1      -0.476  10.896  21.206  0.00  0.00    +0.000 A 
ATOM      3  C   UNL     1      -1.681  11.897  21.385  0.00  0.00    +0.000 A 
ATOM      4  C   UNL     1      -2.065  12.147  20.029  0.00  0.00    +0.000 A 
ATOM      5  C   UNL     1      -2.057  11.173  18.920  0.00  0.00    +0.000 A 
ATOM      6  C   UNL     1      -0.942  10.351  18.690  0.00  0.00    +0.000 A 
ATOM      7 CL   UNL     1      -0.777   9.677  17.109  0.00  0.00    +0.000 Cl
ATOM      8  O   UNL     1      -0.548  12.691  19.575  0.00  0.00    +0.000 OA
ATOM      9  C   UNL     1      -0.602  13.746  18.663  0.00  0.00    +0.000 C 
ATOM     10  C   UNL     1      -0.356  14.842  19.626  0.00  0.00    +0.000 C 
ATOM     11  C   UNL     1      -1.413  15.091  20.397  0.00  0.00    +0.000 C 
ATOM     12  C   UNL     1      -1.394  15.829  21.644  0.00  0.00    +0.000 C 
ATOM     13  O   UNL     1      -2.494  16.643  21.342  0.00  0.00    +0.000 OA
ATOM     14  C   UNL     1      -3.487  16.443  22.291  0.00  0.00    +0.000 C 
ATOM     15  C   UNL     1      -4.282  15.081  22.408  0.00  0.00    +0.000 C 
ATOM     16  O   UNL     1      -3.717  13.804  21.890  0.00  0.00    +0.000 OA
ATOM     17  C   UNL     1      -2.767  12.841  22.580  0.00  0.00    +0.000 C 
ATOM     18  C   UNL     1      -3.089  13.222  24.280  0.00  0.00    +0.000 C 
ATOM     19  C   UNL     1      -3.699  14.647  24.798  0.00  0.00    +0.000 C 
ATOM     20  C   UNL     1      -4.766  15.253  23.878  0.00  0.00    +0.000 C 
ENDROOT
BRANCH  18  21
ATOM     21  O   UNL     1      -4.166  12.328  24.744  0.00  0.00    +0.000 OA
ATOM     22  H   UNL     1      -3.945  11.400  24.465  0.00  0.00    +0.000 HD
ENDBRANCH  18  21
BRANCH  19  23
ATOM     23  O   UNL     1      -2.693  15.610  25.129  0.00  0.00    +0.000 OA
ATOM     24  H   UNL     1      -2.323  15.917  24.278  0.00  0.00    +0.000 HD
ENDBRANCH  19  23
BRANCH  20  25
ATOM     25  O   UNL     1      -6.088  14.795  24.199  0.00  0.00    +0.000 OA
ATOM     26  H   UNL     1      -6.566  14.670  23.382  0.00  0.00    +0.000 HD
ENDBRANCH  20  25
BRANCH   1  27
ATOM     27  C   UNL     1       1.470   9.465  19.161  0.00  0.00    +0.000 C 
BRANCH  27  31
ATOM     28  C   UNL     1       2.375   4.871  19.622  0.00  0.00    +0.000 A 
ATOM     29  C   UNL     1       1.833   5.682  20.596  0.00  0.00    +0.000 A 
ATOM     30  C   UNL     1       1.602   7.119  20.443  0.00  0.00    +0.000 A 
ATOM     31  C   UNL     1       1.905   7.846  19.300  0.00  0.00    +0.000 A 
ATOM     32  C   UNL     1       2.546   7.003  18.259  0.00  0.00    +0.000 A 
ATOM     33  C   UNL     1       2.735   5.511  18.432  0.00  0.00    +0.000 A 
BRANCH  28  34
ATOM     34  O   UNL     1       2.643   3.568  20.024  0.00  0.00    +0.000 OA
BRANCH  34  36
ATOM     35  C   UNL     1       0.709   2.492  18.950  0.00  0.00    +0.000 C 
ATOM     36  C   UNL     1       1.667   2.519  20.167  0.00  0.00    +0.000 C 
ENDBRANCH  34  36
ENDBRANCH  28  34
ENDBRANCH  27  31
ENDBRANCH   1  27
TORSDOF 7
ENDMDL
MODEL 5
REMARK VINA RESULT:      -7.6      2.164      3.112
REMARK  Name = 
REMARK  8 active torsions:
REMARK  status: ('A' for Active; 'I' for Inactive)
REMARK    1  A    between atoms: C_1  and  C_2
REMARK    2  A    between atoms: C_2  and  O_3
REMARK    3  A    between atoms: O_3  and  C_4
REMARK    4  A    between atoms: C_7  and  C_8
REMARK    5  A    between atoms: C_8  and  C_9
REMARK    6  A    between atoms: C_26  and  O_27
REMARK    7  A    between atoms: C_28  and  O_29
REMARK    8  A    between atoms: C_30  and  O_31
REMARK                            x       y       z     vdW  Elec       q    Type
REMARK                         _______ _______ _______ _____ _____    ______ ____
ROOT
ATOM      1  C   UNL     1       0.293   9.892  20.379  0.00  0.00    +0.000 A 
ATOM      2  C   UNL     1      -0.458  10.450  21.775  0.00  0.00    +0.000 A 
ATOM      3  C   UNL     1      -1.608  11.528  21.810  0.00  0.00    +0.000 A 
ATOM      4  C   UNL     1      -1.682  11.930  20.438  0.00  0.00    +0.000 A 
ATOM      5  C   UNL     1      -1.502  11.061  19.258  0.00  0.00    +0.000 A 
ATOM      6  C   UNL     1      -0.417  10.175  19.174  0.00  0.00    +0.000 A 
ATOM      7 CL   UNL     1       0.035   9.633  17.598  0.00  0.00    +0.000 Cl
ATOM      8  O   UNL     1      -0.072  12.384  20.362  0.00  0.00    +0.000 OA
ATOM      9  C   UNL     1       0.132  13.518  19.574  0.00  0.00    +0.000 C 
ATOM     10  C   UNL     1       0.238  14.498  20.677  0.00  0.00    +0.000 C 
ATOM     11  C   UNL     1      -0.940  14.765  21.238  0.00  0.00    +0.000 C 
ATOM     12  C   UNL     1      -1.138  15.383  22.534  0.00  0.00    +0.000 C 
ATOM     13  O   UNL     1      -2.097  16.310  22.101  0.00  0.00    +0.000 OA
ATOM     14  C   UNL     1      -3.277  16.108  22.802  0.00  0.00    +0.000 C 
ATOM     15  C   UNL     1      -4.163  14.811  22.611  0.00  0.00    +0.000 C 
ATOM     16  O   UNL     1      -3.582  13.544  22.088  0.00  0.00    +0.000 OA
ATOM     17  C   UNL     1      -2.861  12.447  22.852  0.00  0.00    +0.000 C 
ATOM     18  C   UNL     1      -3.509  12.699  24.481  0.00  0.00    +0.000 C 
ATOM     19  C   UNL     1      -4.124  14.117  25.011  0.00  0.00    +0.000 C 
ATOM     20  C   UNL     1      -4.934  14.890  23.962  0.00  0.00    +0.000 C 
ENDROOT
BRANCH  18  21
ATOM     21  O   UNL     1      -4.714  11.859  24.619  0.00  0.00    +0.000 OA
ATOM     22  H   UNL     1      -4.807  11.308  23.797  0.00  0.00    +0.000 HD
ENDBRANCH  18  21
BRANCH  19  23
ATOM     23  O   UNL     1      -3.153  14.960  25.639  0.00  0.00    +0.000 OA
ATOM     24  H   UNL     1      -3.599  15.815  25.796  0.00  0.00    +0.000 HD
ENDBRANCH  19  23
BRANCH  20  25
ATOM     25  O   UNL     1      -6.320  14.516  23.958  0.00  0.00    +0.000 OA
ATOM     26  H   UNL     1      -6.446  13.839  24.620  0.00  0.00    +0.000 HD
ENDBRANCH  20  25
BRANCH   1  27
ATOM     27  C   UNL     1       1.782   9.052  20.029  0.00  0.00    +0.000 C 
BRANCH  27  31
ATOM     28  C   UNL     1       2.751   4.495  19.378  0.00  0.00    +0.000 A 
ATOM     29  C   UNL     1       2.954   5.496  18.453  0.00  0.00    +0.000 A 
ATOM     30  C   UNL     1       2.603   6.901  18.663  0.00  0.00    +0.000 A 
ATOM     31  C   UNL     1       2.016   7.400  19.818  0.00  0.00    +0.000 A 
ATOM     32  C   UNL     1       1.733   6.328  20.805  0.00  0.00    +0.000 A 
ATOM     33  C   UNL     1       2.145   4.889  20.574  0.00  0.00    +0.000 A 
BRANCH  28  34
ATOM     34  O   UNL     1       3.021   3.211  18.922  0.00  0.00    +0.000 OA
BRANCH  34  36
ATOM     35  C   UNL     1       0.753   2.281  18.720  0.00  0.00    +0.000 C 
ATOM     36  C   UNL     1       2.158   2.422  18.082  0.00  0.00    +0.000 C 
ENDBRANCH  34  36
ENDBRANCH  28  34
ENDBRANCH  27  31
ENDBRANCH   1  27
TORSDOF 7
ENDMDL
MODEL 6
REMARK VINA RESULT:      -7.4      0.956      1.029
REMARK  Name = 
REMARK  8 active torsions:
REMARK  status: ('A' for Active; 'I' for Inactive)
REMARK    1  A    between atoms: C_1  and  C_2
REMARK    2  A    between atoms: C_2  and  O_3
REMARK    3  A    between atoms: O_3  and  C_4
REMARK    4  A    between atoms: C_7  and  C_8
REMARK    5  A    between atoms: C_8  and  C_9
REMARK    6  A    between atoms: C_26  and  O_27
REMARK    7  A    between atoms: C_28  and  O_29
REMARK    8  A    between atoms: C_30  and  O_31
REMARK                            x       y       z     vdW  Elec       q    Type
REMARK                         _______ _______ _______ _____ _____    ______ ____
ROOT
ATOM      1  C   UNL     1      -0.874  11.841  18.601  0.00  0.00    +0.000 A 
ATOM      2  C   UNL     1      -2.488  11.696  19.049  0.00  0.00    +0.000 A 
ATOM      3  C   UNL     1      -3.249  12.687  20.010  0.00  0.00    +0.000 A 
ATOM      4  C   UNL     1      -2.194  13.556  20.439  0.00  0.00    +0.000 A 
ATOM      5  C   UNL     1      -1.058  14.026  19.622  0.00  0.00    +0.000 A 
ATOM      6  C   UNL     1      -0.308  13.128  18.846  0.00  0.00    +0.000 A 
ATOM      7 CL   UNL     1       1.283  13.623  18.391  0.00  0.00    +0.000 Cl
ATOM      8  O   UNL     1      -1.256  12.310  21.047  0.00  0.00    +0.000 OA
ATOM      9  C   UNL     1      -0.579  12.665  22.215  0.00  0.00    +0.000 C 
ATOM     10  C   UNL     1      -1.499  12.012  23.172  0.00  0.00    +0.000 C 
ATOM     11  C   UNL     1      -2.646  12.673  23.310  0.00  0.00    +0.000 C 
ATOM     12  C   UNL     1      -3.869  12.136  23.873  0.00  0.00    +0.000 C 
ATOM     13  O   UNL     1      -4.126  13.227  24.715  0.00  0.00    +0.000 OA
ATOM     14  C   UNL     1      -5.355  13.782  24.383  0.00  0.00    +0.000 C 
ATOM     15  C   UNL     1      -5.601  14.533  23.013  0.00  0.00    +0.000 C 
ATOM     16  O   UNL     1      -4.747  14.274  21.820  0.00  0.00    +0.000 OA
ATOM     17  C   UNL     1      -4.883  13.178  20.778  0.00  0.00    +0.000 C 
ATOM     18  C   UNL     1      -6.606  12.795  20.925  0.00  0.00    +0.000 C 
ATOM     19  C   UNL     1      -7.497  13.087  22.264  0.00  0.00    +0.000 C 
ATOM     20  C   UNL     1      -7.152  14.399  22.983  0.00  0.00    +0.000 C 
ENDROOT
BRANCH  18  21
ATOM     21  O   UNL     1      -7.338  13.649  19.971  0.00  0.00    +0.000 OA
ATOM     22  H   UNL     1      -7.851  13.061  19.354  0.00  0.00    +0.000 HD
ENDBRANCH  18  21
BRANCH  19  23
ATOM     23  O   UNL     1      -7.526  11.988  23.180  0.00  0.00    +0.000 OA
ATOM     24  H   UNL     1      -7.486  11.180  22.633  0.00  0.00    +0.000 HD
ENDBRANCH  19  23
BRANCH  20  25
ATOM     25  O   UNL     1      -7.904  15.512  22.478  0.00  0.00    +0.000 OA
ATOM     26  H   UNL     1      -7.452  16.315  22.729  0.00  0.00    +0.000 HD
ENDBRANCH  20  25
BRANCH   1  27
ATOM     27  C   UNL     1       0.319  10.768  17.918  0.00  0.00    +0.000 C 
BRANCH  27  31
ATOM     28  C   UNL     1       2.405   6.943  19.693  0.00  0.00    +0.000 A 
ATOM     29  C   UNL     1       2.415   7.318  18.366  0.00  0.00    +0.000 A 
ATOM     30  C   UNL     1       1.721   8.489  17.831  0.00  0.00    +0.000 A 
ATOM     31  C   UNL     1       0.960   9.366  18.592  0.00  0.00    +0.000 A 
ATOM     32  C   UNL     1       0.885   8.947  20.014  0.00  0.00    +0.000 A 
ATOM     33  C   UNL     1       1.648   7.752  20.545  0.00  0.00    +0.000 A 
BRANCH  28  34
ATOM     34  O   UNL     1       3.007   5.720  19.962  0.00  0.00    +0.000 OA
BRANCH  34  36
ATOM     35  C   UNL     1       1.882   3.914  21.196  0.00  0.00    +0.000 C 
ATOM     36  C   UNL     1       2.382   4.431  19.824  0.00  0.00    +0.000 C 
ENDBRANCH  34  36
ENDBRANCH  28  34
ENDBRANCH  27  31
ENDBRANCH   1  27
TORSDOF 7
ENDMDL
MODEL 7
REMARK VINA RESULT:      -7.2      1.554      2.074
REMARK  Name = 
REMARK  8 active torsions:
REMARK  status: ('A' for Active; 'I' for Inactive)
REMARK    1  A    between atoms: C_1  and  C_2
REMARK    2  A    between atoms: C_2  and  O_3
REMARK    3  A    between atoms: O_3  and  C_4
REMARK    4  A    between atoms: C_7  and  C_8
REMARK    5  A    between atoms: C_8  and  C_9
REMARK    6  A    between atoms: C_26  and  O_27
REMARK    7  A    between atoms: C_28  and  O_29
REMARK    8  A    between atoms: C_30  and  O_31
REMARK                            x       y       z     vdW  Elec       q    Type
REMARK                         _______ _______ _______ _____ _____    ______ ____
ROOT
ATOM      1  C   UNL     1       0.116  10.684  19.609  0.00  0.00    +0.000 A 
ATOM      2  C   UNL     1      -1.515  10.373  19.351  0.00  0.00    +0.000 A 
ATOM      3  C   UNL     1      -2.639  11.475  19.255  0.00  0.00    +0.000 A 
ATOM      4  C   UNL     1      -1.914  12.668  19.572  0.00  0.00    +0.000 A 
ATOM      5  C   UNL     1      -0.523  12.978  19.189  0.00  0.00    +0.000 A 
ATOM      6  C   UNL     1       0.502  12.037  19.372  0.00  0.00    +0.000 A 
ATOM      7 CL   UNL     1       2.119  12.640  19.437  0.00  0.00    +0.000 Cl
ATOM      8  O   UNL     1      -1.389  12.095  21.055  0.00  0.00    +0.000 OA
ATOM      9  C   UNL     1      -1.353  13.089  22.035  0.00  0.00    +0.000 C 
ATOM     10  C   UNL     1      -2.623  12.736  22.708  0.00  0.00    +0.000 C 
ATOM     11  C   UNL     1      -3.692  13.091  21.998  0.00  0.00    +0.000 C 
ATOM     12  C   UNL     1      -5.038  12.589  22.189  0.00  0.00    +0.000 C 
ATOM     13  O   UNL     1      -5.661  13.844  22.160  0.00  0.00    +0.000 OA
ATOM     14  C   UNL     1      -6.577  13.876  21.118  0.00  0.00    +0.000 C 
ATOM     15  C   UNL     1      -6.132  13.848  19.600  0.00  0.00    +0.000 C 
ATOM     16  O   UNL     1      -4.813  13.294  19.188  0.00  0.00    +0.000 OA
ATOM     17  C   UNL     1      -4.438  11.849  18.906  0.00  0.00    +0.000 C 
ATOM     18  C   UNL     1      -6.023  11.172  18.496  0.00  0.00    +0.000 C 
ATOM     19  C   UNL     1      -7.445  11.811  18.986  0.00  0.00    +0.000 C 
ATOM     20  C   UNL     1      -7.480  13.346  19.002  0.00  0.00    +0.000 C 
ENDROOT
BRANCH  18  21
ATOM     21  O   UNL     1      -6.203  11.302  17.038  0.00  0.00    +0.000 OA
ATOM     22  H   UNL     1      -5.319  11.503  16.630  0.00  0.00    +0.000 HD
ENDBRANCH  18  21
BRANCH  19  23
ATOM     23  O   UNL     1      -7.916  11.271  20.225  0.00  0.00    +0.000 OA
ATOM     24  H   UNL     1      -8.748  11.742  20.426  0.00  0.00    +0.000 HD
ENDBRANCH  19  23
BRANCH  20  25
ATOM     25  O   UNL     1      -7.892  13.895  17.742  0.00  0.00    +0.000 OA
ATOM     26  H   UNL     1      -8.249  14.767  17.901  0.00  0.00    +0.000 HD
ENDBRANCH  20  25
BRANCH   1  27
ATOM     27  C   UNL     1       1.485   9.740  20.136  0.00  0.00    +0.000 C 
BRANCH  27  31
ATOM     28  C   UNL     1       2.333   5.256  18.989  0.00  0.00    +0.000 A 
ATOM     29  C   UNL     1       1.978   5.709  20.242  0.00  0.00    +0.000 A 
ATOM     30  C   UNL     1       1.763   7.115  20.585  0.00  0.00    +0.000 A 
ATOM     31  C   UNL     1       1.895   8.170  19.691  0.00  0.00    +0.000 A 
ATOM     32  C   UNL     1       2.335   7.711  18.351  0.00  0.00    +0.000 A 
ATOM     33  C   UNL     1       2.511   6.245  18.017  0.00  0.00    +0.000 A 
BRANCH  28  34
ATOM     34  O   UNL     1       2.628   3.901  18.916  0.00  0.00    +0.000 OA
BRANCH  34  36
ATOM     35  C   UNL     1       5.046   4.331  19.062  0.00  0.00    +0.000 C 
ATOM     36  C   UNL     1       3.928   3.341  18.650  0.00  0.00    +0.000 C 
ENDBRANCH  34  36
ENDBRANCH  28  34
ENDBRANCH  27  31
ENDBRANCH   1  27
TORSDOF 7
ENDMDL
MODEL 8
REMARK VINA RESULT:      -7.1      1.651      2.110
REMARK  Name = 
REMARK  8 active torsions:
REMARK  status: ('A' for Active; 'I' for Inactive)
REMARK    1  A    between atoms: C_1  and  C_2
REMARK    2  A    between atoms: C_2  and  O_3
REMARK    3  A    between atoms: O_3  and  C_4
REMARK    4  A    between atoms: C_7  and  C_8
REMARK    5  A    between atoms: C_8  and  C_9
REMARK    6  A    between atoms: C_26  and  O_27
REMARK    7  A    between atoms: C_28  and  O_29
REMARK    8  A    between atoms: C_30  and  O_31
REMARK                            x       y       z     vdW  Elec       q    Type
REMARK                         _______ _______ _______ _____ _____    ______ ____
ROOT
ATOM      1  C   UNL     1       0.399  10.773  18.918  0.00  0.00    +0.000 A 
ATOM      2  C   UNL     1      -1.241  10.405  18.942  0.00  0.00    +0.000 A 
ATOM      3  C   UNL     1      -2.402  11.467  19.028  0.00  0.00    +0.000 A 
ATOM      4  C   UNL     1      -1.677  12.688  19.207  0.00  0.00    +0.000 A 
ATOM      5  C   UNL     1      -0.382  13.039  18.591  0.00  0.00    +0.000 A 
ATOM      6  C   UNL     1       0.692  12.135  18.607  0.00  0.00    +0.000 A 
ATOM      7 CL   UNL     1       2.275  12.792  18.392  0.00  0.00    +0.000 Cl
ATOM      8  O   UNL     1      -0.889  12.155  20.585  0.00  0.00    +0.000 OA
ATOM      9  C   UNL     1      -0.722  13.163  21.537  0.00  0.00    +0.000 C 
ATOM     10  C   UNL     1      -1.847  12.779  22.417  0.00  0.00    +0.000 C 
ATOM     11  C   UNL     1      -3.033  13.088  21.896  0.00  0.00    +0.000 C 
ATOM     12  C   UNL     1      -4.309  12.544  22.316  0.00  0.00    +0.000 C 
ATOM     13  O   UNL     1      -4.972  13.778  22.382  0.00  0.00    +0.000 OA
ATOM     14  C   UNL     1      -6.051  13.764  21.510  0.00  0.00    +0.000 C 
ATOM     15  C   UNL     1      -5.868  13.728  19.939  0.00  0.00    +0.000 C 
ATOM     16  O   UNL     1      -4.618  13.212  19.314  0.00  0.00    +0.000 OA
ATOM     17  C   UNL     1      -4.247  11.777  18.985  0.00  0.00    +0.000 C 
ATOM     18  C   UNL     1      -5.853  11.042  18.855  0.00  0.00    +0.000 C 
ATOM     19  C   UNL     1      -7.193  11.641  19.574  0.00  0.00    +0.000 C 
ATOM     20  C   UNL     1      -7.279  13.174  19.582  0.00  0.00    +0.000 C 
ENDROOT
BRANCH  18  21
ATOM     21  O   UNL     1      -6.281  11.145  17.448  0.00  0.00    +0.000 OA
ATOM     22  H   UNL     1      -6.374  12.107  17.218  0.00  0.00    +0.000 HD
ENDBRANCH  18  21
BRANCH  19  23
ATOM     23  O   UNL     1      -7.429  11.104  20.879  0.00  0.00    +0.000 OA
ATOM     24  H   UNL     1      -7.611  10.152  20.751  0.00  0.00    +0.000 HD
ENDBRANCH  19  23
BRANCH  20  25
ATOM     25  O   UNL     1      -7.917  13.691  18.405  0.00  0.00    +0.000 OA
ATOM     26  H   UNL     1      -7.241  14.060  17.839  0.00  0.00    +0.000 HD
ENDBRANCH  20  25
BRANCH   1  27
ATOM     27  C   UNL     1       1.869   9.883  19.214  0.00  0.00    +0.000 C 
BRANCH  27  31
ATOM     28  C   UNL     1       3.245   5.578  17.906  0.00  0.00    +0.000 A 
ATOM     29  C   UNL     1       3.638   6.758  17.314  0.00  0.00    +0.000 A 
ATOM     30  C   UNL     1       3.162   8.084  17.711  0.00  0.00    +0.000 A 
ATOM     31  C   UNL     1       2.248   8.317  18.730  0.00  0.00    +0.000 A 
ATOM     32  C   UNL     1       1.765   7.054  19.342  0.00  0.00    +0.000 A 
ATOM     33  C   UNL     1       2.308   5.700  18.936  0.00  0.00    +0.000 A 
BRANCH  28  34
ATOM     34  O   UNL     1       3.706   4.425  17.283  0.00  0.00    +0.000 OA
BRANCH  34  36
ATOM     35  C   UNL     1       5.234   4.278  15.361  0.00  0.00    +0.000 C 
ATOM     36  C   UNL     1       5.070   4.170  16.897  0.00  0.00    +0.000 C 
ENDBRANCH  34  36
ENDBRANCH  28  34
ENDBRANCH  27  31
ENDBRANCH   1  27
TORSDOF 7
ENDMDL
MODEL 9
REMARK VINA RESULT:      -7.0      2.383      3.645
REMARK  Name = 
REMARK  8 active torsions:
REMARK  status: ('A' for Active; 'I' for Inactive)
REMARK    1  A    between atoms: C_1  and  C_2
REMARK    2  A    between atoms: C_2  and  O_3
REMARK    3  A    between atoms: O_3  and  C_4
REMARK    4  A    between atoms: C_7  and  C_8
REMARK    5  A    between atoms: C_8  and  C_9
REMARK    6  A    between atoms: C_26  and  O_27
REMARK    7  A    between atoms: C_28  and  O_29
REMARK    8  A    between atoms: C_30  and  O_31
REMARK                            x       y       z     vdW  Elec       q    Type
REMARK                         _______ _______ _______ _____ _____    ______ ____
ROOT
ATOM      1  C   UNL     1       0.824   9.120  20.202  0.00  0.00    +0.000 A 
ATOM      2  C   UNL     1      -0.279   9.833  21.250  0.00  0.00    +0.000 A 
ATOM      3  C   UNL     1      -1.038  11.187  20.973  0.00  0.00    +0.000 A 
ATOM      4  C   UNL     1      -0.432  11.625  19.752  0.00  0.00    +0.000 A 
ATOM      5  C   UNL     1       0.006  10.768  18.633  0.00  0.00    +0.000 A 
ATOM      6  C   UNL     1       0.775   9.616  18.865  0.00  0.00    +0.000 A 
ATOM      7 CL   UNL     1       1.696   9.007  17.538  0.00  0.00    +0.000 Cl
ATOM      8  O   UNL     1       1.119  11.615  20.381  0.00  0.00    +0.000 OA
ATOM      9  C   UNL     1       1.904  12.665  19.900  0.00  0.00    +0.000 C 
ATOM     10  C   UNL     1       1.775  13.552  21.077  0.00  0.00    +0.000 C 
ATOM     11  C   UNL     1       0.574  14.123  21.158  0.00  0.00    +0.000 C 
ATOM     12  C   UNL     1       0.011  14.742  22.341  0.00  0.00    +0.000 C 
ATOM     13  O   UNL     1      -0.422  15.909  21.695  0.00  0.00    +0.000 OA
ATOM     14  C   UNL     1      -1.797  16.027  21.838  0.00  0.00    +0.000 C 
ATOM     15  C   UNL     1      -2.809  15.033  21.138  0.00  0.00    +0.000 C 
ATOM     16  O   UNL     1      -2.391  13.666  20.720  0.00  0.00    +0.000 OA
ATOM     17  C   UNL     1      -2.346  12.395  21.550  0.00  0.00    +0.000 C 
ATOM     18  C   UNL     1      -3.532  12.780  22.808  0.00  0.00    +0.000 C 
ATOM     19  C   UNL     1      -3.946  14.301  23.239  0.00  0.00    +0.000 C 
ATOM     20  C   UNL     1      -4.028  15.293  22.071  0.00  0.00    +0.000 C 
ENDROOT
BRANCH  18  21
ATOM     21  O   UNL     1      -4.849  12.306  22.343  0.00  0.00    +0.000 OA
ATOM     22  H   UNL     1      -5.497  12.402  23.091  0.00  0.00    +0.000 HD
ENDBRANCH  18  21
BRANCH  19  23
ATOM     23  O   UNL     1      -3.152  14.827  24.308  0.00  0.00    +0.000 OA
ATOM     24  H   UNL     1      -3.219  15.799  24.242  0.00  0.00    +0.000 HD
ENDBRANCH  19  23
BRANCH  20  25
ATOM     25  O   UNL     1      -5.331  15.319  21.469  0.00  0.00    +0.000 OA
ATOM     26  H   UNL     1      -5.971  15.081  22.136  0.00  0.00    +0.000 HD
ENDBRANCH  20  25
BRANCH   1  27
ATOM     27  C   UNL     1       2.069   7.908  20.359  0.00  0.00    +0.000 C 
BRANCH  27  31
ATOM     28  C   UNL     1       3.621   4.597  17.398  0.00  0.00    +0.000 A 
ATOM     29  C   UNL     1       4.288   5.759  17.721  0.00  0.00    +0.000 A 
ATOM     30  C   UNL     1       3.765   6.795  18.611  0.00  0.00    +0.000 A 
ATOM     31  C   UNL     1       2.527   6.740  19.237  0.00  0.00    +0.000 A 
ATOM     32  C   UNL     1       1.765   5.525  18.856  0.00  0.00    +0.000 A 
ATOM     33  C   UNL     1       2.351   4.451  17.964  0.00  0.00    +0.000 A 
BRANCH  28  34
ATOM     34  O   UNL     1       4.233   3.819  16.424  0.00  0.00    +0.000 OA
BRANCH  34  36
ATOM     35  C   UNL     1       5.640   4.335  14.473  0.00  0.00    +0.000 C 
ATOM     36  C   UNL     1       5.594   3.958  15.975  0.00  0.00    +0.000 C 
ENDBRANCH  34  36
ENDBRANCH  28  34
ENDBRANCH  27  31
ENDBRANCH   1  27
TORSDOF 7
ENDMDL
