MODEL 1
REMARK VINA RESULT:      -7.3      0.000      0.000
REMARK  Name = 
REMARK  8 active torsions:
REMARK  status: ('A' for Active; 'I' for Inactive)
REMARK    1  A    between atoms: C_1  and  C_2
REMARK    2  A    between atoms: C_2  and  O_4
REMARK    3  A    between atoms: O_4  and  C_5
REMARK    4  A    between atoms: C_5  and  C_6
REMARK    5  A    between atoms: C_6  and  C_7
REMARK    6  A    between atoms: C_7  and  N_8
REMARK    7  A    between atoms: C_9  and  C_10
REMARK    8  A    between atoms: N_11  and  C_12
REMARK                            x       y       z     vdW  Elec       q    Type
REMARK                         _______ _______ _______ _____ _____    ______ ____
ROOT
ATOM      1  N   UNL     1       3.704   3.951  17.949  0.00  0.00    +0.000 N 
ATOM      2  C   UNL     1       3.431   2.947  18.819  0.00  0.00    +0.000 A 
ATOM      3  C   UNL     1       3.748   1.491  18.670  0.00  0.00    +0.000 C 
ATOM      4  N   UNL     1       2.798   3.489  19.884  0.00  0.00    +0.000 N 
ATOM      5  C   UNL     1       2.346   2.762  21.073  0.00  0.00    +0.000 C 
ATOM      6  C   UNL     1       2.604   4.848  19.686  0.00  0.00    +0.000 A 
ATOM      7  C   UNL     1       2.031   5.812  20.510  0.00  0.00    +0.000 A 
ATOM      8  C   UNL     1       1.976   7.115  19.999  0.00  0.00    +0.000 A 
ATOM      9 CL   UNL     1       1.332   8.337  21.036  0.00  0.00    +0.000 Cl
ATOM     10  C   UNL     1       2.416   7.405  18.693  0.00  0.00    +0.000 A 
ATOM     11 CL   UNL     1       2.388   9.012  18.051  0.00  0.00    +0.000 Cl
ATOM     12  C   UNL     1       2.927   6.406  17.854  0.00  0.00    +0.000 A 
ATOM     13  C   UNL     1       3.081   5.133  18.404  0.00  0.00    +0.000 A 
ENDROOT
BRANCH   1  14
ATOM     14  C   UNL     1       4.515   3.788  16.703  0.00  0.00    +0.000 C 
BRANCH  14  15
ATOM     15  C   UNL     1       5.473   4.938  16.419  0.00  0.00    +0.000 C 
BRANCH  15  16
ATOM     16  C   UNL     1       6.908   4.707  16.882  0.00  0.00    +0.000 C 
BRANCH  16  17
ATOM     17  O   UNL     1       6.911   4.478  18.309  0.00  0.00    +0.000 OA
BRANCH  17  19
ATOM     18  C   UNL     1       7.742   6.685  18.215  0.00  0.00    +0.000 C 
ATOM     19  C   UNL     1       7.420   5.495  19.067  0.00  0.00    +0.000 C 
ATOM     20  O   UNL     1       7.654   5.415  20.266  0.00  0.00    +0.000 OA
ENDBRANCH  17  19
ENDBRANCH  16  17
ENDBRANCH  15  16
ENDBRANCH  14  15
ENDBRANCH   1  14
TORSDOF 5
ENDMDL
MODEL 2
REMARK VINA RESULT:      -7.2      1.683      2.420
REMARK  Name = 
REMARK  8 active torsions:
REMARK  status: ('A' for Active; 'I' for Inactive)
REMARK    1  A    between atoms: C_1  and  C_2
REMARK    2  A    between atoms: C_2  and  O_4
REMARK    3  A    between atoms: O_4  and  C_5
REMARK    4  A    between atoms: C_5  and  C_6
REMARK    5  A    between atoms: C_6  and  C_7
REMARK    6  A    between atoms: C_7  and  N_8
REMARK    7  A    between atoms: C_9  and  C_10
REMARK    8  A    between atoms: N_11  and  C_12
REMARK                            x       y       z     vdW  Elec       q    Type
REMARK                         _______ _______ _______ _____ _____    ______ ____
ROOT
ATOM      1  N   UNL     1       3.928   4.263  18.501  0.00  0.00    +0.000 N 
ATOM      2  C   UNL     1       3.605   3.342  19.442  0.00  0.00    +0.000 A 
ATOM      3  C   UNL     1       4.013   1.902  19.496  0.00  0.00    +0.000 C 
ATOM      4  N   UNL     1       2.821   3.951  20.360  0.00  0.00    +0.000 N 
ATOM      5  C   UNL     1       2.268   3.327  21.564  0.00  0.00    +0.000 C 
ATOM      6  C   UNL     1       2.582   5.266  19.988  0.00  0.00    +0.000 A 
ATOM      7  C   UNL     1       1.864   6.273  20.627  0.00  0.00    +0.000 A 
ATOM      8  C   UNL     1       1.803   7.508  19.969  0.00  0.00    +0.000 A 
ATOM      9 CL   UNL     1       0.976   8.789  20.781  0.00  0.00    +0.000 Cl
ATOM     10  C   UNL     1       2.382   7.686  18.698  0.00  0.00    +0.000 A 
ATOM     11 CL   UNL     1       2.348   9.210  17.878  0.00  0.00    +0.000 Cl
ATOM     12  C   UNL     1       3.041   6.639  18.041  0.00  0.00    +0.000 A 
ATOM     13  C   UNL     1       3.194   5.443  18.745  0.00  0.00    +0.000 A 
ENDROOT
BRANCH   1  14
ATOM     14  C   UNL     1       4.890   4.022  17.382  0.00  0.00    +0.000 C 
BRANCH  14  15
ATOM     15  C   UNL     1       6.261   4.658  17.579  0.00  0.00    +0.000 C 
BRANCH  15  16
ATOM     16  C   UNL     1       6.725   5.549  16.431  0.00  0.00    +0.000 C 
BRANCH  16  17
ATOM     17  O   UNL     1       7.531   4.767  15.523  0.00  0.00    +0.000 OA
BRANCH  17  19
ATOM     18  C   UNL     1       6.079   3.948  13.852  0.00  0.00    +0.000 C 
ATOM     19  C   UNL     1       7.203   4.876  14.200  0.00  0.00    +0.000 C 
ATOM     20  O   UNL     1       7.798   5.580  13.395  0.00  0.00    +0.000 OA
ENDBRANCH  17  19
ENDBRANCH  16  17
ENDBRANCH  15  16
ENDBRANCH  14  15
ENDBRANCH   1  14
TORSDOF 5
ENDMDL
MODEL 3
REMARK VINA RESULT:      -7.1      1.187      1.291
REMARK  Name = 
REMARK  8 active torsions:
REMARK  status: ('A' for Active; 'I' for Inactive)
REMARK    1  A    between atoms: C_1  and  C_2
REMARK    2  A    between atoms: C_2  and  O_4
REMARK    3  A    between atoms: O_4  and  C_5
REMARK    4  A    between atoms: C_5  and  C_6
REMARK    5  A    between atoms: C_6  and  C_7
REMARK    6  A    between atoms: C_7  and  N_8
REMARK    7  A    between atoms: C_9  and  C_10
REMARK    8  A    between atoms: N_11  and  C_12
REMARK                            x       y       z     vdW  Elec       q    Type
REMARK                         _______ _______ _______ _____ _____    ______ ____
ROOT
ATOM      1  N   UNL     1       3.732   4.004  17.792  0.00  0.00    +0.000 N 
ATOM      2  C   UNL     1       3.457   2.966  18.620  0.00  0.00    +0.000 A 
ATOM      3  C   UNL     1       3.768   1.516  18.410  0.00  0.00    +0.000 C 
ATOM      4  N   UNL     1       2.827   3.466  19.707  0.00  0.00    +0.000 N 
ATOM      5  C   UNL     1       2.374   2.692  20.866  0.00  0.00    +0.000 C 
ATOM      6  C   UNL     1       2.638   4.832  19.566  0.00  0.00    +0.000 A 
ATOM      7  C   UNL     1       2.069   5.764  20.430  0.00  0.00    +0.000 A 
ATOM      8  C   UNL     1       2.018   7.086  19.973  0.00  0.00    +0.000 A 
ATOM      9 CL   UNL     1       1.380   8.268  21.060  0.00  0.00    +0.000 Cl
ATOM     10  C   UNL     1       2.457   7.429  18.680  0.00  0.00    +0.000 A 
ATOM     11 CL   UNL     1       2.434   9.061  18.104  0.00  0.00    +0.000 Cl
ATOM     12  C   UNL     1       2.963   6.464  17.799  0.00  0.00    +0.000 A 
ATOM     13  C   UNL     1       3.114   5.168  18.295  0.00  0.00    +0.000 A 
ENDROOT
BRANCH   1  14
ATOM     14  C   UNL     1       4.541   3.890  16.539  0.00  0.00    +0.000 C 
BRANCH  14  15
ATOM     15  C   UNL     1       6.027   4.171  16.719  0.00  0.00    +0.000 C 
BRANCH  15  16
ATOM     16  C   UNL     1       6.664   4.996  15.605  0.00  0.00    +0.000 C 
BRANCH  16  17
ATOM     17  O   UNL     1       7.621   5.909  16.183  0.00  0.00    +0.000 OA
BRANCH  17  19
ATOM     18  C   UNL     1       7.821   6.570  18.440  0.00  0.00    +0.000 C 
ATOM     19  C   UNL     1       7.124   6.764  17.127  0.00  0.00    +0.000 C 
ATOM     20  O   UNL     1       6.185   7.528  16.945  0.00  0.00    +0.000 OA
ENDBRANCH  17  19
ENDBRANCH  16  17
ENDBRANCH  15  16
ENDBRANCH  14  15
ENDBRANCH   1  14
TORSDOF 5
ENDMDL
MODEL 4
REMARK VINA RESULT:      -7.0      2.550      4.513
REMARK  Name = 
REMARK  8 active torsions:
REMARK  status: ('A' for Active; 'I' for Inactive)
REMARK    1  A    between atoms: C_1  and  C_2
REMARK    2  A    between atoms: C_2  and  O_4
REMARK    3  A    between atoms: O_4  and  C_5
REMARK    4  A    between atoms: C_5  and  C_6
REMARK    5  A    between atoms: C_6  and  C_7
REMARK    6  A    between atoms: C_7  and  N_8
REMARK    7  A    between atoms: C_9  and  C_10
REMARK    8  A    between atoms: N_11  and  C_12
REMARK                            x       y       z     vdW  Elec       q    Type
REMARK                         _______ _______ _______ _____ _____    ______ ____
ROOT
ATOM      1  N   UNL     1       4.423   4.530  18.235  0.00  0.00    +0.000 N 
ATOM      2  C   UNL     1       5.094   4.786  17.085  0.00  0.00    +0.000 A 
ATOM      3  C   UNL     1       6.090   3.912  16.387  0.00  0.00    +0.000 C 
ATOM      4  N   UNL     1       4.708   6.007  16.650  0.00  0.00    +0.000 N 
ATOM      5  C   UNL     1       5.168   6.664  15.424  0.00  0.00    +0.000 C 
ATOM      6  C   UNL     1       3.823   6.579  17.551  0.00  0.00    +0.000 A 
ATOM      7  C   UNL     1       3.149   7.796  17.512  0.00  0.00    +0.000 A 
ATOM      8  C   UNL     1       2.323   8.086  18.606  0.00  0.00    +0.000 A 
ATOM      9 CL   UNL     1       1.425   9.561  18.541  0.00  0.00    +0.000 Cl
ATOM     10  C   UNL     1       2.243   7.216  19.710  0.00  0.00    +0.000 A 
ATOM     11 CL   UNL     1       1.206   7.536  21.058  0.00  0.00    +0.000 Cl
ATOM     12  C   UNL     1       2.983   6.027  19.760  0.00  0.00    +0.000 A 
ATOM     13  C   UNL     1       3.720   5.689  18.624  0.00  0.00    +0.000 A 
ENDROOT
BRANCH   1  14
ATOM     14  C   UNL     1       4.470   3.225  18.964  0.00  0.00    +0.000 C 
BRANCH  14  15
ATOM     15  C   UNL     1       3.626   2.121  18.338  0.00  0.00    +0.000 C 
BRANCH  15  16
ATOM     16  C   UNL     1       2.133   2.422  18.260  0.00  0.00    +0.000 C 
BRANCH  16  17
ATOM     17  O   UNL     1       1.495   1.961  19.471  0.00  0.00    +0.000 OA
BRANCH  17  19
ATOM     18  C   UNL     1       1.770   2.598  21.727  0.00  0.00    +0.000 C 
ATOM     19  C   UNL     1       1.193   2.932  20.385  0.00  0.00    +0.000 C 
ATOM     20  O   UNL     1       0.483   3.902  20.155  0.00  0.00    +0.000 OA
ENDBRANCH  17  19
ENDBRANCH  16  17
ENDBRANCH  15  16
ENDBRANCH  14  15
ENDBRANCH   1  14
TORSDOF 5
ENDMDL
MODEL 5
REMARK VINA RESULT:      -7.0      4.116      6.163
REMARK  Name = 
REMARK  8 active torsions:
REMARK  status: ('A' for Active; 'I' for Inactive)
REMARK    1  A    between atoms: C_1  and  C_2
REMARK    2  A    between atoms: C_2  and  O_4
REMARK    3  A    between atoms: O_4  and  C_5
REMARK    4  A    between atoms: C_5  and  C_6
REMARK    5  A    between atoms: C_6  and  C_7
REMARK    6  A    between atoms: C_7  and  N_8
REMARK    7  A    between atoms: C_9  and  C_10
REMARK    8  A    between atoms: N_11  and  C_12
REMARK                            x       y       z     vdW  Elec       q    Type
REMARK                         _______ _______ _______ _____ _____    ______ ____
ROOT
ATOM      1  N   UNL     1       4.812   3.814  17.301  0.00  0.00    +0.000 N 
ATOM      2  C   UNL     1       5.356   4.658  18.211  0.00  0.00    +0.000 A 
ATOM      3  C   UNL     1       4.970   4.833  19.648  0.00  0.00    +0.000 C 
ATOM      4  N   UNL     1       6.339   5.350  17.592  0.00  0.00    +0.000 N 
ATOM      5  C   UNL     1       7.205   6.353  18.217  0.00  0.00    +0.000 C 
ATOM      6  C   UNL     1       6.403   4.998  16.253  0.00  0.00    +0.000 A 
ATOM      7  C   UNL     1       7.263   5.419  15.243  0.00  0.00    +0.000 A 
ATOM      8  C   UNL     1       7.049   4.870  13.973  0.00  0.00    +0.000 A 
ATOM      9 CL   UNL     1       8.151   5.329  12.724  0.00  0.00    +0.000 Cl
ATOM     10  C   UNL     1       5.974   3.993  13.728  0.00  0.00    +0.000 A 
ATOM     11 CL   UNL     1       5.708   3.277  12.176  0.00  0.00    +0.000 Cl
ATOM     12  C   UNL     1       5.078   3.635  14.744  0.00  0.00    +0.000 A 
ATOM     13  C   UNL     1       5.357   4.097  16.031  0.00  0.00    +0.000 A 
ENDROOT
BRANCH   1  14
ATOM     14  C   UNL     1       3.780   2.780  17.622  0.00  0.00    +0.000 C 
BRANCH  14  15
ATOM     15  C   UNL     1       2.362   3.322  17.748  0.00  0.00    +0.000 C 
BRANCH  15  16
ATOM     16  C   UNL     1       1.438   2.502  18.643  0.00  0.00    +0.000 C 
BRANCH  16  17
ATOM     17  O   UNL     1       0.676   3.398  19.481  0.00  0.00    +0.000 OA
BRANCH  17  19
ATOM     18  C   UNL     1       1.712   2.834  21.525  0.00  0.00    +0.000 C 
ATOM     19  C   UNL     1       1.347   3.915  20.554  0.00  0.00    +0.000 C 
ATOM     20  O   UNL     1       1.551   5.109  20.733  0.00  0.00    +0.000 OA
ENDBRANCH  17  19
ENDBRANCH  16  17
ENDBRANCH  15  16
ENDBRANCH  14  15
ENDBRANCH   1  14
TORSDOF 5
ENDMDL
MODEL 6
REMARK VINA RESULT:      -6.8      2.243      3.168
REMARK  Name = 
REMARK  8 active torsions:
REMARK  status: ('A' for Active; 'I' for Inactive)
REMARK    1  A    between atoms: C_1  and  C_2
REMARK    2  A    between atoms: C_2  and  O_4
REMARK    3  A    between atoms: O_4  and  C_5
REMARK    4  A    between atoms: C_5  and  C_6
REMARK    5  A    between atoms: C_6  and  C_7
REMARK    6  A    between atoms: C_7  and  N_8
REMARK    7  A    between atoms: C_9  and  C_10
REMARK    8  A    between atoms: N_11  and  C_12
REMARK                            x       y       z     vdW  Elec       q    Type
REMARK                         _______ _______ _______ _____ _____    ______ ____
ROOT
ATOM      1  N   UNL     1       3.597   3.912  17.758  0.00  0.00    +0.000 N 
ATOM      2  C   UNL     1       3.401   2.918  18.659  0.00  0.00    +0.000 A 
ATOM      3  C   UNL     1       3.697   1.459  18.498  0.00  0.00    +0.000 C 
ATOM      4  N   UNL     1       2.869   3.474  19.771  0.00  0.00    +0.000 N 
ATOM      5  C   UNL     1       2.524   2.761  21.004  0.00  0.00    +0.000 C 
ATOM      6  C   UNL     1       2.662   4.831  19.577  0.00  0.00    +0.000 A 
ATOM      7  C   UNL     1       2.170   5.807  20.439  0.00  0.00    +0.000 A 
ATOM      8  C   UNL     1       2.073   7.104  19.921  0.00  0.00    +0.000 A 
ATOM      9 CL   UNL     1       1.529   8.340  20.999  0.00  0.00    +0.000 Cl
ATOM     10  C   UNL     1       2.393   7.379  18.578  0.00  0.00    +0.000 A 
ATOM     11 CL   UNL     1       2.312   8.979  17.923  0.00  0.00    +0.000 Cl
ATOM     12  C   UNL     1       2.822   6.369  17.707  0.00  0.00    +0.000 A 
ATOM     13  C   UNL     1       3.021   5.100  18.253  0.00  0.00    +0.000 A 
ENDROOT
BRANCH   1  14
ATOM     14  C   UNL     1       4.290   3.732  16.445  0.00  0.00    +0.000 C 
BRANCH  14  15
ATOM     15  C   UNL     1       5.575   4.538  16.293  0.00  0.00    +0.000 C 
BRANCH  15  16
ATOM     16  C   UNL     1       6.247   4.423  14.929  0.00  0.00    +0.000 C 
BRANCH  16  17
ATOM     17  O   UNL     1       5.254   4.061  13.944  0.00  0.00    +0.000 OA
BRANCH  17  19
ATOM     18  C   UNL     1       4.639   3.263  11.810  0.00  0.00    +0.000 C 
ATOM     19  C   UNL     1       5.742   3.730  12.710  0.00  0.00    +0.000 C 
ATOM     20  O   UNL     1       6.929   3.739  12.410  0.00  0.00    +0.000 OA
ENDBRANCH  17  19
ENDBRANCH  16  17
ENDBRANCH  15  16
ENDBRANCH  14  15
ENDBRANCH   1  14
TORSDOF 5
ENDMDL
MODEL 7
REMARK VINA RESULT:      -6.8      3.920      6.072
REMARK  Name = 
REMARK  8 active torsions:
REMARK  status: ('A' for Active; 'I' for Inactive)
REMARK    1  A    between atoms: C_1  and  C_2
REMARK    2  A    between atoms: C_2  and  O_4
REMARK    3  A    between atoms: O_4  and  C_5
REMARK    4  A    between atoms: C_5  and  C_6
REMARK    5  A    between atoms: C_6  and  C_7
REMARK    6  A    between atoms: C_7  and  N_8
REMARK    7  A    between atoms: C_9  and  C_10
REMARK    8  A    between atoms: N_11  and  C_12
REMARK                            x       y       z     vdW  Elec       q    Type
REMARK                         _______ _______ _______ _____ _____    ______ ____
ROOT
ATOM      1  N   UNL     1       4.393   4.316  17.199  0.00  0.00    +0.000 N 
ATOM      2  C   UNL     1       5.021   5.072  18.133  0.00  0.00    +0.000 A 
ATOM      3  C   UNL     1       4.575   5.363  19.533  0.00  0.00    +0.000 C 
ATOM      4  N   UNL     1       6.159   5.546  17.577  0.00  0.00    +0.000 N 
ATOM      5  C   UNL     1       7.153   6.388  18.247  0.00  0.00    +0.000 C 
ATOM      6  C   UNL     1       6.249   5.145  16.253  0.00  0.00    +0.000 A 
ATOM      7  C   UNL     1       7.244   5.364  15.304  0.00  0.00    +0.000 A 
ATOM      8  C   UNL     1       7.020   4.824  14.031  0.00  0.00    +0.000 A 
ATOM      9 CL   UNL     1       8.275   5.026  12.861  0.00  0.00    +0.000 Cl
ATOM     10  C   UNL     1       5.818   4.157  13.723  0.00  0.00    +0.000 A 
ATOM     11 CL   UNL     1       5.531   3.453  12.168  0.00  0.00    +0.000 Cl
ATOM     12  C   UNL     1       4.800   4.007  14.674  0.00  0.00    +0.000 A 
ATOM     13  C   UNL     1       5.070   4.450  15.969  0.00  0.00    +0.000 A 
ENDROOT
BRANCH   1  14
ATOM     14  C   UNL     1       3.163   3.506  17.461  0.00  0.00    +0.000 C 
BRANCH  14  15
ATOM     15  C   UNL     1       3.431   2.109  18.006  0.00  0.00    +0.000 C 
BRANCH  15  16
ATOM     16  C   UNL     1       2.559   1.704  19.190  0.00  0.00    +0.000 C 
BRANCH  16  17
ATOM     17  O   UNL     1       2.870   2.554  20.316  0.00  0.00    +0.000 OA
BRANCH  17  19
ATOM     18  C   UNL     1       1.003   3.996  20.395  0.00  0.00    +0.000 C 
ATOM     19  C   UNL     1       1.802   2.931  21.082  0.00  0.00    +0.000 C 
ATOM     20  O   UNL     1       1.575   2.510  22.209  0.00  0.00    +0.000 OA
ENDBRANCH  17  19
ENDBRANCH  16  17
ENDBRANCH  15  16
ENDBRANCH  14  15
ENDBRANCH   1  14
TORSDOF 5
ENDMDL
MODEL 8
REMARK VINA RESULT:      -6.7      1.279      1.560
REMARK  Name = 
REMARK  8 active torsions:
REMARK  status: ('A' for Active; 'I' for Inactive)
REMARK    1  A    between atoms: C_1  and  C_2
REMARK    2  A    between atoms: C_2  and  O_4
REMARK    3  A    between atoms: O_4  and  C_5
REMARK    4  A    between atoms: C_5  and  C_6
REMARK    5  A    between atoms: C_6  and  C_7
REMARK    6  A    between atoms: C_7  and  N_8
REMARK    7  A    between atoms: C_9  and  C_10
REMARK    8  A    between atoms: N_11  and  C_12
REMARK                            x       y       z     vdW  Elec       q    Type
REMARK                         _______ _______ _______ _____ _____    ______ ____
ROOT
ATOM      1  N   UNL     1       3.384   4.794  18.238  0.00  0.00    +0.000 N 
ATOM      2  C   UNL     1       3.158   3.852  19.187  0.00  0.00    +0.000 A 
ATOM      3  C   UNL     1       3.513   2.397  19.142  0.00  0.00    +0.000 C 
ATOM      4  N   UNL     1       2.531   4.456  20.222  0.00  0.00    +0.000 N 
ATOM      5  C   UNL     1       2.125   3.810  21.472  0.00  0.00    +0.000 C 
ATOM      6  C   UNL     1       2.294   5.790  19.926  0.00  0.00    +0.000 A 
ATOM      7  C   UNL     1       1.711   6.798  20.688  0.00  0.00    +0.000 A 
ATOM      8  C   UNL     1       1.607   8.056  20.080  0.00  0.00    +0.000 A 
ATOM      9 CL   UNL     1       0.950   9.337  21.036  0.00  0.00    +0.000 Cl
ATOM     10  C   UNL     1       2.012   8.258  18.747  0.00  0.00    +0.000 A 
ATOM     11 CL   UNL     1       1.925   9.809  17.986  0.00  0.00    +0.000 Cl
ATOM     12  C   UNL     1       2.534   7.212  17.975  0.00  0.00    +0.000 A 
ATOM     13  C   UNL     1       2.736   5.989  18.615  0.00  0.00    +0.000 A 
ENDROOT
BRANCH   1  14
ATOM     14  C   UNL     1       4.173   4.558  16.990  0.00  0.00    +0.000 C 
BRANCH  14  15
ATOM     15  C   UNL     1       5.625   4.162  17.226  0.00  0.00    +0.000 C 
BRANCH  15  16
ATOM     16  C   UNL     1       6.365   5.019  18.249  0.00  0.00    +0.000 C 
BRANCH  16  17
ATOM     17  O   UNL     1       6.254   6.408  17.869  0.00  0.00    +0.000 OA
BRANCH  17  19
ATOM     18  C   UNL     1       7.843   8.149  17.752  0.00  0.00    +0.000 C 
ATOM     19  C   UNL     1       7.294   6.901  17.130  0.00  0.00    +0.000 C 
ATOM     20  O   UNL     1       7.672   6.430  16.065  0.00  0.00    +0.000 OA
ENDBRANCH  17  19
ENDBRANCH  16  17
ENDBRANCH  15  16
ENDBRANCH  14  15
ENDBRANCH   1  14
TORSDOF 5
ENDMDL
MODEL 9
REMARK VINA RESULT:      -6.7      2.562      4.500
REMARK  Name = 
REMARK  8 active torsions:
REMARK  status: ('A' for Active; 'I' for Inactive)
REMARK    1  A    between atoms: C_1  and  C_2
REMARK    2  A    between atoms: C_2  and  O_4
REMARK    3  A    between atoms: O_4  and  C_5
REMARK    4  A    between atoms: C_5  and  C_6
REMARK    5  A    between atoms: C_6  and  C_7
REMARK    6  A    between atoms: C_7  and  N_8
REMARK    7  A    between atoms: C_9  and  C_10
REMARK    8  A    between atoms: N_11  and  C_12
REMARK                            x       y       z     vdW  Elec       q    Type
REMARK                         _______ _______ _______ _____ _____    ______ ____
ROOT
ATOM      1  N   UNL     1       4.583   4.669  18.366  0.00  0.00    +0.000 N 
ATOM      2  C   UNL     1       5.223   4.916  17.196  0.00  0.00    +0.000 A 
ATOM      3  C   UNL     1       6.269   4.079  16.527  0.00  0.00    +0.000 C 
ATOM      4  N   UNL     1       4.751   6.086  16.711  0.00  0.00    +0.000 N 
ATOM      5  C   UNL     1       5.153   6.715  15.450  0.00  0.00    +0.000 C 
ATOM      6  C   UNL     1       3.838   6.639  17.595  0.00  0.00    +0.000 A 
ATOM      7  C   UNL     1       3.082   7.805  17.509  0.00  0.00    +0.000 A 
ATOM      8  C   UNL     1       2.250   8.089  18.599  0.00  0.00    +0.000 A 
ATOM      9 CL   UNL     1       1.253   9.495  18.478  0.00  0.00    +0.000 Cl
ATOM     10  C   UNL     1       2.239   7.269  19.743  0.00  0.00    +0.000 A 
ATOM     11 CL   UNL     1       1.196   7.581  21.088  0.00  0.00    +0.000 Cl
ATOM     12  C   UNL     1       3.059   6.136  19.838  0.00  0.00    +0.000 A 
ATOM     13  C   UNL     1       3.806   5.796  18.709  0.00  0.00    +0.000 A 
ENDROOT
BRANCH   1  14
ATOM     14  C   UNL     1       4.726   3.406  19.153  0.00  0.00    +0.000 C 
BRANCH  14  15
ATOM     15  C   UNL     1       4.000   2.206  18.558  0.00  0.00    +0.000 C 
BRANCH  15  16
ATOM     16  C   UNL     1       2.755   1.765  19.323  0.00  0.00    +0.000 C 
BRANCH  16  17
ATOM     17  O   UNL     1       1.590   2.009  18.506  0.00  0.00    +0.000 OA
BRANCH  17  19
ATOM     18  C   UNL     1       0.634   3.662  19.894  0.00  0.00    +0.000 C 
ATOM     19  C   UNL     1       1.116   3.292  18.524  0.00  0.00    +0.000 C 
ATOM     20  O   UNL     1       1.026   4.011  17.537  0.00  0.00    +0.000 OA
ENDBRANCH  17  19
ENDBRANCH  16  17
ENDBRANCH  15  16
ENDBRANCH  14  15
ENDBRANCH   1  14
TORSDOF 5
ENDMDL
