MODEL 1
REMARK VINA RESULT:      -7.8      0.000      0.000
REMARK  Name = 
REMARK  6 active torsions:
REMARK  status: ('A' for Active; 'I' for Inactive)
REMARK    1  A    between atoms: C_1  and  O_2
REMARK    2  A    between atoms: O_2  and  C_3
REMARK    3  A    between atoms: C_3  and  C_5
REMARK    4  A    between atoms: C_6  and  N_7
REMARK    5  A    between atoms: C_8  and  C_10
REMARK    6  A    between atoms: N_22  and  C_23
REMARK                            x       y       z     vdW  Elec       q    Type
REMARK                         _______ _______ _______ _____ _____    ______ ____
ROOT
ATOM      1  N   UNL     1       4.733   3.682  16.356  0.00  0.00    +0.000 N 
ATOM      2  C   UNL     1       4.084   4.653  17.105  0.00  0.00    +0.000 C 
ATOM      3  O   UNL     1       4.182   5.860  16.894  0.00  0.00    +0.000 OA
ATOM      4  H   UNL     1       4.323   2.759  16.330  0.00  0.00    +0.000 HD
ENDROOT
BRANCH   2   5
ATOM      5  C   UNL     1       3.201   4.089  18.239  0.00  0.00    +0.000 C 
ATOM      6  C   UNL     1       3.590   2.616  18.510  0.00  0.00    +0.000 C 
ATOM      7  C   UNL     1       2.720   2.024  19.632  0.00  0.00    +0.000 C 
ATOM      8  C   UNL     1       2.930   2.832  20.924  0.00  0.00    +0.000 C 
ATOM      9  C   UNL     1       2.544   4.302  20.692  0.00  0.00    +0.000 C 
ATOM     10  C   UNL     1       1.061   4.370  20.294  0.00  0.00    +0.000 C 
ATOM     11  C   UNL     1       0.831   3.574  19.002  0.00  0.00    +0.000 C 
ATOM     12  C   UNL     1       1.242   2.107  19.216  0.00  0.00    +0.000 C 
ATOM     13  C   UNL     1       1.694   4.173  17.883  0.00  0.00    +0.000 C 
ATOM     14  C   UNL     1       3.411   4.883  19.558  0.00  0.00    +0.000 C 
ENDBRANCH   2   5
BRANCH   1  16
ATOM     15  C   UNL     1       6.700   4.702  15.267  0.00  0.00    +0.000 A 
ATOM     16  C   UNL     1       5.495   4.009  15.244  0.00  0.00    +0.000 A 
ATOM     17  C   UNL     1       5.245   3.731  13.888  0.00  0.00    +0.000 A 
ATOM     18  N   UNL     1       6.169   4.263  13.084  0.00  0.00    +0.000 NA
ATOM     19  N   UNL     1       7.044   4.828  13.945  0.00  0.00    +0.000 N 
ATOM     20  C   UNL     1       8.236   5.455  13.402  0.00  0.00    +0.000 C 
BRANCH  15  21
ATOM     21  C   UNL     1       7.540   5.137  16.353  0.00  0.00    +0.000 C 
ATOM     22  O   UNL     1       8.121   4.401  17.138  0.00  0.00    +0.000 OA
BRANCH  21  24
ATOM     23  C   UNL     1       7.479   7.006  17.768  0.00  0.00    +0.000 C 
ATOM     24  O   UNL     1       7.566   6.504  16.431  0.00  0.00    +0.000 OA
ENDBRANCH  21  24
ENDBRANCH  15  21
ENDBRANCH   1  16
TORSDOF 4
ENDMDL
MODEL 2
REMARK VINA RESULT:      -7.8      0.056      1.571
REMARK  Name = 
REMARK  6 active torsions:
REMARK  status: ('A' for Active; 'I' for Inactive)
REMARK    1  A    between atoms: C_1  and  O_2
REMARK    2  A    between atoms: O_2  and  C_3
REMARK    3  A    between atoms: C_3  and  C_5
REMARK    4  A    between atoms: C_6  and  N_7
REMARK    5  A    between atoms: C_8  and  C_10
REMARK    6  A    between atoms: N_22  and  C_23
REMARK                            x       y       z     vdW  Elec       q    Type
REMARK                         _______ _______ _______ _____ _____    ______ ____
ROOT
ATOM      1  N   UNL     1       4.729   3.679  16.408  0.00  0.00    +0.000 N 
ATOM      2  C   UNL     1       4.069   4.649  17.149  0.00  0.00    +0.000 C 
ATOM      3  O   UNL     1       4.147   5.854  16.924  0.00  0.00    +0.000 OA
ATOM      4  H   UNL     1       4.332   2.749  16.396  0.00  0.00    +0.000 HD
ENDROOT
BRANCH   2   5
ATOM      5  C   UNL     1       3.201   4.085  18.296  0.00  0.00    +0.000 C 
ATOM      6  C   UNL     1       1.709   4.146  17.890  0.00  0.00    +0.000 C 
ATOM      7  C   UNL     1       0.819   3.596  19.017  0.00  0.00    +0.000 C 
ATOM      8  C   UNL     1       1.191   2.131  19.296  0.00  0.00    +0.000 C 
ATOM      9  C   UNL     1       2.668   2.034  19.711  0.00  0.00    +0.000 C 
ATOM     10  C   UNL     1       2.879   2.857  20.992  0.00  0.00    +0.000 C 
ATOM     11  C   UNL     1       2.519   4.327  20.733  0.00  0.00    +0.000 C 
ATOM     12  C   UNL     1       1.050   4.430  20.289  0.00  0.00    +0.000 C 
ATOM     13  C   UNL     1       3.415   4.874  19.614  0.00  0.00    +0.000 C 
ATOM     14  C   UNL     1       3.552   2.598  18.582  0.00  0.00    +0.000 C 
ENDBRANCH   2   5
BRANCH   1  16
ATOM     15  C   UNL     1       6.684   4.697  15.298  0.00  0.00    +0.000 A 
ATOM     16  C   UNL     1       5.479   4.004  15.289  0.00  0.00    +0.000 A 
ATOM     17  C   UNL     1       5.216   3.723  13.936  0.00  0.00    +0.000 A 
ATOM     18  N   UNL     1       6.132   4.253  13.121  0.00  0.00    +0.000 NA
ATOM     19  N   UNL     1       7.015   4.820  13.972  0.00  0.00    +0.000 N 
ATOM     20  C   UNL     1       8.201   5.446  13.416  0.00  0.00    +0.000 C 
BRANCH  15  21
ATOM     21  C   UNL     1       7.534   5.135  16.374  0.00  0.00    +0.000 C 
ATOM     22  O   UNL     1       8.132   4.401  17.149  0.00  0.00    +0.000 OA
BRANCH  21  24
ATOM     23  C   UNL     1       7.506   6.998  17.799  0.00  0.00    +0.000 C 
ATOM     24  O   UNL     1       7.551   6.501  16.457  0.00  0.00    +0.000 OA
ENDBRANCH  21  24
ENDBRANCH  15  21
ENDBRANCH   1  16
TORSDOF 4
ENDMDL
MODEL 3
REMARK VINA RESULT:      -7.8      0.084      1.556
REMARK  Name = 
REMARK  6 active torsions:
REMARK  status: ('A' for Active; 'I' for Inactive)
REMARK    1  A    between atoms: C_1  and  O_2
REMARK    2  A    between atoms: O_2  and  C_3
REMARK    3  A    between atoms: C_3  and  C_5
REMARK    4  A    between atoms: C_6  and  N_7
REMARK    5  A    between atoms: C_8  and  C_10
REMARK    6  A    between atoms: N_22  and  C_23
REMARK                            x       y       z     vdW  Elec       q    Type
REMARK                         _______ _______ _______ _____ _____    ______ ____
ROOT
ATOM      1  N   UNL     1       4.732   3.654  16.368  0.00  0.00    +0.000 N 
ATOM      2  C   UNL     1       4.074   4.617  17.121  0.00  0.00    +0.000 C 
ATOM      3  O   UNL     1       4.166   5.825  16.919  0.00  0.00    +0.000 OA
ATOM      4  H   UNL     1       4.326   2.729  16.334  0.00  0.00    +0.000 HD
ENDROOT
BRANCH   2   5
ATOM      5  C   UNL     1       3.188   4.040  18.247  0.00  0.00    +0.000 C 
ATOM      6  C   UNL     1       3.435   4.831  19.553  0.00  0.00    +0.000 C 
ATOM      7  C   UNL     1       2.570   4.273  20.696  0.00  0.00    +0.000 C 
ATOM      8  C   UNL     1       1.084   4.397  20.322  0.00  0.00    +0.000 C 
ATOM      9  C   UNL     1       0.800   3.614  19.030  0.00  0.00    +0.000 C 
ATOM     10  C   UNL     1       1.136   2.132  19.263  0.00  0.00    +0.000 C 
ATOM     11  C   UNL     1       2.619   1.985  19.632  0.00  0.00    +0.000 C 
ATOM     12  C   UNL     1       2.918   2.790  20.909  0.00  0.00    +0.000 C 
ATOM     13  C   UNL     1       3.479   2.535  18.486  0.00  0.00    +0.000 C 
ATOM     14  C   UNL     1       1.680   4.171  17.893  0.00  0.00    +0.000 C 
ENDBRANCH   2   5
BRANCH   1  16
ATOM     15  C   UNL     1       6.714   4.663  15.299  0.00  0.00    +0.000 A 
ATOM     16  C   UNL     1       5.497   3.993  15.263  0.00  0.00    +0.000 A 
ATOM     17  C   UNL     1       5.239   3.750  13.901  0.00  0.00    +0.000 A 
ATOM     18  N   UNL     1       6.171   4.283  13.107  0.00  0.00    +0.000 NA
ATOM     19  N   UNL     1       7.058   4.813  13.979  0.00  0.00    +0.000 N 
ATOM     20  C   UNL     1       8.260   5.431  13.448  0.00  0.00    +0.000 C 
BRANCH  15  21
ATOM     21  C   UNL     1       7.563   5.059  16.392  0.00  0.00    +0.000 C 
ATOM     22  O   UNL     1       8.172   4.296  17.129  0.00  0.00    +0.000 OA
BRANCH  21  24
ATOM     23  C   UNL     1       7.544   6.851  17.905  0.00  0.00    +0.000 C 
ATOM     24  O   UNL     1       7.565   6.420  16.540  0.00  0.00    +0.000 OA
ENDBRANCH  21  24
ENDBRANCH  15  21
ENDBRANCH   1  16
TORSDOF 4
ENDMDL
MODEL 4
REMARK VINA RESULT:      -7.5      0.702      1.358
REMARK  Name = 
REMARK  6 active torsions:
REMARK  status: ('A' for Active; 'I' for Inactive)
REMARK    1  A    between atoms: C_1  and  O_2
REMARK    2  A    between atoms: O_2  and  C_3
REMARK    3  A    between atoms: C_3  and  C_5
REMARK    4  A    between atoms: C_6  and  N_7
REMARK    5  A    between atoms: C_8  and  C_10
REMARK    6  A    between atoms: N_22  and  C_23
REMARK                            x       y       z     vdW  Elec       q    Type
REMARK                         _______ _______ _______ _____ _____    ______ ____
ROOT
ATOM      1  N   UNL     1       4.845   3.705  16.416  0.00  0.00    +0.000 N 
ATOM      2  C   UNL     1       4.135   4.679  17.105  0.00  0.00    +0.000 C 
ATOM      3  O   UNL     1       4.166   5.875  16.826  0.00  0.00    +0.000 OA
ATOM      4  H   UNL     1       4.487   2.761  16.440  0.00  0.00    +0.000 HD
ENDROOT
BRANCH   2   5
ATOM      5  C   UNL     1       3.274   4.130  18.264  0.00  0.00    +0.000 C 
ATOM      6  C   UNL     1       2.222   3.144  17.702  0.00  0.00    +0.000 C 
ATOM      7  C   UNL     1       1.344   2.585  18.835  0.00  0.00    +0.000 C 
ATOM      8  C   UNL     1       2.228   1.837  19.847  0.00  0.00    +0.000 C 
ATOM      9  C   UNL     1       3.281   2.791  20.432  0.00  0.00    +0.000 C 
ATOM     10  C   UNL     1       2.562   3.944  21.151  0.00  0.00    +0.000 C 
ATOM     11  C   UNL     1       1.678   4.710  20.156  0.00  0.00    +0.000 C 
ATOM     12  C   UNL     1       0.639   3.754  19.544  0.00  0.00    +0.000 C 
ATOM     13  C   UNL     1       2.559   5.272  19.032  0.00  0.00    +0.000 C 
ATOM     14  C   UNL     1       4.148   3.356  19.289  0.00  0.00    +0.000 C 
ENDBRANCH   2   5
BRANCH   1  16
ATOM     15  C   UNL     1       6.692   4.867  15.264  0.00  0.00    +0.000 A 
ATOM     16  C   UNL     1       5.597   4.012  15.293  0.00  0.00    +0.000 A 
ATOM     17  C   UNL     1       5.443   3.551  13.972  0.00  0.00    +0.000 A 
ATOM     18  N   UNL     1       6.315   4.116  13.134  0.00  0.00    +0.000 NA
ATOM     19  N   UNL     1       7.068   4.893  13.945  0.00  0.00    +0.000 N 
ATOM     20  C   UNL     1       8.182   5.619  13.361  0.00  0.00    +0.000 C 
BRANCH  15  21
ATOM     21  C   UNL     1       7.419   5.536  16.312  0.00  0.00    +0.000 C 
ATOM     22  O   UNL     1       7.677   6.731  16.344  0.00  0.00    +0.000 OA
BRANCH  21  24
ATOM     23  C   UNL     1       7.615   5.084  18.604  0.00  0.00    +0.000 C 
ATOM     24  O   UNL     1       7.838   4.643  17.261  0.00  0.00    +0.000 OA
ENDBRANCH  21  24
ENDBRANCH  15  21
ENDBRANCH   1  16
TORSDOF 4
ENDMDL
MODEL 5
REMARK VINA RESULT:      -7.5      0.706      1.975
REMARK  Name = 
REMARK  6 active torsions:
REMARK  status: ('A' for Active; 'I' for Inactive)
REMARK    1  A    between atoms: C_1  and  O_2
REMARK    2  A    between atoms: O_2  and  C_3
REMARK    3  A    between atoms: C_3  and  C_5
REMARK    4  A    between atoms: C_6  and  N_7
REMARK    5  A    between atoms: C_8  and  C_10
REMARK    6  A    between atoms: N_22  and  C_23
REMARK                            x       y       z     vdW  Elec       q    Type
REMARK                         _______ _______ _______ _____ _____    ______ ____
ROOT
ATOM      1  N   UNL     1       4.893   3.692  16.529  0.00  0.00    +0.000 N 
ATOM      2  C   UNL     1       4.144   4.658  17.186  0.00  0.00    +0.000 C 
ATOM      3  O   UNL     1       4.137   5.847  16.876  0.00  0.00    +0.000 OA
ATOM      4  H   UNL     1       4.567   2.737  16.576  0.00  0.00    +0.000 HD
ENDROOT
BRANCH   2   5
ATOM      5  C   UNL     1       3.293   4.111  18.353  0.00  0.00    +0.000 C 
ATOM      6  C   UNL     1       2.649   5.291  19.119  0.00  0.00    +0.000 C 
ATOM      7  C   UNL     1       1.800   4.776  20.293  0.00  0.00    +0.000 C 
ATOM      8  C   UNL     1       0.679   3.870  19.756  0.00  0.00    +0.000 C 
ATOM      9  C   UNL     1       1.285   2.680  18.996  0.00  0.00    +0.000 C 
ATOM     10  C   UNL     1       2.166   1.870  19.961  0.00  0.00    +0.000 C 
ATOM     11  C   UNL     1       3.296   2.755  20.503  0.00  0.00    +0.000 C 
ATOM     12  C   UNL     1       2.698   3.965  21.242  0.00  0.00    +0.000 C 
ATOM     13  C   UNL     1       4.146   3.260  19.330  0.00  0.00    +0.000 C 
ATOM     14  C   UNL     1       2.145   3.205  17.829  0.00  0.00    +0.000 C 
ENDBRANCH   2   5
BRANCH   1  16
ATOM     15  C   UNL     1       6.713   4.881  15.361  0.00  0.00    +0.000 A 
ATOM     16  C   UNL     1       5.643   3.994  15.403  0.00  0.00    +0.000 A 
ATOM     17  C   UNL     1       5.512   3.498  14.094  0.00  0.00    +0.000 A 
ATOM     18  N   UNL     1       6.373   4.069  13.247  0.00  0.00    +0.000 NA
ATOM     19  N   UNL     1       7.097   4.887  14.044  0.00  0.00    +0.000 N 
ATOM     20  C   UNL     1       8.193   5.632  13.450  0.00  0.00    +0.000 C 
BRANCH  15  21
ATOM     21  C   UNL     1       7.412   5.596  16.397  0.00  0.00    +0.000 C 
ATOM     22  O   UNL     1       7.651   6.796  16.393  0.00  0.00    +0.000 OA
BRANCH  21  24
ATOM     23  C   UNL     1       7.667   5.267  18.705  0.00  0.00    +0.000 C 
ATOM     24  O   UNL     1       7.828   4.742  17.383  0.00  0.00    +0.000 OA
ENDBRANCH  21  24
ENDBRANCH  15  21
ENDBRANCH   1  16
TORSDOF 4
ENDMDL
MODEL 6
REMARK VINA RESULT:      -7.3      4.796      6.911
REMARK  Name = 
REMARK  6 active torsions:
REMARK  status: ('A' for Active; 'I' for Inactive)
REMARK    1  A    between atoms: C_1  and  O_2
REMARK    2  A    between atoms: O_2  and  C_3
REMARK    3  A    between atoms: C_3  and  C_5
REMARK    4  A    between atoms: C_6  and  N_7
REMARK    5  A    between atoms: C_8  and  C_10
REMARK    6  A    between atoms: N_22  and  C_23
REMARK                            x       y       z     vdW  Elec       q    Type
REMARK                         _______ _______ _______ _____ _____    ______ ____
ROOT
ATOM      1  N   UNL     1       1.430   7.505  19.503  0.00  0.00    +0.000 N 
ATOM      2  C   UNL     1       2.447   6.769  18.911  0.00  0.00    +0.000 C 
ATOM      3  O   UNL     1       3.341   7.262  18.227  0.00  0.00    +0.000 OA
ATOM      4  H   UNL     1       0.988   7.116  20.325  0.00  0.00    +0.000 HD
ENDROOT
BRANCH   2   5
ATOM      5  C   UNL     1       2.375   5.252  19.195  0.00  0.00    +0.000 C 
ATOM      6  C   UNL     1       1.425   4.996  20.389  0.00  0.00    +0.000 C 
ATOM      7  C   UNL     1       1.339   3.492  20.700  0.00  0.00    +0.000 C 
ATOM      8  C   UNL     1       0.794   2.745  19.471  0.00  0.00    +0.000 C 
ATOM      9  C   UNL     1       1.720   2.971  18.265  0.00  0.00    +0.000 C 
ATOM     10  C   UNL     1       3.118   2.428  18.603  0.00  0.00    +0.000 C 
ATOM     11  C   UNL     1       3.684   3.165  19.825  0.00  0.00    +0.000 C 
ATOM     12  C   UNL     1       2.747   2.968  21.029  0.00  0.00    +0.000 C 
ATOM     13  C   UNL     1       3.776   4.664  19.508  0.00  0.00    +0.000 C 
ATOM     14  C   UNL     1       1.811   4.482  17.969  0.00  0.00    +0.000 C 
ENDBRANCH   2   5
BRANCH   1  16
ATOM     15  C   UNL     1       1.113   9.748  20.481  0.00  0.00    +0.000 A 
ATOM     16  C   UNL     1       1.393   8.888  19.425  0.00  0.00    +0.000 A 
ATOM     17  C   UNL     1       1.621   9.718  18.312  0.00  0.00    +0.000 A 
ATOM     18  N   UNL     1       1.431  11.009  18.596  0.00  0.00    +0.000 NA
ATOM     19  N   UNL     1       1.143  10.999  19.916  0.00  0.00    +0.000 N 
ATOM     20  C   UNL     1       0.939  12.271  20.586  0.00  0.00    +0.000 C 
BRANCH  15  21
ATOM     21  C   UNL     1       0.930   9.515  21.890  0.00  0.00    +0.000 C 
ATOM     22  O   UNL     1       1.827   9.443  22.719  0.00  0.00    +0.000 OA
BRANCH  21  24
ATOM     23  C   UNL     1      -0.903  10.258  23.150  0.00  0.00    +0.000 C 
ATOM     24  O   UNL     1      -0.394   9.331  22.185  0.00  0.00    +0.000 OA
ENDBRANCH  21  24
ENDBRANCH  15  21
ENDBRANCH   1  16
TORSDOF 4
ENDMDL
MODEL 7
REMARK VINA RESULT:      -7.3      4.766      6.700
REMARK  Name = 
REMARK  6 active torsions:
REMARK  status: ('A' for Active; 'I' for Inactive)
REMARK    1  A    between atoms: C_1  and  O_2
REMARK    2  A    between atoms: O_2  and  C_3
REMARK    3  A    between atoms: C_3  and  C_5
REMARK    4  A    between atoms: C_6  and  N_7
REMARK    5  A    between atoms: C_8  and  C_10
REMARK    6  A    between atoms: N_22  and  C_23
REMARK                            x       y       z     vdW  Elec       q    Type
REMARK                         _______ _______ _______ _____ _____    ______ ____
ROOT
ATOM      1  N   UNL     1       1.444   7.507  19.390  0.00  0.00    +0.000 N 
ATOM      2  C   UNL     1       2.496   6.751  18.892  0.00  0.00    +0.000 C 
ATOM      3  O   UNL     1       3.452   7.226  18.282  0.00  0.00    +0.000 OA
ATOM      4  H   UNL     1       0.929   7.131  20.174  0.00  0.00    +0.000 HD
ENDROOT
BRANCH   2   5
ATOM      5  C   UNL     1       2.377   5.238  19.179  0.00  0.00    +0.000 C 
ATOM      6  C   UNL     1       3.774   4.667  19.519  0.00  0.00    +0.000 C 
ATOM      7  C   UNL     1       3.688   3.158  19.803  0.00  0.00    +0.000 C 
ATOM      8  C   UNL     1       2.753   2.914  21.000  0.00  0.00    +0.000 C 
ATOM      9  C   UNL     1       1.351   3.463  20.692  0.00  0.00    +0.000 C 
ATOM     10  C   UNL     1       0.790   2.732  19.462  0.00  0.00    +0.000 C 
ATOM     11  C   UNL     1       1.706   2.968  18.252  0.00  0.00    +0.000 C 
ATOM     12  C   UNL     1       3.120   2.447  18.563  0.00  0.00    +0.000 C 
ATOM     13  C   UNL     1       1.783   4.474  17.967  0.00  0.00    +0.000 C 
ATOM     14  C   UNL     1       1.448   4.973  20.396  0.00  0.00    +0.000 C 
ENDBRANCH   2   5
BRANCH   1  16
ATOM     15  C   UNL     1       1.129   9.764  20.336  0.00  0.00    +0.000 A 
ATOM     16  C   UNL     1       1.435   8.890  19.299  0.00  0.00    +0.000 A 
ATOM     17  C   UNL     1       1.721   9.706  18.189  0.00  0.00    +0.000 A 
ATOM     18  N   UNL     1       1.544  11.002  18.455  0.00  0.00    +0.000 NA
ATOM     19  N   UNL     1       1.203  11.009  19.763  0.00  0.00    +0.000 N 
ATOM     20  C   UNL     1       0.996  12.291  20.414  0.00  0.00    +0.000 C 
BRANCH  15  21
ATOM     21  C   UNL     1       0.887   9.547  21.738  0.00  0.00    +0.000 C 
ATOM     22  O   UNL     1       1.750   9.392  22.591  0.00  0.00    +0.000 OA
BRANCH  21  24
ATOM     23  C   UNL     1      -0.854  10.215  23.161  0.00  0.00    +0.000 C 
ATOM     24  O   UNL     1      -0.456   9.483  21.997  0.00  0.00    +0.000 OA
ENDBRANCH  21  24
ENDBRANCH  15  21
ENDBRANCH   1  16
TORSDOF 4
ENDMDL
MODEL 8
REMARK VINA RESULT:      -7.3      4.749      6.698
REMARK  Name = 
REMARK  6 active torsions:
REMARK  status: ('A' for Active; 'I' for Inactive)
REMARK    1  A    between atoms: C_1  and  O_2
REMARK    2  A    between atoms: O_2  and  C_3
REMARK    3  A    between atoms: C_3  and  C_5
REMARK    4  A    between atoms: C_6  and  N_7
REMARK    5  A    between atoms: C_8  and  C_10
REMARK    6  A    between atoms: N_22  and  C_23
REMARK                            x       y       z     vdW  Elec       q    Type
REMARK                         _______ _______ _______ _____ _____    ______ ____
ROOT
ATOM      1  N   UNL     1       1.504   7.514  19.375  0.00  0.00    +0.000 N 
ATOM      2  C   UNL     1       2.527   6.727  18.866  0.00  0.00    +0.000 C 
ATOM      3  O   UNL     1       3.467   7.166  18.208  0.00  0.00    +0.000 OA
ATOM      4  H   UNL     1       1.011   7.173  20.188  0.00  0.00    +0.000 HD
ENDROOT
BRANCH   2   5
ATOM      5  C   UNL     1       2.396   5.226  19.207  0.00  0.00    +0.000 C 
ATOM      6  C   UNL     1       1.806   4.471  17.992  0.00  0.00    +0.000 C 
ATOM      7  C   UNL     1       1.658   2.973  18.306  0.00  0.00    +0.000 C 
ATOM      8  C   UNL     1       3.038   2.378  18.630  0.00  0.00    +0.000 C 
ATOM      9  C   UNL     1       3.651   3.100  19.840  0.00  0.00    +0.000 C 
ATOM     10  C   UNL     1       2.726   2.910  21.053  0.00  0.00    +0.000 C 
ATOM     11  C   UNL     1       1.343   3.504  20.753  0.00  0.00    +0.000 C 
ATOM     12  C   UNL     1       0.734   2.806  19.525  0.00  0.00    +0.000 C 
ATOM     13  C   UNL     1       1.494   5.001  20.449  0.00  0.00    +0.000 C 
ATOM     14  C   UNL     1       3.784   4.603  19.522  0.00  0.00    +0.000 C 
ENDBRANCH   2   5
BRANCH   1  16
ATOM     15  C   UNL     1       1.171   9.805  20.233  0.00  0.00    +0.000 A 
ATOM     16  C   UNL     1       1.512   8.894  19.239  0.00  0.00    +0.000 A 
ATOM     17  C   UNL     1       1.851   9.670  18.116  0.00  0.00    +0.000 A 
ATOM     18  N   UNL     1       1.675  10.977  18.331  0.00  0.00    +0.000 NA
ATOM     19  N   UNL     1       1.280  11.029  19.623  0.00  0.00    +0.000 N 
ATOM     20  C   UNL     1       1.058  12.333  20.222  0.00  0.00    +0.000 C 
BRANCH  15  21
ATOM     21  C   UNL     1       0.868   9.636  21.630  0.00  0.00    +0.000 C 
ATOM     22  O   UNL     1       1.687   9.419  22.512  0.00  0.00    +0.000 OA
BRANCH  21  24
ATOM     23  C   UNL     1      -0.836  10.217  23.133  0.00  0.00    +0.000 C 
ATOM     24  O   UNL     1      -0.483   9.698  21.847  0.00  0.00    +0.000 OA
ENDBRANCH  21  24
ENDBRANCH  15  21
ENDBRANCH   1  16
TORSDOF 4
ENDMDL
MODEL 9
REMARK VINA RESULT:      -7.2      4.743      7.117
REMARK  Name = 
REMARK  6 active torsions:
REMARK  status: ('A' for Active; 'I' for Inactive)
REMARK    1  A    between atoms: C_1  and  O_2
REMARK    2  A    between atoms: O_2  and  C_3
REMARK    3  A    between atoms: C_3  and  C_5
REMARK    4  A    between atoms: C_6  and  N_7
REMARK    5  A    between atoms: C_8  and  C_10
REMARK    6  A    between atoms: N_22  and  C_23
REMARK                            x       y       z     vdW  Elec       q    Type
REMARK                         _______ _______ _______ _____ _____    ______ ____
ROOT
ATOM      1  N   UNL     1       1.200   7.205  20.553  0.00  0.00    +0.000 N 
ATOM      2  C   UNL     1       2.218   6.745  19.731  0.00  0.00    +0.000 C 
ATOM      3  O   UNL     1       3.058   7.474  19.207  0.00  0.00    +0.000 OA
ATOM      4  H   UNL     1       0.814   6.557  21.226  0.00  0.00    +0.000 HD
ENDROOT
BRANCH   2   5
ATOM      5  C   UNL     1       2.224   5.213  19.530  0.00  0.00    +0.000 C 
ATOM      6  C   UNL     1       1.188   4.566  20.479  0.00  0.00    +0.000 C 
ATOM      7  C   UNL     1       1.176   3.038  20.306  0.00  0.00    +0.000 C 
ATOM      8  C   UNL     1       0.799   2.688  18.857  0.00  0.00    +0.000 C 
ATOM      9  C   UNL     1       1.815   3.310  17.885  0.00  0.00    +0.000 C 
ATOM     10  C   UNL     1       3.209   2.740  18.192  0.00  0.00    +0.000 C 
ATOM     11  C   UNL     1       3.608   3.083  19.634  0.00  0.00    +0.000 C 
ATOM     12  C   UNL     1       2.580   2.489  20.612  0.00  0.00    +0.000 C 
ATOM     13  C   UNL     1       3.627   4.609  19.800  0.00  0.00    +0.000 C 
ATOM     14  C   UNL     1       1.830   4.840  18.074  0.00  0.00    +0.000 C 
ENDBRANCH   2   5
BRANCH   1  16
ATOM     15  C   UNL     1       0.742   9.579  20.060  0.00  0.00    +0.000 A 
ATOM     16  C   UNL     1       1.101   8.540  20.911  0.00  0.00    +0.000 A 
ATOM     17  C   UNL     1       1.327   9.139  22.164  0.00  0.00    +0.000 A 
ATOM     18  N   UNL     1       1.202  10.468  22.119  0.00  0.00    +0.000 NA
ATOM     19  N   UNL     1       0.832  10.704  20.841  0.00  0.00    +0.000 N 
ATOM     20  C   UNL     1       0.539  12.072  20.451  0.00  0.00    +0.000 C 
BRANCH  15  21
ATOM     21  C   UNL     1       0.265   9.590  18.702  0.00  0.00    +0.000 C 
ATOM     22  O   UNL     1       0.955   9.416  17.707  0.00  0.00    +0.000 OA
BRANCH  21  24
ATOM     23  C   UNL     1      -1.595   9.982  17.329  0.00  0.00    +0.000 C 
ATOM     24  O   UNL     1      -1.073   9.875  18.657  0.00  0.00    +0.000 OA
ENDBRANCH  21  24
ENDBRANCH  15  21
ENDBRANCH   1  16
TORSDOF 4
ENDMDL
