MODEL 1
REMARK VINA RESULT:      -7.8      0.000      0.000
REMARK  Name = 
REMARK  6 active torsions:
REMARK  status: ('A' for Active; 'I' for Inactive)
REMARK    1  A    between atoms: C_1  and  C_2
REMARK    2  A    between atoms: C_7  and  C_8
REMARK    3  A    between atoms: C_8  and  O_9
REMARK    4  A    between atoms: O_9  and  C_10
REMARK    5  A    between atoms: C_13  and  C_15
REMARK    6  A    between atoms: C_15  and  N_16
REMARK                            x       y       z     vdW  Elec       q    Type
REMARK                         _______ _______ _______ _____ _____    ______ ____
ROOT
ATOM      1  C   UNL     1       7.960   7.771  17.442  0.00  0.00    +0.000 C 
ATOM      2  C   UNL     1       7.958   6.814  18.653  0.00  0.00    +0.000 C 
ATOM      3  N   UNL     1       6.644   6.393  18.204  0.00  0.00    +0.000 N 
ATOM      4  C   UNL     1       6.012   5.198  18.359  0.00  0.00    +0.000 C 
ATOM      5  O   UNL     1       6.517   4.288  19.023  0.00  0.00    +0.000 OA
ATOM      6  C   UNL     1       6.425   7.564  17.383  0.00  0.00    +0.000 C 
ENDROOT
BRANCH   1   7
ATOM      7  O   UNL     1       8.399   9.132  17.660  0.00  0.00    +0.000 OA
BRANCH   7   8
ATOM      8  C   UNL     1       8.671   9.505  19.009  0.00  0.00    +0.000 C 
BRANCH   8  15
ATOM      9  C   UNL     1       9.155  11.241  21.458  0.00  0.00    +0.000 C 
ATOM     10  C   UNL     1       9.810  11.520  20.133  0.00  0.00    +0.000 A 
ATOM     11  C   UNL     1      10.670  12.628  20.027  0.00  0.00    +0.000 A 
ATOM     12  C   UNL     1      11.302  12.934  18.821  0.00  0.00    +0.000 A 
ATOM     13  C   UNL     1      11.085  12.138  17.705  0.00  0.00    +0.000 A 
ATOM     14  C   UNL     1      10.235  11.035  17.793  0.00  0.00    +0.000 A 
ATOM     15  C   UNL     1       9.585  10.710  19.000  0.00  0.00    +0.000 A 
ENDBRANCH   8  15
ENDBRANCH   7   8
ENDBRANCH   1   7
BRANCH   4  16
ATOM     16  C   UNL     1       4.609   5.055  17.755  0.00  0.00    +0.000 C 
BRANCH  16  17
ATOM     17  N   UNL     1       3.685   4.302  18.616  0.00  0.00    +0.000 N 
ATOM     18  C   UNL     1       3.606   2.854  18.427  0.00  0.00    +0.000 C 
ATOM     19  C   UNL     1       2.248   2.387  17.914  0.00  0.00    +0.000 C 
ATOM     20  C   UNL     1       1.187   2.284  19.003  0.00  0.00    +0.000 C 
ATOM     21  C   UNL     1       0.864   3.611  19.682  0.00  0.00    +0.000 C 
ATOM     22  C   UNL     1       2.036   4.185  20.468  0.00  0.00    +0.000 C 
ATOM     23  C   UNL     1       2.996   4.983  19.605  0.00  0.00    +0.000 C 
ATOM     24  O   UNL     1       3.137   6.193  19.795  0.00  0.00    +0.000 OA
ENDBRANCH  16  17
ENDBRANCH   4  16
TORSDOF 5
ENDMDL
MODEL 2
REMARK VINA RESULT:      -7.7      1.393      1.646
REMARK  Name = 
REMARK  6 active torsions:
REMARK  status: ('A' for Active; 'I' for Inactive)
REMARK    1  A    between atoms: C_1  and  C_2
REMARK    2  A    between atoms: C_7  and  C_8
REMARK    3  A    between atoms: C_8  and  O_9
REMARK    4  A    between atoms: O_9  and  C_10
REMARK    5  A    between atoms: C_13  and  C_15
REMARK    6  A    between atoms: C_15  and  N_16
REMARK                            x       y       z     vdW  Elec       q    Type
REMARK                         _______ _______ _______ _____ _____    ______ ____
ROOT
ATOM      1  C   UNL     1       8.079   8.244  17.603  0.00  0.00    +0.000 C 
ATOM      2  C   UNL     1       8.185   7.133  18.669  0.00  0.00    +0.000 C 
ATOM      3  N   UNL     1       7.143   6.447  17.928  0.00  0.00    +0.000 N 
ATOM      4  C   UNL     1       6.889   5.114  17.815  0.00  0.00    +0.000 C 
ATOM      5  O   UNL     1       7.540   4.282  18.452  0.00  0.00    +0.000 OA
ATOM      6  C   UNL     1       6.706   7.632  17.223  0.00  0.00    +0.000 C 
ENDROOT
BRANCH   1   7
ATOM      7  O   UNL     1       8.045   9.616  18.061  0.00  0.00    +0.000 OA
BRANCH   7   8
ATOM      8  C   UNL     1       9.163  10.059  18.827  0.00  0.00    +0.000 C 
BRANCH   8  15
ATOM      9  C   UNL     1      11.780  11.466  19.476  0.00  0.00    +0.000 C 
ATOM     10  C   UNL     1      10.632  12.172  18.808  0.00  0.00    +0.000 A 
ATOM     11  C   UNL     1      10.777  13.532  18.479  0.00  0.00    +0.000 A 
ATOM     12  C   UNL     1       9.744  14.236  17.861  0.00  0.00    +0.000 A 
ATOM     13  C   UNL     1       8.551  13.592  17.559  0.00  0.00    +0.000 A 
ATOM     14  C   UNL     1       8.391  12.243  17.877  0.00  0.00    +0.000 A 
ATOM     15  C   UNL     1       9.421  11.514  18.505  0.00  0.00    +0.000 A 
ENDBRANCH   8  15
ENDBRANCH   7   8
ENDBRANCH   1   7
BRANCH   4  16
ATOM     16  C   UNL     1       5.703   4.692  16.938  0.00  0.00    +0.000 C 
BRANCH  16  17
ATOM     17  N   UNL     1       4.479   4.433  17.710  0.00  0.00    +0.000 N 
ATOM     18  C   UNL     1       4.359   3.138  18.381  0.00  0.00    +0.000 C 
ATOM     19  C   UNL     1       3.237   2.271  17.819  0.00  0.00    +0.000 C 
ATOM     20  C   UNL     1       1.855   2.649  18.340  0.00  0.00    +0.000 C 
ATOM     21  C   UNL     1       1.419   4.063  17.973  0.00  0.00    +0.000 C 
ATOM     22  C   UNL     1       2.279   5.144  18.613  0.00  0.00    +0.000 C 
ATOM     23  C   UNL     1       3.541   5.444  17.826  0.00  0.00    +0.000 C 
ATOM     24  O   UNL     1       3.700   6.554  17.314  0.00  0.00    +0.000 OA
ENDBRANCH  16  17
ENDBRANCH   4  16
TORSDOF 5
ENDMDL
MODEL 3
REMARK VINA RESULT:      -7.6      5.075      6.940
REMARK  Name = 
REMARK  6 active torsions:
REMARK  status: ('A' for Active; 'I' for Inactive)
REMARK    1  A    between atoms: C_1  and  C_2
REMARK    2  A    between atoms: C_7  and  C_8
REMARK    3  A    between atoms: C_8  and  O_9
REMARK    4  A    between atoms: O_9  and  C_10
REMARK    5  A    between atoms: C_13  and  C_15
REMARK    6  A    between atoms: C_15  and  N_16
REMARK                            x       y       z     vdW  Elec       q    Type
REMARK                         _______ _______ _______ _____ _____    ______ ____
ROOT
ATOM      1  C   UNL     1       2.210   7.408  18.879  0.00  0.00    +0.000 C 
ATOM      2  C   UNL     1       3.248   7.797  17.806  0.00  0.00    +0.000 C 
ATOM      3  N   UNL     1       3.844   6.495  18.039  0.00  0.00    +0.000 N 
ATOM      4  C   UNL     1       4.553   5.698  17.193  0.00  0.00    +0.000 C 
ATOM      5  O   UNL     1       4.847   6.073  16.055  0.00  0.00    +0.000 OA
ATOM      6  C   UNL     1       3.207   6.307  19.324  0.00  0.00    +0.000 C 
ENDROOT
BRANCH   1   7
ATOM      7  O   UNL     1       1.879   8.394  19.885  0.00  0.00    +0.000 OA
BRANCH   7   8
ATOM      8  C   UNL     1       0.920   9.383  19.516  0.00  0.00    +0.000 C 
BRANCH   8  15
ATOM      9  C   UNL     1      -0.784  11.900  19.600  0.00  0.00    +0.000 C 
ATOM     10  C   UNL     1      -0.567  11.035  20.811  0.00  0.00    +0.000 A 
ATOM     11  C   UNL     1      -1.172  11.412  22.025  0.00  0.00    +0.000 A 
ATOM     12  C   UNL     1      -1.002  10.648  23.179  0.00  0.00    +0.000 A 
ATOM     13  C   UNL     1      -0.229   9.495  23.140  0.00  0.00    +0.000 A 
ATOM     14  C   UNL     1       0.377   9.107  21.944  0.00  0.00    +0.000 A 
ATOM     15  C   UNL     1       0.221   9.866  20.767  0.00  0.00    +0.000 A 
ENDBRANCH   8  15
ENDBRANCH   7   8
ENDBRANCH   1   7
BRANCH   4  16
ATOM     16  C   UNL     1       5.051   4.353  17.739  0.00  0.00    +0.000 C 
BRANCH  16  17
ATOM     17  N   UNL     1       3.959   3.426  18.071  0.00  0.00    +0.000 N 
ATOM     18  C   UNL     1       2.846   3.320  17.128  0.00  0.00    +0.000 C 
ATOM     19  C   UNL     1       1.525   3.825  17.697  0.00  0.00    +0.000 C 
ATOM     20  C   UNL     1       0.827   2.819  18.605  0.00  0.00    +0.000 C 
ATOM     21  C   UNL     1       1.624   2.452  19.852  0.00  0.00    +0.000 C 
ATOM     22  C   UNL     1       2.922   1.717  19.542  0.00  0.00    +0.000 C 
ATOM     23  C   UNL     1       4.070   2.652  19.213  0.00  0.00    +0.000 C 
ATOM     24  O   UNL     1       5.055   2.705  19.954  0.00  0.00    +0.000 OA
ENDBRANCH  16  17
ENDBRANCH   4  16
TORSDOF 5
ENDMDL
MODEL 4
REMARK VINA RESULT:      -7.6      1.477      2.231
REMARK  Name = 
REMARK  6 active torsions:
REMARK  status: ('A' for Active; 'I' for Inactive)
REMARK    1  A    between atoms: C_1  and  C_2
REMARK    2  A    between atoms: C_7  and  C_8
REMARK    3  A    between atoms: C_8  and  O_9
REMARK    4  A    between atoms: O_9  and  C_10
REMARK    5  A    between atoms: C_13  and  C_15
REMARK    6  A    between atoms: C_15  and  N_16
REMARK                            x       y       z     vdW  Elec       q    Type
REMARK                         _______ _______ _______ _____ _____    ______ ____
ROOT
ATOM      1  C   UNL     1       7.664   7.097  17.312  0.00  0.00    +0.000 C 
ATOM      2  C   UNL     1       7.401   6.197  18.537  0.00  0.00    +0.000 C 
ATOM      3  N   UNL     1       6.037   6.092  18.056  0.00  0.00    +0.000 N 
ATOM      4  C   UNL     1       5.134   5.086  18.212  0.00  0.00    +0.000 C 
ATOM      5  O   UNL     1       5.389   4.098  18.906  0.00  0.00    +0.000 OA
ATOM      6  C   UNL     1       6.125   7.261  17.209  0.00  0.00    +0.000 C 
ENDROOT
BRANCH   1   7
ATOM      7  O   UNL     1       8.409   8.319  17.520  0.00  0.00    +0.000 OA
BRANCH   7   8
ATOM      8  C   UNL     1       7.652   9.476  17.869  0.00  0.00    +0.000 C 
BRANCH   8  15
ATOM      9  C   UNL     1       7.690  12.387  16.992  0.00  0.00    +0.000 C 
ATOM     10  C   UNL     1       8.613  11.855  18.053  0.00  0.00    +0.000 A 
ATOM     11  C   UNL     1       9.529  12.739  18.653  0.00  0.00    +0.000 A 
ATOM     12  C   UNL     1      10.410  12.299  19.640  0.00  0.00    +0.000 A 
ATOM     13  C   UNL     1      10.389  10.971  20.046  0.00  0.00    +0.000 A 
ATOM     14  C   UNL     1       9.487  10.081  19.461  0.00  0.00    +0.000 A 
ATOM     15  C   UNL     1       8.590  10.504  18.460  0.00  0.00    +0.000 A 
ENDBRANCH   8  15
ENDBRANCH   7   8
ENDBRANCH   1   7
BRANCH   4  16
ATOM     16  C   UNL     1       3.753   5.268  17.568  0.00  0.00    +0.000 C 
BRANCH  16  17
ATOM     17  N   UNL     1       2.663   4.696  18.372  0.00  0.00    +0.000 N 
ATOM     18  C   UNL     1       2.237   5.431  19.563  0.00  0.00    +0.000 C 
ATOM     19  C   UNL     1       2.519   4.687  20.863  0.00  0.00    +0.000 C 
ATOM     20  C   UNL     1       1.490   3.609  21.184  0.00  0.00    +0.000 C 
ATOM     21  C   UNL     1       1.422   2.490  20.151  0.00  0.00    +0.000 C 
ATOM     22  C   UNL     1       0.938   2.960  18.785  0.00  0.00    +0.000 C 
ATOM     23  C   UNL     1       2.048   3.538  17.928  0.00  0.00    +0.000 C 
ATOM     24  O   UNL     1       2.374   2.977  16.880  0.00  0.00    +0.000 OA
ENDBRANCH  16  17
ENDBRANCH   4  16
TORSDOF 5
ENDMDL
MODEL 5
REMARK VINA RESULT:      -7.6      1.570      2.092
REMARK  Name = 
REMARK  6 active torsions:
REMARK  status: ('A' for Active; 'I' for Inactive)
REMARK    1  A    between atoms: C_1  and  C_2
REMARK    2  A    between atoms: C_7  and  C_8
REMARK    3  A    between atoms: C_8  and  O_9
REMARK    4  A    between atoms: O_9  and  C_10
REMARK    5  A    between atoms: C_13  and  C_15
REMARK    6  A    between atoms: C_15  and  N_16
REMARK                            x       y       z     vdW  Elec       q    Type
REMARK                         _______ _______ _______ _____ _____    ______ ____
ROOT
ATOM      1  C   UNL     1       7.401   7.261  17.335  0.00  0.00    +0.000 C 
ATOM      2  C   UNL     1       7.154   6.502  18.655  0.00  0.00    +0.000 C 
ATOM      3  N   UNL     1       6.075   5.825  17.961  0.00  0.00    +0.000 N 
ATOM      4  C   UNL     1       5.556   4.583  18.160  0.00  0.00    +0.000 C 
ATOM      5  O   UNL     1       5.944   3.868  19.088  0.00  0.00    +0.000 OA
ATOM      6  C   UNL     1       5.977   6.816  16.911  0.00  0.00    +0.000 C 
ENDROOT
BRANCH   1   7
ATOM      7  O   UNL     1       7.612   8.690  17.408  0.00  0.00    +0.000 OA
BRANCH   7   8
ATOM      8  C   UNL     1       8.626   9.139  18.305  0.00  0.00    +0.000 C 
BRANCH   8  15
ATOM      9  C   UNL     1      10.189  10.802  20.314  0.00  0.00    +0.000 C 
ATOM     10  C   UNL     1       9.373  11.426  19.216  0.00  0.00    +0.000 A 
ATOM     11  C   UNL     1       9.330  12.829  19.124  0.00  0.00    +0.000 A 
ATOM     12  C   UNL     1       8.586  13.461  18.127  0.00  0.00    +0.000 A 
ATOM     13  C   UNL     1       7.877  12.702  17.206  0.00  0.00    +0.000 A 
ATOM     14  C   UNL     1       7.910  11.309  17.283  0.00  0.00    +0.000 A 
ATOM     15  C   UNL     1       8.652  10.651  18.283  0.00  0.00    +0.000 A 
ENDBRANCH   8  15
ENDBRANCH   7   8
ENDBRANCH   1   7
BRANCH   4  16
ATOM     16  C   UNL     1       4.407   4.141  17.244  0.00  0.00    +0.000 C 
BRANCH  16  17
ATOM     17  N   UNL     1       3.142   3.937  17.965  0.00  0.00    +0.000 N 
ATOM     18  C   UNL     1       2.353   5.121  18.302  0.00  0.00    +0.000 C 
ATOM     19  C   UNL     1       2.248   5.368  19.803  0.00  0.00    +0.000 C 
ATOM     20  C   UNL     1       1.204   4.498  20.493  0.00  0.00    +0.000 C 
ATOM     21  C   UNL     1       1.487   3.002  20.405  0.00  0.00    +0.000 C 
ATOM     22  C   UNL     1       1.427   2.460  18.983  0.00  0.00    +0.000 C 
ATOM     23  C   UNL     1       2.727   2.642  18.223  0.00  0.00    +0.000 C 
ATOM     24  O   UNL     1       3.373   1.657  17.861  0.00  0.00    +0.000 OA
ENDBRANCH  16  17
ENDBRANCH   4  16
TORSDOF 5
ENDMDL
MODEL 6
REMARK VINA RESULT:      -7.4      4.342      7.659
REMARK  Name = 
REMARK  6 active torsions:
REMARK  status: ('A' for Active; 'I' for Inactive)
REMARK    1  A    between atoms: C_1  and  C_2
REMARK    2  A    between atoms: C_7  and  C_8
REMARK    3  A    between atoms: C_8  and  O_9
REMARK    4  A    between atoms: O_9  and  C_10
REMARK    5  A    between atoms: C_13  and  C_15
REMARK    6  A    between atoms: C_15  and  N_16
REMARK                            x       y       z     vdW  Elec       q    Type
REMARK                         _______ _______ _______ _____ _____    ______ ____
ROOT
ATOM      1  C   UNL     1       1.965   6.197  20.548  0.00  0.00    +0.000 C 
ATOM      2  C   UNL     1       1.387   4.770  20.439  0.00  0.00    +0.000 C 
ATOM      3  N   UNL     1       2.117   4.667  19.190  0.00  0.00    +0.000 N 
ATOM      4  C   UNL     1       2.634   3.570  18.572  0.00  0.00    +0.000 C 
ATOM      5  O   UNL     1       2.454   2.436  19.024  0.00  0.00    +0.000 OA
ATOM      6  C   UNL     1       2.276   6.096  19.033  0.00  0.00    +0.000 C 
ENDROOT
BRANCH   1   7
ATOM      7  O   UNL     1       1.064   7.262  20.931  0.00  0.00    +0.000 OA
BRANCH   7   8
ATOM      8  C   UNL     1       1.653   8.402  21.552  0.00  0.00    +0.000 C 
BRANCH   8  15
ATOM      9  C   UNL     1       0.882  10.334  19.334  0.00  0.00    +0.000 C 
ATOM     10  C   UNL     1       0.231  10.365  20.690  0.00  0.00    +0.000 A 
ATOM     11  C   UNL     1      -0.765  11.328  20.936  0.00  0.00    +0.000 A 
ATOM     12  C   UNL     1      -1.400  11.403  22.176  0.00  0.00    +0.000 A 
ATOM     13  C   UNL     1      -1.052  10.517  23.187  0.00  0.00    +0.000 A 
ATOM     14  C   UNL     1      -0.067   9.556  22.959  0.00  0.00    +0.000 A 
ATOM     15  C   UNL     1       0.589   9.465  21.715  0.00  0.00    +0.000 A 
ENDBRANCH   8  15
ENDBRANCH   7   8
ENDBRANCH   1   7
BRANCH   4  16
ATOM     16  C   UNL     1       3.371   3.787  17.244  0.00  0.00    +0.000 C 
BRANCH  16  17
ATOM     17  N   UNL     1       4.807   4.052  17.419  0.00  0.00    +0.000 N 
ATOM     18  C   UNL     1       5.351   3.987  18.775  0.00  0.00    +0.000 C 
ATOM     19  C   UNL     1       5.851   5.332  19.289  0.00  0.00    +0.000 C 
ATOM     20  C   UNL     1       7.235   5.707  18.772  0.00  0.00    +0.000 C 
ATOM     21  C   UNL     1       7.310   5.864  17.257  0.00  0.00    +0.000 C 
ATOM     22  C   UNL     1       7.057   4.564  16.504  0.00  0.00    +0.000 C 
ATOM     23  C   UNL     1       5.582   4.276  16.294  0.00  0.00    +0.000 C 
ATOM     24  O   UNL     1       5.115   4.251  15.154  0.00  0.00    +0.000 OA
ENDBRANCH  16  17
ENDBRANCH   4  16
TORSDOF 5
ENDMDL
MODEL 7
REMARK VINA RESULT:      -7.4      4.097      6.163
REMARK  Name = 
REMARK  6 active torsions:
REMARK  status: ('A' for Active; 'I' for Inactive)
REMARK    1  A    between atoms: C_1  and  C_2
REMARK    2  A    between atoms: C_7  and  C_8
REMARK    3  A    between atoms: C_8  and  O_9
REMARK    4  A    between atoms: O_9  and  C_10
REMARK    5  A    between atoms: C_13  and  C_15
REMARK    6  A    between atoms: C_15  and  N_16
REMARK                            x       y       z     vdW  Elec       q    Type
REMARK                         _______ _______ _______ _____ _____    ______ ____
ROOT
ATOM      1  C   UNL     1       6.431   6.806  16.863  0.00  0.00    +0.000 C 
ATOM      2  C   UNL     1       4.953   6.805  16.417  0.00  0.00    +0.000 C 
ATOM      3  N   UNL     1       4.649   6.278  17.734  0.00  0.00    +0.000 N 
ATOM      4  C   UNL     1       3.521   6.406  18.484  0.00  0.00    +0.000 C 
ATOM      5  O   UNL     1       2.521   6.980  18.043  0.00  0.00    +0.000 OA
ATOM      6  C   UNL     1       6.002   5.836  17.994  0.00  0.00    +0.000 C 
ENDROOT
BRANCH   1   7
ATOM      7  O   UNL     1       7.415   6.289  15.937  0.00  0.00    +0.000 OA
BRANCH   7   8
ATOM      8  C   UNL     1       7.470   4.871  15.792  0.00  0.00    +0.000 C 
BRANCH   8  15
ATOM      9  C   UNL     1       8.893   5.717  13.242  0.00  0.00    +0.000 C 
ATOM     10  C   UNL     1       7.629   4.903  13.225  0.00  0.00    +0.000 A 
ATOM     11  C   UNL     1       7.087   4.527  11.982  0.00  0.00    +0.000 A 
ATOM     12  C   UNL     1       5.915   3.774  11.907  0.00  0.00    +0.000 A 
ATOM     13  C   UNL     1       5.269   3.383  13.072  0.00  0.00    +0.000 A 
ATOM     14  C   UNL     1       5.793   3.746  14.313  0.00  0.00    +0.000 A 
ATOM     15  C   UNL     1       6.974   4.509  14.410  0.00  0.00    +0.000 A 
ENDBRANCH   8  15
ENDBRANCH   7   8
ENDBRANCH   1   7
BRANCH   4  16
ATOM     16  C   UNL     1       3.505   5.731  19.861  0.00  0.00    +0.000 C 
BRANCH  16  17
ATOM     17  N   UNL     1       2.907   4.388  19.837  0.00  0.00    +0.000 N 
ATOM     18  C   UNL     1       3.759   3.270  19.431  0.00  0.00    +0.000 C 
ATOM     19  C   UNL     1       3.320   2.623  18.122  0.00  0.00    +0.000 C 
ATOM     20  C   UNL     1       2.156   1.652  18.283  0.00  0.00    +0.000 C 
ATOM     21  C   UNL     1       0.875   2.300  18.798  0.00  0.00    +0.000 C 
ATOM     22  C   UNL     1       1.002   2.843  20.215  0.00  0.00    +0.000 C 
ATOM     23  C   UNL     1       1.600   4.236  20.266  0.00  0.00    +0.000 C 
ATOM     24  O   UNL     1       0.925   5.182  20.676  0.00  0.00    +0.000 OA
ENDBRANCH  16  17
ENDBRANCH   4  16
TORSDOF 5
ENDMDL
MODEL 8
REMARK VINA RESULT:      -7.4      3.870      7.532
REMARK  Name = 
REMARK  6 active torsions:
REMARK  status: ('A' for Active; 'I' for Inactive)
REMARK    1  A    between atoms: C_1  and  C_2
REMARK    2  A    between atoms: C_7  and  C_8
REMARK    3  A    between atoms: C_8  and  O_9
REMARK    4  A    between atoms: O_9  and  C_10
REMARK    5  A    between atoms: C_13  and  C_15
REMARK    6  A    between atoms: C_15  and  N_16
REMARK                            x       y       z     vdW  Elec       q    Type
REMARK                         _______ _______ _______ _____ _____    ______ ____
ROOT
ATOM      1  C   UNL     1       2.666   6.233  20.077  0.00  0.00    +0.000 C 
ATOM      2  C   UNL     1       2.385   4.722  19.937  0.00  0.00    +0.000 C 
ATOM      3  N   UNL     1       3.117   4.792  18.687  0.00  0.00    +0.000 N 
ATOM      4  C   UNL     1       3.842   3.833  18.048  0.00  0.00    +0.000 C 
ATOM      5  O   UNL     1       3.893   2.677  18.476  0.00  0.00    +0.000 OA
ATOM      6  C   UNL     1       2.988   6.227  18.560  0.00  0.00    +0.000 C 
ENDROOT
BRANCH   1   7
ATOM      7  O   UNL     1       1.571   7.088  20.480  0.00  0.00    +0.000 OA
BRANCH   7   8
ATOM      8  C   UNL     1       1.634   8.447  20.052  0.00  0.00    +0.000 C 
BRANCH   8  15
ATOM      9  C   UNL     1      -0.001  10.806  19.049  0.00  0.00    +0.000 C 
ATOM     10  C   UNL     1      -0.014  10.373  20.489  0.00  0.00    +0.000 A 
ATOM     11  C   UNL     1      -0.809  11.092  21.401  0.00  0.00    +0.000 A 
ATOM     12  C   UNL     1      -0.856  10.735  22.749  0.00  0.00    +0.000 A 
ATOM     13  C   UNL     1      -0.115   9.654  23.206  0.00  0.00    +0.000 A 
ATOM     14  C   UNL     1       0.678   8.930  22.315  0.00  0.00    +0.000 A 
ATOM     15  C   UNL     1       0.743   9.275  20.950  0.00  0.00    +0.000 A 
ENDBRANCH   8  15
ENDBRANCH   7   8
ENDBRANCH   1   7
BRANCH   4  16
ATOM     16  C   UNL     1       4.518   4.220  16.726  0.00  0.00    +0.000 C 
BRANCH  16  17
ATOM     17  N   UNL     1       5.778   4.953  16.917  0.00  0.00    +0.000 N 
ATOM     18  C   UNL     1       6.757   4.393  17.849  0.00  0.00    +0.000 C 
ATOM     19  C   UNL     1       6.987   5.266  19.078  0.00  0.00    +0.000 C 
ATOM     20  C   UNL     1       7.927   6.439  18.825  0.00  0.00    +0.000 C 
ATOM     21  C   UNL     1       7.415   7.430  17.786  0.00  0.00    +0.000 C 
ATOM     22  C   UNL     1       7.308   6.835  16.388  0.00  0.00    +0.000 C 
ATOM     23  C   UNL     1       6.007   6.088  16.159  0.00  0.00    +0.000 C 
ATOM     24  O   UNL     1       5.199   6.499  15.324  0.00  0.00    +0.000 OA
ENDBRANCH  16  17
ENDBRANCH   4  16
TORSDOF 5
ENDMDL
MODEL 9
REMARK VINA RESULT:      -7.4      1.439      2.269
REMARK  Name = 
REMARK  6 active torsions:
REMARK  status: ('A' for Active; 'I' for Inactive)
REMARK    1  A    between atoms: C_1  and  C_2
REMARK    2  A    between atoms: C_7  and  C_8
REMARK    3  A    between atoms: C_8  and  O_9
REMARK    4  A    between atoms: O_9  and  C_10
REMARK    5  A    between atoms: C_13  and  C_15
REMARK    6  A    between atoms: C_15  and  N_16
REMARK                            x       y       z     vdW  Elec       q    Type
REMARK                         _______ _______ _______ _____ _____    ______ ____
ROOT
ATOM      1  C   UNL     1       7.859   7.835  17.773  0.00  0.00    +0.000 C 
ATOM      2  C   UNL     1       7.786   6.592  18.685  0.00  0.00    +0.000 C 
ATOM      3  N   UNL     1       6.600   6.222  17.935  0.00  0.00    +0.000 N 
ATOM      4  C   UNL     1       6.082   4.990  17.677  0.00  0.00    +0.000 C 
ATOM      5  O   UNL     1       6.581   3.972  18.163  0.00  0.00    +0.000 OA
ATOM      6  C   UNL     1       6.378   7.552  17.412  0.00  0.00    +0.000 C 
ENDROOT
BRANCH   1   7
ATOM      7  O   UNL     1       8.117   9.114  18.397  0.00  0.00    +0.000 OA
BRANCH   7   8
ATOM      8  C   UNL     1       8.903  10.040  17.650  0.00  0.00    +0.000 C 
BRANCH   8  15
ATOM      9  C   UNL     1       7.967  12.905  17.251  0.00  0.00    +0.000 C 
ATOM     10  C   UNL     1       8.877  12.507  18.380  0.00  0.00    +0.000 A 
ATOM     11  C   UNL     1       9.312  13.500  19.276  0.00  0.00    +0.000 A 
ATOM     12  C   UNL     1      10.159  13.187  20.339  0.00  0.00    +0.000 A 
ATOM     13  C   UNL     1      10.582  11.877  20.525  0.00  0.00    +0.000 A 
ATOM     14  C   UNL     1      10.159  10.880  19.646  0.00  0.00    +0.000 A 
ATOM     15  C   UNL     1       9.306  11.176  18.564  0.00  0.00    +0.000 A 
ENDBRANCH   8  15
ENDBRANCH   7   8
ENDBRANCH   1   7
BRANCH   4  16
ATOM     16  C   UNL     1       4.802   4.923  16.835  0.00  0.00    +0.000 C 
BRANCH  16  17
ATOM     17  N   UNL     1       3.581   4.830  17.648  0.00  0.00    +0.000 N 
ATOM     18  C   UNL     1       2.946   6.079  18.069  0.00  0.00    +0.000 C 
ATOM     19  C   UNL     1       2.983   6.295  19.578  0.00  0.00    +0.000 C 
ATOM     20  C   UNL     1       1.909   5.518  20.331  0.00  0.00    +0.000 C 
ATOM     21  C   UNL     1       2.028   4.004  20.194  0.00  0.00    +0.000 C 
ATOM     22  C   UNL     1       1.804   3.509  18.770  0.00  0.00    +0.000 C 
ATOM     23  C   UNL     1       3.055   3.578  17.914  0.00  0.00    +0.000 C 
ATOM     24  O   UNL     1       3.566   2.542  17.485  0.00  0.00    +0.000 OA
ENDBRANCH  16  17
ENDBRANCH   4  16
TORSDOF 5
ENDMDL
