MODEL 1
REMARK VINA RESULT:      -7.4      0.000      0.000
REMARK  Name = 
REMARK  6 active torsions:
REMARK  status: ('A' for Active; 'I' for Inactive)
REMARK    1  A    between atoms: C_1  and  C_2
REMARK    2  A    between atoms: C_2  and  O_3
REMARK    3  A    between atoms: O_3  and  C_4
REMARK    4  A    between atoms: C_7  and  C_8
REMARK    5  A    between atoms: N_10  and  C_11
REMARK    6  A    between atoms: C_12  and  C_13
REMARK                            x       y       z     vdW  Elec       q    Type
REMARK                         _______ _______ _______ _____ _____    ______ ____
ROOT
ATOM      1  C   UNL     1       4.369   5.878  18.042  0.00  0.00    +0.000 C 
ATOM      2  O   UNL     1       5.087   6.058  19.024  0.00  0.00    +0.000 OA
ATOM      3  N   UNL     1       3.025   6.204  18.006  0.00  0.00    +0.000 N 
ATOM      4  H   UNL     1       2.433   5.566  17.477  0.00  0.00    +0.000 HD
ENDROOT
BRANCH   3   5
ATOM      5  C   UNL     1       2.364   6.835  19.051  0.00  0.00    +0.000 A 
ATOM      6  C   UNL     1       1.967   6.293  20.220  0.00  0.00    +0.000 A 
ATOM      7  C   UNL     1       2.314   4.891  20.662  0.00  0.00    +0.000 C 
ATOM      8  N   UNL     1       1.267   6.989  21.179  0.00  0.00    +0.000 NA
ATOM      9  C   UNL     1       0.965   8.225  20.952  0.00  0.00    +0.000 A 
ATOM     10  C   UNL     1       0.180   8.969  21.976  0.00  0.00    +0.000 A 
ATOM     11  C   UNL     1      -0.140  10.254  21.773  0.00  0.00    +0.000 A 
ATOM     12  C   UNL     1       0.266  10.920  20.562  0.00  0.00    +0.000 A 
ATOM     13 CL   UNL     1      -0.172  12.568  20.339  0.00  0.00    +0.000 Cl
ATOM     14  C   UNL     1       0.974  10.256  19.638  0.00  0.00    +0.000 A 
ATOM     15  N   UNL     1       1.334   8.922  19.812  0.00  0.00    +0.000 N 
ATOM     16  C   UNL     1       2.098   8.291  18.846  0.00  0.00    +0.000 A 
ATOM     17  O   UNL     1       2.563   8.839  17.840  0.00  0.00    +0.000 OA
ENDBRANCH   3   5
BRANCH   1  21
ATOM     18  C   UNL     1       5.955   4.117  14.452  0.00  0.00    +0.000 A 
ATOM     19  C   UNL     1       5.753   5.491  14.558  0.00  0.00    +0.000 A 
ATOM     20  C   UNL     1       5.263   6.043  15.740  0.00  0.00    +0.000 A 
ATOM     21  C   UNL     1       4.950   5.223  16.834  0.00  0.00    +0.000 A 
ATOM     22  C   UNL     1       5.128   3.838  16.717  0.00  0.00    +0.000 A 
ATOM     23  C   UNL     1       5.628   3.288  15.526  0.00  0.00    +0.000 A 
BRANCH  18  24
ATOM     24  O   UNL     1       6.443   3.702  13.247  0.00  0.00    +0.000 OA
BRANCH  24  26
ATOM     25  C   UNL     1       5.866   2.100  11.592  0.00  0.00    +0.000 C 
ATOM     26  C   UNL     1       5.479   3.421  12.234  0.00  0.00    +0.000 C 
ENDBRANCH  24  26
ENDBRANCH  18  24
ENDBRANCH   1  21
TORSDOF 4
ENDMDL
MODEL 2
REMARK VINA RESULT:      -7.3      0.415      1.046
REMARK  Name = 
REMARK  6 active torsions:
REMARK  status: ('A' for Active; 'I' for Inactive)
REMARK    1  A    between atoms: C_1  and  C_2
REMARK    2  A    between atoms: C_2  and  O_3
REMARK    3  A    between atoms: O_3  and  C_4
REMARK    4  A    between atoms: C_7  and  C_8
REMARK    5  A    between atoms: N_10  and  C_11
REMARK    6  A    between atoms: C_12  and  C_13
REMARK                            x       y       z     vdW  Elec       q    Type
REMARK                         _______ _______ _______ _____ _____    ______ ____
ROOT
ATOM      1  C   UNL     1       4.355   6.051  17.821  0.00  0.00    +0.000 C 
ATOM      2  O   UNL     1       5.124   6.320  18.742  0.00  0.00    +0.000 OA
ATOM      3  N   UNL     1       2.994   6.295  17.863  0.00  0.00    +0.000 N 
ATOM      4  H   UNL     1       2.409   5.599  17.405  0.00  0.00    +0.000 HD
ENDROOT
BRANCH   3   5
ATOM      5  C   UNL     1       2.366   6.936  18.921  0.00  0.00    +0.000 A 
ATOM      6  C   UNL     1       2.043   6.417  20.124  0.00  0.00    +0.000 A 
ATOM      7  C   UNL     1       2.454   5.040  20.587  0.00  0.00    +0.000 C 
ATOM      8  N   UNL     1       1.369   7.120  21.097  0.00  0.00    +0.000 NA
ATOM      9  C   UNL     1       1.019   8.340  20.850  0.00  0.00    +0.000 A 
ATOM     10  C   UNL     1       0.263   9.090  21.891  0.00  0.00    +0.000 A 
ATOM     11  C   UNL     1      -0.106  10.359  21.669  0.00  0.00    +0.000 A 
ATOM     12  C   UNL     1       0.219  11.001  20.421  0.00  0.00    +0.000 A 
ATOM     13 CL   UNL     1      -0.279  12.628  20.174  0.00  0.00    +0.000 Cl
ATOM     14  C   UNL     1       0.901  10.331  19.482  0.00  0.00    +0.000 A 
ATOM     15  N   UNL     1       1.310   9.013  19.675  0.00  0.00    +0.000 N 
ATOM     16  C   UNL     1       2.045   8.378  18.690  0.00  0.00    +0.000 A 
ATOM     17  O   UNL     1       2.443   8.909  17.647  0.00  0.00    +0.000 OA
ENDBRANCH   3   5
BRANCH   1  21
ATOM     18  C   UNL     1       5.982   3.965  14.429  0.00  0.00    +0.000 A 
ATOM     19  C   UNL     1       5.527   3.278  15.553  0.00  0.00    +0.000 A 
ATOM     20  C   UNL     1       4.979   3.974  16.629  0.00  0.00    +0.000 A 
ATOM     21  C   UNL     1       4.894   5.373  16.606  0.00  0.00    +0.000 A 
ATOM     22  C   UNL     1       5.377   6.064  15.487  0.00  0.00    +0.000 A 
ATOM     23  C   UNL     1       5.923   5.359  14.402  0.00  0.00    +0.000 A 
BRANCH  18  24
ATOM     24  O   UNL     1       6.491   3.172  13.442  0.00  0.00    +0.000 OA
BRANCH  24  26
ATOM     25  C   UNL     1       4.803   3.197  11.773  0.00  0.00    +0.000 C 
ATOM     26  C   UNL     1       6.234   3.583  12.100  0.00  0.00    +0.000 C 
ENDBRANCH  24  26
ENDBRANCH  18  24
ENDBRANCH   1  21
TORSDOF 4
ENDMDL
MODEL 3
REMARK VINA RESULT:      -7.2      1.058      1.332
REMARK  Name = 
REMARK  6 active torsions:
REMARK  status: ('A' for Active; 'I' for Inactive)
REMARK    1  A    between atoms: C_1  and  C_2
REMARK    2  A    between atoms: C_2  and  O_3
REMARK    3  A    between atoms: O_3  and  C_4
REMARK    4  A    between atoms: C_7  and  C_8
REMARK    5  A    between atoms: N_10  and  C_11
REMARK    6  A    between atoms: C_12  and  C_13
REMARK                            x       y       z     vdW  Elec       q    Type
REMARK                         _______ _______ _______ _____ _____    ______ ____
ROOT
ATOM      1  C   UNL     1       5.024   5.910  17.071  0.00  0.00    +0.000 C 
ATOM      2  O   UNL     1       5.808   6.326  17.921  0.00  0.00    +0.000 OA
ATOM      3  N   UNL     1       3.649   5.915  17.228  0.00  0.00    +0.000 N 
ATOM      4  H   UNL     1       3.158   5.119  16.825  0.00  0.00    +0.000 HD
ENDROOT
BRANCH   3   5
ATOM      5  C   UNL     1       3.009   6.458  18.333  0.00  0.00    +0.000 A 
ATOM      6  C   UNL     1       2.779   5.866  19.523  0.00  0.00    +0.000 A 
ATOM      7  C   UNL     1       3.325   4.514  19.914  0.00  0.00    +0.000 C 
ATOM      8  N   UNL     1       2.085   6.470  20.548  0.00  0.00    +0.000 NA
ATOM      9  C   UNL     1       1.621   7.663  20.365  0.00  0.00    +0.000 A 
ATOM     10  C   UNL     1       0.844   8.303  21.461  0.00  0.00    +0.000 A 
ATOM     11  C   UNL     1       0.359   9.542  21.305  0.00  0.00    +0.000 A 
ATOM     12  C   UNL     1       0.579  10.258  20.075  0.00  0.00    +0.000 A 
ATOM     13 CL   UNL     1      -0.067  11.843  19.913  0.00  0.00    +0.000 Cl
ATOM     14  C   UNL     1       1.280   9.687  19.086  0.00  0.00    +0.000 A 
ATOM     15  N   UNL     1       1.808   8.404  19.209  0.00  0.00    +0.000 N 
ATOM     16  C   UNL     1       2.557   7.873  18.173  0.00  0.00    +0.000 A 
ATOM     17  O   UNL     1       2.867   8.477  17.140  0.00  0.00    +0.000 OA
ENDBRANCH   3   5
BRANCH   1  21
ATOM     18  C   UNL     1       6.486   4.040  13.483  0.00  0.00    +0.000 A 
ATOM     19  C   UNL     1       5.165   3.880  13.898  0.00  0.00    +0.000 A 
ATOM     20  C   UNL     1       4.707   4.518  15.049  0.00  0.00    +0.000 A 
ATOM     21  C   UNL     1       5.569   5.313  15.817  0.00  0.00    +0.000 A 
ATOM     22  C   UNL     1       6.905   5.450  15.414  0.00  0.00    +0.000 A 
ATOM     23  C   UNL     1       7.360   4.811  14.249  0.00  0.00    +0.000 A 
BRANCH  18  24
ATOM     24  O   UNL     1       6.811   3.370  12.340  0.00  0.00    +0.000 OA
BRANCH  24  26
ATOM     25  C   UNL     1       6.467   1.362  11.120  0.00  0.00    +0.000 C 
ATOM     26  C   UNL     1       5.788   2.556  11.767  0.00  0.00    +0.000 C 
ENDBRANCH  24  26
ENDBRANCH  18  24
ENDBRANCH   1  21
TORSDOF 4
ENDMDL
MODEL 4
REMARK VINA RESULT:      -7.0      3.148      5.225
REMARK  Name = 
REMARK  6 active torsions:
REMARK  status: ('A' for Active; 'I' for Inactive)
REMARK    1  A    between atoms: C_1  and  C_2
REMARK    2  A    between atoms: C_2  and  O_3
REMARK    3  A    between atoms: O_3  and  C_4
REMARK    4  A    between atoms: C_7  and  C_8
REMARK    5  A    between atoms: N_10  and  C_11
REMARK    6  A    between atoms: C_12  and  C_13
REMARK                            x       y       z     vdW  Elec       q    Type
REMARK                         _______ _______ _______ _____ _____    ______ ____
ROOT
ATOM      1  C   UNL     1       1.518   9.282  18.796  0.00  0.00    +0.000 C 
ATOM      2  O   UNL     1       1.839  10.283  18.160  0.00  0.00    +0.000 OA
ATOM      3  N   UNL     1       0.470   9.250  19.699  0.00  0.00    +0.000 N 
ATOM      4  H   UNL     1       0.617   8.669  20.522  0.00  0.00    +0.000 HD
ENDROOT
BRANCH   3   5
ATOM      5  C   UNL     1      -0.374  10.328  19.927  0.00  0.00    +0.000 A 
ATOM      6  C   UNL     1      -1.328  10.814  19.106  0.00  0.00    +0.000 A 
ATOM      7  C   UNL     1      -1.748  10.152  17.815  0.00  0.00    +0.000 C 
ATOM      8  N   UNL     1      -2.084  11.926  19.397  0.00  0.00    +0.000 NA
ATOM      9  C   UNL     1      -1.870  12.548  20.510  0.00  0.00    +0.000 A 
ATOM     10  C   UNL     1      -2.666  13.770  20.810  0.00  0.00    +0.000 A 
ATOM     11  C   UNL     1      -2.474  14.431  21.960  0.00  0.00    +0.000 A 
ATOM     12  C   UNL     1      -1.492  13.968  22.907  0.00  0.00    +0.000 A 
ATOM     13 CL   UNL     1      -1.272  14.849  24.367  0.00  0.00    +0.000 Cl
ATOM     14  C   UNL     1      -0.775  12.867  22.643  0.00  0.00    +0.000 A 
ATOM     15  N   UNL     1      -0.948  12.147  21.463  0.00  0.00    +0.000 N 
ATOM     16  C   UNL     1      -0.209  10.996  21.253  0.00  0.00    +0.000 A 
ATOM     17  O   UNL     1       0.569  10.493  22.072  0.00  0.00    +0.000 OA
ENDBRANCH   3   5
BRANCH   1  21
ATOM     18  C   UNL     1       3.868   5.688  18.530  0.00  0.00    +0.000 A 
ATOM     19  C   UNL     1       3.006   5.914  19.602  0.00  0.00    +0.000 A 
ATOM     20  C   UNL     1       2.234   7.073  19.653  0.00  0.00    +0.000 A 
ATOM     21  C   UNL     1       2.326   8.037  18.640  0.00  0.00    +0.000 A 
ATOM     22  C   UNL     1       3.214   7.822  17.576  0.00  0.00    +0.000 A 
ATOM     23  C   UNL     1       3.984   6.649  17.525  0.00  0.00    +0.000 A 
BRANCH  18  24
ATOM     24  O   UNL     1       4.563   4.516  18.593  0.00  0.00    +0.000 OA
BRANCH  24  26
ATOM     25  C   UNL     1       3.549   2.467  17.951  0.00  0.00    +0.000 C 
ATOM     26  C   UNL     1       3.863   3.388  19.117  0.00  0.00    +0.000 C 
ENDBRANCH  24  26
ENDBRANCH  18  24
ENDBRANCH   1  21
TORSDOF 4
ENDMDL
MODEL 5
REMARK VINA RESULT:      -6.9      3.118      5.209
REMARK  Name = 
REMARK  6 active torsions:
REMARK  status: ('A' for Active; 'I' for Inactive)
REMARK    1  A    between atoms: C_1  and  C_2
REMARK    2  A    between atoms: C_2  and  O_3
REMARK    3  A    between atoms: O_3  and  C_4
REMARK    4  A    between atoms: C_7  and  C_8
REMARK    5  A    between atoms: N_10  and  C_11
REMARK    6  A    between atoms: C_12  and  C_13
REMARK                            x       y       z     vdW  Elec       q    Type
REMARK                         _______ _______ _______ _____ _____    ______ ____
ROOT
ATOM      1  C   UNL     1       1.454   9.293  19.000  0.00  0.00    +0.000 C 
ATOM      2  O   UNL     1       1.802  10.265  18.333  0.00  0.00    +0.000 OA
ATOM      3  N   UNL     1       0.397   9.315  19.893  0.00  0.00    +0.000 N 
ATOM      4  H   UNL     1       0.524   8.759  20.737  0.00  0.00    +0.000 HD
ENDROOT
BRANCH   3   5
ATOM      5  C   UNL     1      -0.427  10.416  20.073  0.00  0.00    +0.000 A 
ATOM      6  C   UNL     1      -1.348  10.904  19.217  0.00  0.00    +0.000 A 
ATOM      7  C   UNL     1      -1.749  10.222  17.931  0.00  0.00    +0.000 C 
ATOM      8  N   UNL     1      -2.085  12.040  19.463  0.00  0.00    +0.000 NA
ATOM      9  C   UNL     1      -1.885  12.683  20.567  0.00  0.00    +0.000 A 
ATOM     10  C   UNL     1      -2.660  13.929  20.819  0.00  0.00    +0.000 A 
ATOM     11  C   UNL     1      -2.482  14.611  21.958  0.00  0.00    +0.000 A 
ATOM     12  C   UNL     1      -1.536  14.149  22.941  0.00  0.00    +0.000 A 
ATOM     13 CL   UNL     1      -1.333  15.058  24.385  0.00  0.00    +0.000 Cl
ATOM     14  C   UNL     1      -0.838  13.026  22.720  0.00  0.00    +0.000 A 
ATOM     15  N   UNL     1      -0.997  12.283  21.553  0.00  0.00    +0.000 N 
ATOM     16  C   UNL     1      -0.280  11.111  21.389  0.00  0.00    +0.000 A 
ATOM     17  O   UNL     1       0.464  10.610  22.239  0.00  0.00    +0.000 OA
ENDBRANCH   3   5
BRANCH   1  21
ATOM     18  C   UNL     1       3.690   5.650  18.514  0.00  0.00    +0.000 A 
ATOM     19  C   UNL     1       3.729   6.659  17.554  0.00  0.00    +0.000 A 
ATOM     20  C   UNL     1       3.017   7.842  17.745  0.00  0.00    +0.000 A 
ATOM     21  C   UNL     1       2.239   8.028  18.896  0.00  0.00    +0.000 A 
ATOM     22  C   UNL     1       2.179   7.001  19.848  0.00  0.00    +0.000 A 
ATOM     23  C   UNL     1       2.902   5.814  19.654  0.00  0.00    +0.000 A 
BRANCH  18  24
ATOM     24  O   UNL     1       4.432   4.546  18.213  0.00  0.00    +0.000 OA
BRANCH  24  26
ATOM     25  C   UNL     1       2.814   3.035  17.355  0.00  0.00    +0.000 C 
ATOM     26  C   UNL     1       3.821   3.281  18.464  0.00  0.00    +0.000 C 
ENDBRANCH  24  26
ENDBRANCH  18  24
ENDBRANCH   1  21
TORSDOF 4
ENDMDL
MODEL 6
REMARK VINA RESULT:      -6.8      2.685      4.780
REMARK  Name = 
REMARK  6 active torsions:
REMARK  status: ('A' for Active; 'I' for Inactive)
REMARK    1  A    between atoms: C_1  and  C_2
REMARK    2  A    between atoms: C_2  and  O_3
REMARK    3  A    between atoms: O_3  and  C_4
REMARK    4  A    between atoms: C_7  and  C_8
REMARK    5  A    between atoms: N_10  and  C_11
REMARK    6  A    between atoms: C_12  and  C_13
REMARK                            x       y       z     vdW  Elec       q    Type
REMARK                         _______ _______ _______ _____ _____    ______ ____
ROOT
ATOM      1  C   UNL     1       1.700   9.155  18.675  0.00  0.00    +0.000 C 
ATOM      2  O   UNL     1       1.958  10.124  17.965  0.00  0.00    +0.000 OA
ATOM      3  N   UNL     1       0.693   9.145  19.623  0.00  0.00    +0.000 N 
ATOM      4  H   UNL     1       0.894   8.622  20.473  0.00  0.00    +0.000 HD
ENDROOT
BRANCH   3   5
ATOM      5  C   UNL     1      -0.181  10.206  19.819  0.00  0.00    +0.000 A 
ATOM      6  C   UNL     1      -1.139  10.649  18.980  0.00  0.00    +0.000 A 
ATOM      7  C   UNL     1      -1.530   9.949  17.700  0.00  0.00    +0.000 C 
ATOM      8  N   UNL     1      -1.926  11.748  19.240  0.00  0.00    +0.000 NA
ATOM      9  C   UNL     1      -1.737  12.399  20.341  0.00  0.00    +0.000 A 
ATOM     10  C   UNL     1      -2.567  13.607  20.608  0.00  0.00    +0.000 A 
ATOM     11  C   UNL     1      -2.402  14.297  21.744  0.00  0.00    +0.000 A 
ATOM     12  C   UNL     1      -1.417  13.880  22.710  0.00  0.00    +0.000 A 
ATOM     13 CL   UNL     1      -1.233  14.797  24.151  0.00  0.00    +0.000 Cl
ATOM     14  C   UNL     1      -0.670  12.792  22.475  0.00  0.00    +0.000 A 
ATOM     15  N   UNL     1      -0.814  12.042  21.310  0.00  0.00    +0.000 N 
ATOM     16  C   UNL     1      -0.044  10.906  21.132  0.00  0.00    +0.000 A 
ATOM     17  O   UNL     1       0.739  10.441  21.969  0.00  0.00    +0.000 OA
ENDBRANCH   3   5
BRANCH   1  21
ATOM     18  C   UNL     1       4.131   5.642  18.161  0.00  0.00    +0.000 A 
ATOM     19  C   UNL     1       4.205   6.713  17.272  0.00  0.00    +0.000 A 
ATOM     20  C   UNL     1       3.428   7.852  17.474  0.00  0.00    +0.000 A 
ATOM     21  C   UNL     1       2.547   7.931  18.561  0.00  0.00    +0.000 A 
ATOM     22  C   UNL     1       2.452   6.842  19.439  0.00  0.00    +0.000 A 
ATOM     23  C   UNL     1       3.242   5.700  19.235  0.00  0.00    +0.000 A 
BRANCH  18  24
ATOM     24  O   UNL     1       4.944   4.590  17.857  0.00  0.00    +0.000 OA
BRANCH  24  26
ATOM     25  C   UNL     1       7.130   4.624  16.929  0.00  0.00    +0.000 C 
ATOM     26  C   UNL     1       5.644   4.664  16.616  0.00  0.00    +0.000 C 
ENDBRANCH  24  26
ENDBRANCH  18  24
ENDBRANCH   1  21
TORSDOF 4
ENDMDL
MODEL 7
REMARK VINA RESULT:      -6.8      3.668      6.403
REMARK  Name = 
REMARK  6 active torsions:
REMARK  status: ('A' for Active; 'I' for Inactive)
REMARK    1  A    between atoms: C_1  and  C_2
REMARK    2  A    between atoms: C_2  and  O_3
REMARK    3  A    between atoms: O_3  and  C_4
REMARK    4  A    between atoms: C_7  and  C_8
REMARK    5  A    between atoms: N_10  and  C_11
REMARK    6  A    between atoms: C_12  and  C_13
REMARK                            x       y       z     vdW  Elec       q    Type
REMARK                         _______ _______ _______ _____ _____    ______ ____
ROOT
ATOM      1  C   UNL     1       0.751  10.405  19.529  0.00  0.00    +0.000 C 
ATOM      2  O   UNL     1       1.230  11.451  19.095  0.00  0.00    +0.000 OA
ATOM      3  N   UNL     1      -0.376  10.353  20.330  0.00  0.00    +0.000 N 
ATOM      4  H   UNL     1      -0.368   9.636  21.053  0.00  0.00    +0.000 HD
ENDROOT
BRANCH   3   5
ATOM      5  C   UNL     1      -1.126  11.471  20.667  0.00  0.00    +0.000 A 
ATOM      6  C   UNL     1      -2.020  12.125  19.898  0.00  0.00    +0.000 A 
ATOM      7  C   UNL     1      -2.476  11.646  18.540  0.00  0.00    +0.000 C 
ATOM      8  N   UNL     1      -2.680  13.263  20.303  0.00  0.00    +0.000 NA
ATOM      9  C   UNL     1      -2.430  13.740  21.478  0.00  0.00    +0.000 A 
ATOM     10  C   UNL     1      -3.120  14.988  21.905  0.00  0.00    +0.000 A 
ATOM     11  C   UNL     1      -2.888  15.502  23.120  0.00  0.00    +0.000 A 
ATOM     12  C   UNL     1      -1.966  14.854  24.018  0.00  0.00    +0.000 A 
ATOM     13 CL   UNL     1      -1.693  15.550  25.566  0.00  0.00    +0.000 Cl
ATOM     14  C   UNL     1      -1.344  13.729  23.640  0.00  0.00    +0.000 A 
ATOM     15  N   UNL     1      -1.561  13.158  22.388  0.00  0.00    +0.000 N 
ATOM     16  C   UNL     1      -0.924  11.975  22.060  0.00  0.00    +0.000 A 
ATOM     17  O   UNL     1      -0.206  11.320  22.824  0.00  0.00    +0.000 OA
ENDBRANCH   3   5
BRANCH   1  21
ATOM     18  C   UNL     1       2.797   6.684  18.846  0.00  0.00    +0.000 A 
ATOM     19  C   UNL     1       2.176   6.957  20.063  0.00  0.00    +0.000 A 
ATOM     20  C   UNL     1       1.496   8.159  20.252  0.00  0.00    +0.000 A 
ATOM     21  C   UNL     1       1.441   9.117  19.230  0.00  0.00    +0.000 A 
ATOM     22  C   UNL     1       2.090   8.852  18.016  0.00  0.00    +0.000 A 
ATOM     23  C   UNL     1       2.768   7.637  17.828  0.00  0.00    +0.000 A 
BRANCH  18  24
ATOM     24  O   UNL     1       3.424   5.473  18.784  0.00  0.00    +0.000 OA
BRANCH  24  26
ATOM     25  C   UNL     1       1.751   4.092  17.818  0.00  0.00    +0.000 C 
ATOM     26  C   UNL     1       3.144   4.670  17.638  0.00  0.00    +0.000 C 
ENDBRANCH  24  26
ENDBRANCH  18  24
ENDBRANCH   1  21
TORSDOF 4
ENDMDL
MODEL 8
REMARK VINA RESULT:      -6.7      3.887      6.462
REMARK  Name = 
REMARK  6 active torsions:
REMARK  status: ('A' for Active; 'I' for Inactive)
REMARK    1  A    between atoms: C_1  and  C_2
REMARK    2  A    between atoms: C_2  and  O_3
REMARK    3  A    between atoms: O_3  and  C_4
REMARK    4  A    between atoms: C_7  and  C_8
REMARK    5  A    between atoms: N_10  and  C_11
REMARK    6  A    between atoms: C_12  and  C_13
REMARK                            x       y       z     vdW  Elec       q    Type
REMARK                         _______ _______ _______ _____ _____    ______ ____
ROOT
ATOM      1  C   UNL     1       0.744  10.485  19.766  0.00  0.00    +0.000 C 
ATOM      2  O   UNL     1       1.288  11.549  19.476  0.00  0.00    +0.000 OA
ATOM      3  N   UNL     1      -0.467  10.399  20.430  0.00  0.00    +0.000 N 
ATOM      4  H   UNL     1      -0.553   9.627  21.088  0.00  0.00    +0.000 HD
ENDROOT
BRANCH   3   5
ATOM      5  C   UNL     1      -1.230  11.507  20.773  0.00  0.00    +0.000 A 
ATOM      6  C   UNL     1      -2.113  12.169  19.998  0.00  0.00    +0.000 A 
ATOM      7  C   UNL     1      -2.541  11.711  18.624  0.00  0.00    +0.000 C 
ATOM      8  N   UNL     1      -2.788  13.296  20.411  0.00  0.00    +0.000 NA
ATOM      9  C   UNL     1      -2.563  13.753  21.599  0.00  0.00    +0.000 A 
ATOM     10  C   UNL     1      -3.269  14.990  22.034  0.00  0.00    +0.000 A 
ATOM     11  C   UNL     1      -3.063  15.483  23.262  0.00  0.00    +0.000 A 
ATOM     12  C   UNL     1      -2.154  14.826  24.166  0.00  0.00    +0.000 A 
ATOM     13 CL   UNL     1      -1.915  15.496  25.731  0.00  0.00    +0.000 Cl
ATOM     14  C   UNL     1      -1.519  13.711  23.780  0.00  0.00    +0.000 A 
ATOM     15  N   UNL     1      -1.708  13.160  22.514  0.00  0.00    +0.000 N 
ATOM     16  C   UNL     1      -1.057  11.987  22.177  0.00  0.00    +0.000 A 
ATOM     17  O   UNL     1      -0.350  11.323  22.943  0.00  0.00    +0.000 OA
ENDBRANCH   3   5
BRANCH   1  21
ATOM     18  C   UNL     1       2.687   6.812  18.656  0.00  0.00    +0.000 A 
ATOM     19  C   UNL     1       2.549   7.862  17.750  0.00  0.00    +0.000 A 
ATOM     20  C   UNL     1       1.939   9.053  18.141  0.00  0.00    +0.000 A 
ATOM     21  C   UNL     1       1.441   9.207  19.441  0.00  0.00    +0.000 A 
ATOM     22  C   UNL     1       1.556   8.139  20.343  0.00  0.00    +0.000 A 
ATOM     23  C   UNL     1       2.176   6.944  19.947  0.00  0.00    +0.000 A 
BRANCH  18  24
ATOM     24  O   UNL     1       3.305   5.703  18.155  0.00  0.00    +0.000 OA
BRANCH  24  26
ATOM     25  C   UNL     1       1.724   3.996  17.680  0.00  0.00    +0.000 C 
ATOM     26  C   UNL     1       2.827   4.442  18.623  0.00  0.00    +0.000 C 
ENDBRANCH  24  26
ENDBRANCH  18  24
ENDBRANCH   1  21
TORSDOF 4
ENDMDL
MODEL 9
REMARK VINA RESULT:      -6.7      3.270      5.334
REMARK  Name = 
REMARK  6 active torsions:
REMARK  status: ('A' for Active; 'I' for Inactive)
REMARK    1  A    between atoms: C_1  and  C_2
REMARK    2  A    between atoms: C_2  and  O_3
REMARK    3  A    between atoms: O_3  and  C_4
REMARK    4  A    between atoms: C_7  and  C_8
REMARK    5  A    between atoms: N_10  and  C_11
REMARK    6  A    between atoms: C_12  and  C_13
REMARK                            x       y       z     vdW  Elec       q    Type
REMARK                         _______ _______ _______ _____ _____    ______ ____
ROOT
ATOM      1  C   UNL     1       1.178   8.703  19.538  0.00  0.00    +0.000 C 
ATOM      2  O   UNL     1       0.772   8.510  20.683  0.00  0.00    +0.000 OA
ATOM      3  N   UNL     1       0.680   9.688  18.705  0.00  0.00    +0.000 N 
ATOM      4  H   UNL     1       0.625   9.443  17.718  0.00  0.00    +0.000 HD
ENDROOT
BRANCH   3   5
ATOM      5  C   UNL     1      -0.279  10.610  19.101  0.00  0.00    +0.000 A 
ATOM      6  C   UNL     1      -0.146  11.599  20.008  0.00  0.00    +0.000 A 
ATOM      7  C   UNL     1       1.163  11.971  20.664  0.00  0.00    +0.000 C 
ATOM      8  N   UNL     1      -1.175  12.435  20.375  0.00  0.00    +0.000 NA
ATOM      9  C   UNL     1      -2.336  12.265  19.832  0.00  0.00    +0.000 A 
ATOM     10  C   UNL     1      -3.458  13.149  20.253  0.00  0.00    +0.000 A 
ATOM     11  C   UNL     1      -4.671  13.003  19.701  0.00  0.00    +0.000 A 
ATOM     12  C   UNL     1      -4.897  11.988  18.705  0.00  0.00    +0.000 A 
ATOM     13 CL   UNL     1      -6.470  11.831  18.028  0.00  0.00    +0.000 Cl
ATOM     14  C   UNL     1      -3.890  11.191  18.321  0.00  0.00    +0.000 A 
ATOM     15  N   UNL     1      -2.613  11.313  18.864  0.00  0.00    +0.000 N 
ATOM     16  C   UNL     1      -1.598  10.492  18.407  0.00  0.00    +0.000 A 
ATOM     17  O   UNL     1      -1.706   9.676  17.484  0.00  0.00    +0.000 OA
ENDBRANCH   3   5
BRANCH   1  21
ATOM     18  C   UNL     1       4.246   6.048  18.109  0.00  0.00    +0.000 A 
ATOM     19  C   UNL     1       3.516   5.760  19.260  0.00  0.00    +0.000 A 
ATOM     20  C   UNL     1       2.509   6.622  19.690  0.00  0.00    +0.000 A 
ATOM     21  C   UNL     1       2.226   7.798  18.982  0.00  0.00    +0.000 A 
ATOM     22  C   UNL     1       2.979   8.100  17.839  0.00  0.00    +0.000 A 
ATOM     23  C   UNL     1       3.989   7.226  17.407  0.00  0.00    +0.000 A 
BRANCH  18  24
ATOM     24  O   UNL     1       5.199   5.125  17.790  0.00  0.00    +0.000 OA
BRANCH  24  26
ATOM     25  C   UNL     1       7.508   4.643  17.514  0.00  0.00    +0.000 C 
ATOM     26  C   UNL     1       6.470   5.281  18.420  0.00  0.00    +0.000 C 
ENDBRANCH  24  26
ENDBRANCH  18  24
ENDBRANCH   1  21
TORSDOF 4
ENDMDL
