MODEL 1
REMARK VINA RESULT:      -8.7      0.000      0.000
REMARK  Name = 
REMARK  7 active torsions:
REMARK  status: ('A' for Active; 'I' for Inactive)
REMARK    1  A    between atoms: C_2  and  C_3
REMARK    2  A    between atoms: N_5  and  C_6
REMARK    3  A    between atoms: N_14  and  C_15
REMARK    4  A    between atoms: C_18  and  C_19
REMARK    5  A    between atoms: C_19  and  C_20
REMARK    6  A    between atoms: C_19  and  C_21
REMARK    7  A    between atoms: C_19  and  C_22
REMARK                            x       y       z     vdW  Elec       q    Type
REMARK                         _______ _______ _______ _____ _____    ______ ____
ROOT
ATOM      1  C   UNL     1       4.359   3.722  17.116  0.00  0.00    +0.000 A 
ATOM      2  C   UNL     1       3.965   2.406  17.333  0.00  0.00    +0.000 A 
ATOM      3  C   UNL     1       3.163   2.080  18.432  0.00  0.00    +0.000 A 
ATOM      4  C   UNL     1       2.700   3.041  19.315  0.00  0.00    +0.000 A 
ATOM      5  N   UNL     1       1.893   2.660  20.307  0.00  0.00    +0.000 NA
ATOM      6  C   UNL     1       1.393   3.630  21.083  0.00  0.00    +0.000 A 
ATOM      7  N   UNL     1       1.624   4.936  20.951  0.00  0.00    +0.000 NA
ATOM      8  C   UNL     1       2.465   5.305  19.969  0.00  0.00    +0.000 A 
ATOM      9  N   UNL     1       2.717   6.681  19.783  0.00  0.00    +0.000 N 
ATOM     10  C   UNL     1       3.075   4.373  19.107  0.00  0.00    +0.000 A 
ATOM     11  C   UNL     1       3.950   4.694  18.032  0.00  0.00    +0.000 A 
ATOM     12  H   UNL     1       3.696   6.897  19.904  0.00  0.00    +0.000 HD
ENDROOT
BRANCH   9  13
ATOM     13  C   UNL     1       1.849   7.763  20.002  0.00  0.00    +0.000 A 
ATOM     14  C   UNL     1       1.325   7.979  21.275  0.00  0.00    +0.000 A 
ATOM     15  C   UNL     1       0.597   9.136  21.578  0.00  0.00    +0.000 A 
ATOM     16  C   UNL     1       0.389  10.143  20.621  0.00  0.00    +0.000 A 
ATOM     17  C   UNL     1       0.848   9.882  19.319  0.00  0.00    +0.000 A 
ATOM     18  C   UNL     1       1.561   8.710  19.012  0.00  0.00    +0.000 A 
BRANCH  16  19
ATOM     19  C   UNL     1      -0.236  11.500  20.984  0.00  0.00    +0.000 C 
ATOM     20  C   UNL     1       0.765  12.676  20.901  0.00  0.00    +0.000 C 
ATOM     21  C   UNL     1      -1.381  11.812  19.995  0.00  0.00    +0.000 C 
ATOM     22  C   UNL     1      -0.808  11.485  22.416  0.00  0.00    +0.000 C 
ENDBRANCH  16  19
ENDBRANCH   9  13
BRANCH   1  25
ATOM     23  C   UNL     1       6.479   4.398  16.004  0.00  0.00    +0.000 C 
ATOM     24  O   UNL     1       7.238   4.321  16.959  0.00  0.00    +0.000 OA
ATOM     25  N   UNL     1       5.122   4.135  16.002  0.00  0.00    +0.000 N 
ATOM     26  H   UNL     1       4.658   4.097  15.105  0.00  0.00    +0.000 HD
BRANCH  23  28
ATOM     27  C   UNL     1       6.492   4.134  13.563  0.00  0.00    +0.000 C 
ATOM     28  C   UNL     1       6.988   4.746  14.649  0.00  0.00    +0.000 C 
ENDBRANCH  23  28
ENDBRANCH   1  25
TORSDOF 4
ENDMDL
MODEL 2
REMARK VINA RESULT:      -8.5      0.954      1.642
REMARK  Name = 
REMARK  7 active torsions:
REMARK  status: ('A' for Active; 'I' for Inactive)
REMARK    1  A    between atoms: C_2  and  C_3
REMARK    2  A    between atoms: N_5  and  C_6
REMARK    3  A    between atoms: N_14  and  C_15
REMARK    4  A    between atoms: C_18  and  C_19
REMARK    5  A    between atoms: C_19  and  C_20
REMARK    6  A    between atoms: C_19  and  C_21
REMARK    7  A    between atoms: C_19  and  C_22
REMARK                            x       y       z     vdW  Elec       q    Type
REMARK                         _______ _______ _______ _____ _____    ______ ____
ROOT
ATOM      1  C   UNL     1       4.287   3.739  16.941  0.00  0.00    +0.000 A 
ATOM      2  C   UNL     1       3.838   2.485  17.340  0.00  0.00    +0.000 A 
ATOM      3  C   UNL     1       3.021   2.351  18.468  0.00  0.00    +0.000 A 
ATOM      4  C   UNL     1       2.596   3.446  19.201  0.00  0.00    +0.000 A 
ATOM      5  N   UNL     1       1.771   3.244  20.230  0.00  0.00    +0.000 NA
ATOM      6  C   UNL     1       1.311   4.335  20.856  0.00  0.00    +0.000 A 
ATOM      7  N   UNL     1       1.595   5.598  20.541  0.00  0.00    +0.000 NA
ATOM      8  C   UNL     1       2.453   5.789  19.524  0.00  0.00    +0.000 A 
ATOM      9  N   UNL     1       2.763   7.113  19.145  0.00  0.00    +0.000 N 
ATOM     10  C   UNL     1       3.027   4.719  18.808  0.00  0.00    +0.000 A 
ATOM     11  C   UNL     1       3.917   4.848  17.706  0.00  0.00    +0.000 A 
ATOM     12  H   UNL     1       3.750   7.304  19.242  0.00  0.00    +0.000 HD
ENDROOT
BRANCH   9  13
ATOM     13  C   UNL     1       1.941   8.250  19.200  0.00  0.00    +0.000 A 
ATOM     14  C   UNL     1       1.671   8.961  18.032  0.00  0.00    +0.000 A 
ATOM     15  C   UNL     1       0.724   9.992  18.010  0.00  0.00    +0.000 A 
ATOM     16  C   UNL     1      -0.014  10.336  19.154  0.00  0.00    +0.000 A 
ATOM     17  C   UNL     1       0.322   9.672  20.346  0.00  0.00    +0.000 A 
ATOM     18  C   UNL     1       1.286   8.651  20.371  0.00  0.00    +0.000 A 
BRANCH  16  19
ATOM     19  C   UNL     1      -1.188  11.328  19.103  0.00  0.00    +0.000 C 
ATOM     20  C   UNL     1      -1.672  11.774  20.503  0.00  0.00    +0.000 C 
ATOM     21  C   UNL     1      -0.743  12.603  18.353  0.00  0.00    +0.000 C 
ATOM     22  C   UNL     1      -2.402  10.719  18.371  0.00  0.00    +0.000 C 
ENDBRANCH  16  19
ENDBRANCH   9  13
BRANCH   1  25
ATOM     23  C   UNL     1       6.416   4.266  15.768  0.00  0.00    +0.000 C 
ATOM     24  O   UNL     1       7.149   4.404  16.737  0.00  0.00    +0.000 OA
ATOM     25  N   UNL     1       5.069   3.957  15.785  0.00  0.00    +0.000 N 
ATOM     26  H   UNL     1       4.634   3.729  14.903  0.00  0.00    +0.000 HD
BRANCH  23  28
ATOM     27  C   UNL     1       6.252   3.876  13.350  0.00  0.00    +0.000 C 
ATOM     28  C   UNL     1       6.954   4.365  14.384  0.00  0.00    +0.000 C 
ENDBRANCH  23  28
ENDBRANCH   1  25
TORSDOF 4
ENDMDL
MODEL 3
REMARK VINA RESULT:      -8.4      0.991      1.714
REMARK  Name = 
REMARK  7 active torsions:
REMARK  status: ('A' for Active; 'I' for Inactive)
REMARK    1  A    between atoms: C_2  and  C_3
REMARK    2  A    between atoms: N_5  and  C_6
REMARK    3  A    between atoms: N_14  and  C_15
REMARK    4  A    between atoms: C_18  and  C_19
REMARK    5  A    between atoms: C_19  and  C_20
REMARK    6  A    between atoms: C_19  and  C_21
REMARK    7  A    between atoms: C_19  and  C_22
REMARK                            x       y       z     vdW  Elec       q    Type
REMARK                         _______ _______ _______ _____ _____    ______ ____
ROOT
ATOM      1  C   UNL     1       4.461   3.225  17.361  0.00  0.00    +0.000 A 
ATOM      2  C   UNL     1       3.856   1.996  17.599  0.00  0.00    +0.000 A 
ATOM      3  C   UNL     1       2.862   1.875  18.577  0.00  0.00    +0.000 A 
ATOM      4  C   UNL     1       2.415   2.962  19.309  0.00  0.00    +0.000 A 
ATOM      5  N   UNL     1       1.424   2.778  20.184  0.00  0.00    +0.000 NA
ATOM      6  C   UNL     1       0.959   3.870  20.804  0.00  0.00    +0.000 A 
ATOM      7  N   UNL     1       1.390   5.117  20.624  0.00  0.00    +0.000 NA
ATOM      8  C   UNL     1       2.411   5.286  19.765  0.00  0.00    +0.000 A 
ATOM      9  N   UNL     1       2.882   6.596  19.530  0.00  0.00    +0.000 N 
ATOM     10  C   UNL     1       3.003   4.210  19.075  0.00  0.00    +0.000 A 
ATOM     11  C   UNL     1       4.064   4.319  18.133  0.00  0.00    +0.000 A 
ATOM     12  H   UNL     1       3.853   6.692  19.790  0.00  0.00    +0.000 HD
ENDROOT
BRANCH   9  13
ATOM     13  C   UNL     1       2.154   7.797  19.536  0.00  0.00    +0.000 A 
ATOM     14  C   UNL     1       1.986   8.505  18.348  0.00  0.00    +0.000 A 
ATOM     15  C   UNL     1       1.129   9.610  18.273  0.00  0.00    +0.000 A 
ATOM     16  C   UNL     1       0.381  10.035  19.383  0.00  0.00    +0.000 A 
ATOM     17  C   UNL     1       0.618   9.369  20.597  0.00  0.00    +0.000 A 
ATOM     18  C   UNL     1       1.493   8.273  20.675  0.00  0.00    +0.000 A 
BRANCH  16  19
ATOM     19  C   UNL     1      -0.705  11.119  19.272  0.00  0.00    +0.000 C 
ATOM     20  C   UNL     1      -1.931  10.672  18.442  0.00  0.00    +0.000 C 
ATOM     21  C   UNL     1      -1.220  11.468  20.686  0.00  0.00    +0.000 C 
ATOM     22  C   UNL     1      -0.148  12.399  18.615  0.00  0.00    +0.000 C 
ENDBRANCH  16  19
ENDBRANCH   9  13
BRANCH   1  25
ATOM     23  C   UNL     1       5.621   4.609  15.650  0.00  0.00    +0.000 C 
ATOM     24  O   UNL     1       4.988   5.648  15.772  0.00  0.00    +0.000 OA
ATOM     25  N   UNL     1       5.431   3.436  16.356  0.00  0.00    +0.000 N 
ATOM     26  H   UNL     1       6.129   2.713  16.250  0.00  0.00    +0.000 HD
BRANCH  23  28
ATOM     27  C   UNL     1       6.594   4.061  13.464  0.00  0.00    +0.000 C 
ATOM     28  C   UNL     1       6.773   4.522  14.711  0.00  0.00    +0.000 C 
ENDBRANCH  23  28
ENDBRANCH   1  25
TORSDOF 4
ENDMDL
MODEL 4
REMARK VINA RESULT:      -8.2      0.507      1.045
REMARK  Name = 
REMARK  7 active torsions:
REMARK  status: ('A' for Active; 'I' for Inactive)
REMARK    1  A    between atoms: C_2  and  C_3
REMARK    2  A    between atoms: N_5  and  C_6
REMARK    3  A    between atoms: N_14  and  C_15
REMARK    4  A    between atoms: C_18  and  C_19
REMARK    5  A    between atoms: C_19  and  C_20
REMARK    6  A    between atoms: C_19  and  C_21
REMARK    7  A    between atoms: C_19  and  C_22
REMARK                            x       y       z     vdW  Elec       q    Type
REMARK                         _______ _______ _______ _____ _____    ______ ____
ROOT
ATOM      1  C   UNL     1       4.352   3.429  17.227  0.00  0.00    +0.000 A 
ATOM      2  C   UNL     1       3.873   2.155  17.512  0.00  0.00    +0.000 A 
ATOM      3  C   UNL     1       3.004   1.950  18.590  0.00  0.00    +0.000 A 
ATOM      4  C   UNL     1       2.558   2.994  19.383  0.00  0.00    +0.000 A 
ATOM      5  N   UNL     1       1.686   2.728  20.357  0.00  0.00    +0.000 NA
ATOM      6  C   UNL     1       1.209   3.777  21.040  0.00  0.00    +0.000 A 
ATOM      7  N   UNL     1       1.520   5.055  20.832  0.00  0.00    +0.000 NA
ATOM      8  C   UNL     1       2.425   5.308  19.871  0.00  0.00    +0.000 A 
ATOM      9  N   UNL     1       2.765   6.652  19.605  0.00  0.00    +0.000 N 
ATOM     10  C   UNL     1       3.019   4.287  19.104  0.00  0.00    +0.000 A 
ATOM     11  C   UNL     1       3.959   4.484  18.055  0.00  0.00    +0.000 A 
ATOM     12  H   UNL     1       3.749   6.822  19.759  0.00  0.00    +0.000 HD
ENDROOT
BRANCH   9  13
ATOM     13  C   UNL     1       1.952   7.793  19.708  0.00  0.00    +0.000 A 
ATOM     14  C   UNL     1       1.463   8.180  20.954  0.00  0.00    +0.000 A 
ATOM     15  C   UNL     1       0.796   9.399  21.129  0.00  0.00    +0.000 A 
ATOM     16  C   UNL     1       0.616  10.296  20.064  0.00  0.00    +0.000 A 
ATOM     17  C   UNL     1       1.036   9.863  18.795  0.00  0.00    +0.000 A 
ATOM     18  C   UNL     1       1.688   8.631  18.618  0.00  0.00    +0.000 A 
BRANCH  16  19
ATOM     19  C   UNL     1       0.061  11.715  20.273  0.00  0.00    +0.000 C 
ATOM     20  C   UNL     1      -1.085  11.775  21.311  0.00  0.00    +0.000 C 
ATOM     21  C   UNL     1       1.191  12.630  20.795  0.00  0.00    +0.000 C 
ATOM     22  C   UNL     1      -0.484  12.301  18.954  0.00  0.00    +0.000 C 
ENDBRANCH  16  19
ENDBRANCH   9  13
BRANCH   1  25
ATOM     23  C   UNL     1       6.448   4.284  16.196  0.00  0.00    +0.000 C 
ATOM     24  O   UNL     1       7.044   4.623  17.208  0.00  0.00    +0.000 OA
ATOM     25  N   UNL     1       5.188   3.721  16.127  0.00  0.00    +0.000 N 
ATOM     26  H   UNL     1       4.891   3.357  15.232  0.00  0.00    +0.000 HD
BRANCH  23  28
ATOM     27  C   UNL     1       6.387   4.129  13.747  0.00  0.00    +0.000 C 
ATOM     28  C   UNL     1       7.090   4.397  14.858  0.00  0.00    +0.000 C 
ENDBRANCH  23  28
ENDBRANCH   1  25
TORSDOF 4
ENDMDL
MODEL 5
REMARK VINA RESULT:      -7.9      4.650      9.938
REMARK  Name = 
REMARK  7 active torsions:
REMARK  status: ('A' for Active; 'I' for Inactive)
REMARK    1  A    between atoms: C_2  and  C_3
REMARK    2  A    between atoms: N_5  and  C_6
REMARK    3  A    between atoms: N_14  and  C_15
REMARK    4  A    between atoms: C_18  and  C_19
REMARK    5  A    between atoms: C_19  and  C_20
REMARK    6  A    between atoms: C_19  and  C_21
REMARK    7  A    between atoms: C_19  and  C_22
REMARK                            x       y       z     vdW  Elec       q    Type
REMARK                         _______ _______ _______ _____ _____    ______ ____
ROOT
ATOM      1  C   UNL     1      -3.089  12.958  20.723  0.00  0.00    +0.000 A 
ATOM      2  C   UNL     1      -4.351  12.845  20.152  0.00  0.00    +0.000 A 
ATOM      3  C   UNL     1      -4.532  12.107  18.976  0.00  0.00    +0.000 A 
ATOM      4  C   UNL     1      -3.489  11.434  18.363  0.00  0.00    +0.000 A 
ATOM      5  N   UNL     1      -3.751  10.705  17.277  0.00  0.00    +0.000 NA
ATOM      6  C   UNL     1      -2.735   9.996  16.768  0.00  0.00    +0.000 A 
ATOM      7  N   UNL     1      -1.494   9.949  17.249  0.00  0.00    +0.000 NA
ATOM      8  C   UNL     1      -1.233  10.714  18.324  0.00  0.00    +0.000 A 
ATOM      9  N   UNL     1       0.065  10.675  18.877  0.00  0.00    +0.000 N 
ATOM     10  C   UNL     1      -2.212  11.525  18.931  0.00  0.00    +0.000 A 
ATOM     11  C   UNL     1      -2.014  12.334  20.083  0.00  0.00    +0.000 A 
ATOM     12  H   UNL     1       0.505  11.584  18.854  0.00  0.00    +0.000 HD
ENDROOT
BRANCH   9  13
ATOM     13  C   UNL     1       0.961   9.594  18.922  0.00  0.00    +0.000 A 
ATOM     14  C   UNL     1       1.053   8.823  20.079  0.00  0.00    +0.000 A 
ATOM     15  C   UNL     1       1.801   7.640  20.110  0.00  0.00    +0.000 A 
ATOM     16  C   UNL     1       2.467   7.164  18.969  0.00  0.00    +0.000 A 
ATOM     17  C   UNL     1       2.439   7.987  17.830  0.00  0.00    +0.000 A 
ATOM     18  C   UNL     1       1.704   9.184  17.808  0.00  0.00    +0.000 A 
BRANCH  16  19
ATOM     19  C   UNL     1       3.130   5.777  18.927  0.00  0.00    +0.000 C 
ATOM     20  C   UNL     1       3.049   5.021  20.274  0.00  0.00    +0.000 C 
ATOM     21  C   UNL     1       2.413   4.902  17.875  0.00  0.00    +0.000 C 
ATOM     22  C   UNL     1       4.622   5.883  18.550  0.00  0.00    +0.000 C 
ENDBRANCH  16  19
ENDBRANCH   9  13
BRANCH   1  25
ATOM     23  C   UNL     1      -3.080  13.147  23.204  0.00  0.00    +0.000 C 
ATOM     24  O   UNL     1      -3.549  12.055  23.488  0.00  0.00    +0.000 OA
ATOM     25  N   UNL     1      -2.838  13.639  21.935  0.00  0.00    +0.000 N 
ATOM     26  H   UNL     1      -2.308  14.497  21.863  0.00  0.00    +0.000 HD
BRANCH  23  28
ATOM     27  C   UNL     1      -1.437  14.680  24.192  0.00  0.00    +0.000 C 
ATOM     28  C   UNL     1      -2.639  14.090  24.268  0.00  0.00    +0.000 C 
ENDBRANCH  23  28
ENDBRANCH   1  25
TORSDOF 4
ENDMDL
MODEL 6
REMARK VINA RESULT:      -7.8      1.027      1.390
REMARK  Name = 
REMARK  7 active torsions:
REMARK  status: ('A' for Active; 'I' for Inactive)
REMARK    1  A    between atoms: C_2  and  C_3
REMARK    2  A    between atoms: N_5  and  C_6
REMARK    3  A    between atoms: N_14  and  C_15
REMARK    4  A    between atoms: C_18  and  C_19
REMARK    5  A    between atoms: C_19  and  C_20
REMARK    6  A    between atoms: C_19  and  C_21
REMARK    7  A    between atoms: C_19  and  C_22
REMARK                            x       y       z     vdW  Elec       q    Type
REMARK                         _______ _______ _______ _____ _____    ______ ____
ROOT
ATOM      1  C   UNL     1       4.530   4.110  16.845  0.00  0.00    +0.000 A 
ATOM      2  C   UNL     1       4.374   2.842  17.395  0.00  0.00    +0.000 A 
ATOM      3  C   UNL     1       3.745   2.680  18.634  0.00  0.00    +0.000 A 
ATOM      4  C   UNL     1       3.221   3.751  19.338  0.00  0.00    +0.000 A 
ATOM      5  N   UNL     1       2.585   3.511  20.486  0.00  0.00    +0.000 NA
ATOM      6  C   UNL     1       2.014   4.561  21.088  0.00  0.00    +0.000 A 
ATOM      7  N   UNL     1       2.018   5.817  20.645  0.00  0.00    +0.000 NA
ATOM      8  C   UNL     1       2.690   6.053  19.505  0.00  0.00    +0.000 A 
ATOM      9  N   UNL     1       2.699   7.368  18.990  0.00  0.00    +0.000 N 
ATOM     10  C   UNL     1       3.356   5.035  18.795  0.00  0.00    +0.000 A 
ATOM     11  C   UNL     1       4.060   5.207  17.571  0.00  0.00    +0.000 A 
ATOM     12  H   UNL     1       3.638   7.735  18.931  0.00  0.00    +0.000 HD
ENDROOT
BRANCH   9  13
ATOM     13  C   UNL     1       1.694   8.345  19.078  0.00  0.00    +0.000 A 
ATOM     14  C   UNL     1       1.250   8.765  20.330  0.00  0.00    +0.000 A 
ATOM     15  C   UNL     1       0.379   9.852  20.468  0.00  0.00    +0.000 A 
ATOM     16  C   UNL     1      -0.063  10.583  19.353  0.00  0.00    +0.000 A 
ATOM     17  C   UNL     1       0.321  10.104  18.090  0.00  0.00    +0.000 A 
ATOM     18  C   UNL     1       1.179   9.000  17.953  0.00  0.00    +0.000 A 
BRANCH  16  19
ATOM     19  C   UNL     1      -0.861  11.891  19.496  0.00  0.00    +0.000 C 
ATOM     20  C   UNL     1      -1.147  12.274  20.967  0.00  0.00    +0.000 C 
ATOM     21  C   UNL     1      -0.049  13.051  18.877  0.00  0.00    +0.000 C 
ATOM     22  C   UNL     1      -2.221  11.796  18.774  0.00  0.00    +0.000 C 
ENDBRANCH  16  19
ENDBRANCH   9  13
BRANCH   1  25
ATOM     23  C   UNL     1       6.453   4.516  15.321  0.00  0.00    +0.000 C 
ATOM     24  O   UNL     1       7.363   4.493  16.137  0.00  0.00    +0.000 OA
ATOM     25  N   UNL     1       5.105   4.346  15.577  0.00  0.00    +0.000 N 
ATOM     26  H   UNL     1       4.491   4.241  14.782  0.00  0.00    +0.000 HD
BRANCH  23  28
ATOM     27  C   UNL     1       7.837   5.324  13.461  0.00  0.00    +0.000 C 
ATOM     28  C   UNL     1       6.734   4.679  13.868  0.00  0.00    +0.000 C 
ENDBRANCH  23  28
ENDBRANCH   1  25
TORSDOF 4
ENDMDL
MODEL 7
REMARK VINA RESULT:      -7.8      1.862      2.289
REMARK  Name = 
REMARK  7 active torsions:
REMARK  status: ('A' for Active; 'I' for Inactive)
REMARK    1  A    between atoms: C_2  and  C_3
REMARK    2  A    between atoms: N_5  and  C_6
REMARK    3  A    between atoms: N_14  and  C_15
REMARK    4  A    between atoms: C_18  and  C_19
REMARK    5  A    between atoms: C_19  and  C_20
REMARK    6  A    between atoms: C_19  and  C_21
REMARK    7  A    between atoms: C_19  and  C_22
REMARK                            x       y       z     vdW  Elec       q    Type
REMARK                         _______ _______ _______ _____ _____    ______ ____
ROOT
ATOM      1  C   UNL     1       5.211   5.214  18.583  0.00  0.00    +0.000 A 
ATOM      2  C   UNL     1       4.887   3.953  18.096  0.00  0.00    +0.000 A 
ATOM      3  C   UNL     1       3.674   3.350  18.445  0.00  0.00    +0.000 A 
ATOM      4  C   UNL     1       2.739   3.987  19.243  0.00  0.00    +0.000 A 
ATOM      5  N   UNL     1       1.580   3.371  19.486  0.00  0.00    +0.000 NA
ATOM      6  C   UNL     1       0.668   4.059  20.184  0.00  0.00    +0.000 A 
ATOM      7  N   UNL     1       0.809   5.298  20.652  0.00  0.00    +0.000 NA
ATOM      8  C   UNL     1       1.993   5.896  20.430  0.00  0.00    +0.000 A 
ATOM      9  N   UNL     1       2.174   7.219  20.891  0.00  0.00    +0.000 N 
ATOM     10  C   UNL     1       3.041   5.264  19.733  0.00  0.00    +0.000 A 
ATOM     11  C   UNL     1       4.305   5.846  19.438  0.00  0.00    +0.000 A 
ATOM     12  H   UNL     1       2.932   7.278  21.556  0.00  0.00    +0.000 HD
ENDROOT
BRANCH   9  13
ATOM     13  C   UNL     1       1.218   8.241  21.002  0.00  0.00    +0.000 A 
ATOM     14  C   UNL     1       0.683   8.550  22.252  0.00  0.00    +0.000 A 
ATOM     15  C   UNL     1      -0.139   9.668  22.436  0.00  0.00    +0.000 A 
ATOM     16  C   UNL     1      -0.437  10.542  21.378  0.00  0.00    +0.000 A 
ATOM     17  C   UNL     1       0.036  10.179  20.106  0.00  0.00    +0.000 A 
ATOM     18  C   UNL     1       0.844   9.045  19.919  0.00  0.00    +0.000 A 
BRANCH  16  19
ATOM     19  C   UNL     1      -1.175  11.873  21.600  0.00  0.00    +0.000 C 
ATOM     20  C   UNL     1      -2.104  12.259  20.425  0.00  0.00    +0.000 C 
ATOM     21  C   UNL     1      -2.064  11.758  22.858  0.00  0.00    +0.000 C 
ATOM     22  C   UNL     1      -0.180  13.035  21.799  0.00  0.00    +0.000 C 
ENDBRANCH  16  19
ENDBRANCH   9  13
BRANCH   1  25
ATOM     23  C   UNL     1       6.513   6.825  17.205  0.00  0.00    +0.000 C 
ATOM     24  O   UNL     1       5.635   7.185  16.435  0.00  0.00    +0.000 OA
ATOM     25  N   UNL     1       6.391   5.908  18.232  0.00  0.00    +0.000 N 
ATOM     26  H   UNL     1       7.164   5.826  18.877  0.00  0.00    +0.000 HD
BRANCH  23  28
ATOM     27  C   UNL     1       8.146   8.552  17.823  0.00  0.00    +0.000 C 
ATOM     28  C   UNL     1       7.874   7.426  17.146  0.00  0.00    +0.000 C 
ENDBRANCH  23  28
ENDBRANCH   1  25
TORSDOF 4
ENDMDL
MODEL 8
REMARK VINA RESULT:      -7.8      3.755      8.358
REMARK  Name = 
REMARK  7 active torsions:
REMARK  status: ('A' for Active; 'I' for Inactive)
REMARK    1  A    between atoms: C_2  and  C_3
REMARK    2  A    between atoms: N_5  and  C_6
REMARK    3  A    between atoms: N_14  and  C_15
REMARK    4  A    between atoms: C_18  and  C_19
REMARK    5  A    between atoms: C_19  and  C_20
REMARK    6  A    between atoms: C_19  and  C_21
REMARK    7  A    between atoms: C_19  and  C_22
REMARK                            x       y       z     vdW  Elec       q    Type
REMARK                         _______ _______ _______ _____ _____    ______ ____
ROOT
ATOM      1  C   UNL     1      -1.238  10.945  18.470  0.00  0.00    +0.000 A 
ATOM      2  C   UNL     1      -1.388  11.803  19.554  0.00  0.00    +0.000 A 
ATOM      3  C   UNL     1      -0.750  11.526  20.768  0.00  0.00    +0.000 A 
ATOM      4  C   UNL     1       0.078  10.428  20.930  0.00  0.00    +0.000 A 
ATOM      5  N   UNL     1       0.697  10.262  22.101  0.00  0.00    +0.000 NA
ATOM      6  C   UNL     1       1.559   9.241  22.186  0.00  0.00    +0.000 A 
ATOM      7  N   UNL     1       1.858   8.384  21.211  0.00  0.00    +0.000 NA
ATOM      8  C   UNL     1       1.204   8.541  20.047  0.00  0.00    +0.000 A 
ATOM      9  N   UNL     1       1.509   7.666  18.982  0.00  0.00    +0.000 N 
ATOM     10  C   UNL     1       0.252   9.560  19.846  0.00  0.00    +0.000 A 
ATOM     11  C   UNL     1      -0.454   9.801  18.635  0.00  0.00    +0.000 A 
ATOM     12  H   UNL     1       0.698   7.138  18.693  0.00  0.00    +0.000 HD
ENDROOT
BRANCH   9  13
ATOM     13  C   UNL     1       2.739   7.059  18.678  0.00  0.00    +0.000 A 
ATOM     14  C   UNL     1       3.480   7.515  17.589  0.00  0.00    +0.000 A 
ATOM     15  C   UNL     1       4.783   7.059  17.352  0.00  0.00    +0.000 A 
ATOM     16  C   UNL     1       5.409   6.146  18.216  0.00  0.00    +0.000 A 
ATOM     17  C   UNL     1       4.627   5.629  19.263  0.00  0.00    +0.000 A 
ATOM     18  C   UNL     1       3.314   6.073  19.487  0.00  0.00    +0.000 A 
BRANCH  16  19
ATOM     19  C   UNL     1       6.897   5.783  18.083  0.00  0.00    +0.000 C 
ATOM     20  C   UNL     1       7.144   4.527  17.214  0.00  0.00    +0.000 C 
ATOM     21  C   UNL     1       7.648   6.953  17.409  0.00  0.00    +0.000 C 
ATOM     22  C   UNL     1       7.531   5.517  19.464  0.00  0.00    +0.000 C 
ENDBRANCH  16  19
ENDBRANCH   9  13
BRANCH   1  25
ATOM     23  C   UNL     1      -2.821  10.450  16.616  0.00  0.00    +0.000 C 
ATOM     24  O   UNL     1      -3.388   9.478  17.093  0.00  0.00    +0.000 OA
ATOM     25  N   UNL     1      -1.806  11.186  17.199  0.00  0.00    +0.000 N 
ATOM     26  H   UNL     1      -1.542  12.051  16.749  0.00  0.00    +0.000 HD
BRANCH  23  28
ATOM     27  C   UNL     1      -3.448  10.194  14.256  0.00  0.00    +0.000 C 
ATOM     28  C   UNL     1      -3.237  11.009  15.300  0.00  0.00    +0.000 C 
ENDBRANCH  23  28
ENDBRANCH   1  25
TORSDOF 4
ENDMDL
MODEL 9
REMARK VINA RESULT:      -7.7      1.621      2.005
REMARK  Name = 
REMARK  7 active torsions:
REMARK  status: ('A' for Active; 'I' for Inactive)
REMARK    1  A    between atoms: C_2  and  C_3
REMARK    2  A    between atoms: N_5  and  C_6
REMARK    3  A    between atoms: N_14  and  C_15
REMARK    4  A    between atoms: C_18  and  C_19
REMARK    5  A    between atoms: C_19  and  C_20
REMARK    6  A    between atoms: C_19  and  C_21
REMARK    7  A    between atoms: C_19  and  C_22
REMARK                            x       y       z     vdW  Elec       q    Type
REMARK                         _______ _______ _______ _____ _____    ______ ____
ROOT
ATOM      1  C   UNL     1       4.548   4.224  16.596  0.00  0.00    +0.000 A 
ATOM      2  C   UNL     1       4.285   3.064  17.317  0.00  0.00    +0.000 A 
ATOM      3  C   UNL     1       3.628   3.131  18.551  0.00  0.00    +0.000 A 
ATOM      4  C   UNL     1       3.182   4.330  19.081  0.00  0.00    +0.000 A 
ATOM      5  N   UNL     1       2.513   4.307  20.236  0.00  0.00    +0.000 NA
ATOM      6  C   UNL     1       2.019   5.475  20.668  0.00  0.00    +0.000 A 
ATOM      7  N   UNL     1       2.129   6.649  20.049  0.00  0.00    +0.000 NA
ATOM      8  C   UNL     1       2.833   6.666  18.904  0.00  0.00    +0.000 A 
ATOM      9  N   UNL     1       2.953   7.888  18.208  0.00  0.00    +0.000 N 
ATOM     10  C   UNL     1       3.425   5.508  18.364  0.00  0.00    +0.000 A 
ATOM     11  C   UNL     1       4.157   5.447  17.146  0.00  0.00    +0.000 A 
ATOM     12  H   UNL     1       3.919   8.170  18.120  0.00  0.00    +0.000 HD
ENDROOT
BRANCH   9  13
ATOM     13  C   UNL     1       2.028   8.941  18.130  0.00  0.00    +0.000 A 
ATOM     14  C   UNL     1       0.708   8.673  17.769  0.00  0.00    +0.000 A 
ATOM     15  C   UNL     1      -0.283   9.659  17.845  0.00  0.00    +0.000 A 
ATOM     16  C   UNL     1       0.003  10.951  18.315  0.00  0.00    +0.000 A 
ATOM     17  C   UNL     1       1.349  11.238  18.598  0.00  0.00    +0.000 A 
ATOM     18  C   UNL     1       2.345  10.253  18.502  0.00  0.00    +0.000 A 
BRANCH  16  19
ATOM     19  C   UNL     1      -1.103  11.986  18.588  0.00  0.00    +0.000 C 
ATOM     20  C   UNL     1      -0.651  13.443  18.335  0.00  0.00    +0.000 C 
ATOM     21  C   UNL     1      -2.296  11.714  17.645  0.00  0.00    +0.000 C 
ATOM     22  C   UNL     1      -1.594  11.904  20.048  0.00  0.00    +0.000 C 
ENDBRANCH  16  19
ENDBRANCH   9  13
BRANCH   1  25
ATOM     23  C   UNL     1       6.503   4.424  15.071  0.00  0.00    +0.000 C 
ATOM     24  O   UNL     1       7.381   4.625  15.898  0.00  0.00    +0.000 OA
ATOM     25  N   UNL     1       5.157   4.230  15.322  0.00  0.00    +0.000 N 
ATOM     26  H   UNL     1       4.580   3.928  14.550  0.00  0.00    +0.000 HD
BRANCH  23  28
ATOM     27  C   UNL     1       6.025   3.607  12.806  0.00  0.00    +0.000 C 
ATOM     28  C   UNL     1       6.829   4.303  13.624  0.00  0.00    +0.000 C 
ENDBRANCH  23  28
ENDBRANCH   1  25
TORSDOF 4
ENDMDL
