MODEL 1
REMARK VINA RESULT:      -8.3      0.000      0.000
REMARK  Name = 
REMARK  7 active torsions:
REMARK  status: ('A' for Active; 'I' for Inactive)
REMARK    1  A    between atoms: C_2  and  C_22
REMARK    2  A    between atoms: N_3  and  C_4
REMARK    3  A    between atoms: N_6  and  C_7
REMARK    4  A    between atoms: C_7  and  C_8
REMARK    5  A    between atoms: C_13  and  C_14
REMARK    6  A    between atoms: C_19  and  C_20
REMARK    7  A    between atoms: C_20  and  O_21
REMARK                            x       y       z     vdW  Elec       q    Type
REMARK                         _______ _______ _______ _____ _____    ______ ____
ROOT
ATOM      1  C   UNL     1       2.411   5.352  20.189  0.00  0.00    +0.000 C 
ATOM      2  C   UNL     1       2.515   5.322  18.654  0.00  0.00    +0.000 C 
ATOM      3  N   UNL     1       3.192   4.035  18.355  0.00  0.00    +0.000 NA
ATOM      4  C   UNL     1       2.601   3.098  19.337  0.00  0.00    +0.000 C 
ATOM      5  C   UNL     1       1.917   3.931  20.449  0.00  0.00    +0.000 C 
ENDROOT
BRANCH   1   8
ATOM      6  O   UNL     1       2.448   7.901  19.185  0.00  0.00    +0.000 OA
ATOM      7  C   UNL     1       1.743   7.711  20.179  0.00  0.00    +0.000 C 
ATOM      8  N   UNL     1       1.594   6.432  20.712  0.00  0.00    +0.000 N 
ATOM      9  H   UNL     1       1.102   6.319  21.590  0.00  0.00    +0.000 HD
BRANCH   7  10
ATOM     10  C   UNL     1       1.015   8.849  20.944  0.00  0.00    +0.000 C 
ATOM     11  C   UNL     1      -0.368   8.481  21.561  0.00  0.00    +0.000 C 
ATOM     12  C   UNL     1      -0.004   9.362  22.767  0.00  0.00    +0.000 C 
ATOM     13  C   UNL     1       1.475   9.139  22.401  0.00  0.00    +0.000 C 
ENDBRANCH   7  10
ENDBRANCH   1   8
BRANCH   3  14
ATOM     14  C   UNL     1       4.653   4.221  18.514  0.00  0.00    +0.000 C 
BRANCH  14  15
ATOM     15  C   UNL     1       5.423   4.526  17.240  0.00  0.00    +0.000 A 
ATOM     16  C   UNL     1       4.897   4.029  16.029  0.00  0.00    +0.000 A 
ATOM     17  C   UNL     1       5.542   4.233  14.810  0.00  0.00    +0.000 A 
ATOM     18  C   UNL     1       6.716   4.970  14.767  0.00  0.00    +0.000 A 
ATOM     19  C   UNL     1       7.268   5.453  15.953  0.00  0.00    +0.000 A 
ATOM     20  C   UNL     1       6.663   5.205  17.208  0.00  0.00    +0.000 A 
BRANCH  20  21
ATOM     21  C   UNL     1       7.455   5.625  18.427  0.00  0.00    +0.000 C 
ATOM     22  F   UNL     1       6.758   5.756  19.585  0.00  0.00    +0.000 F 
ATOM     23  F   UNL     1       8.429   4.708  18.712  0.00  0.00    +0.000 F 
ATOM     24  F   UNL     1       8.121   6.801  18.244  0.00  0.00    +0.000 F 
ENDBRANCH  20  21
ENDBRANCH  14  15
ENDBRANCH   3  14
BRANCH   5  25
ATOM     25  C   UNL     1       2.224   3.418  21.851  0.00  0.00    +0.000 C 
BRANCH  25  26
ATOM     26  O   UNL     1       1.326   2.374  22.210  0.00  0.00    +0.000 OA
ATOM     27  H   UNL     1       0.470   2.552  21.793  0.00  0.00    +0.000 HD
ENDBRANCH  25  26
ENDBRANCH   5  25
TORSDOF 7
ENDMDL
MODEL 2
REMARK VINA RESULT:      -8.3      3.407      6.494
REMARK  Name = 
REMARK  7 active torsions:
REMARK  status: ('A' for Active; 'I' for Inactive)
REMARK    1  A    between atoms: C_2  and  C_22
REMARK    2  A    between atoms: N_3  and  C_4
REMARK    3  A    between atoms: N_6  and  C_7
REMARK    4  A    between atoms: C_7  and  C_8
REMARK    5  A    between atoms: C_13  and  C_14
REMARK    6  A    between atoms: C_19  and  C_20
REMARK    7  A    between atoms: C_20  and  O_21
REMARK                            x       y       z     vdW  Elec       q    Type
REMARK                         _______ _______ _______ _____ _____    ______ ____
ROOT
ATOM      1  C   UNL     1       6.467   5.473  16.714  0.00  0.00    +0.000 C 
ATOM      2  C   UNL     1       5.956   4.551  17.834  0.00  0.00    +0.000 C 
ATOM      3  N   UNL     1       5.066   3.584  17.142  0.00  0.00    +0.000 NA
ATOM      4  C   UNL     1       5.773   3.317  15.869  0.00  0.00    +0.000 C 
ATOM      5  C   UNL     1       6.827   4.431  15.657  0.00  0.00    +0.000 C 
ENDROOT
BRANCH   1   8
ATOM      6  O   UNL     1       6.012   8.036  17.570  0.00  0.00    +0.000 OA
ATOM      7  C   UNL     1       7.192   7.689  17.468  0.00  0.00    +0.000 C 
ATOM      8  N   UNL     1       7.523   6.382  17.121  0.00  0.00    +0.000 N 
ATOM      9  H   UNL     1       8.491   6.151  16.937  0.00  0.00    +0.000 HD
BRANCH   7  10
ATOM     10  C   UNL     1       8.389   8.659  17.661  0.00  0.00    +0.000 C 
ATOM     11  C   UNL     1       8.044  10.178  17.667  0.00  0.00    +0.000 C 
ATOM     12  C   UNL     1       9.106  10.361  18.764  0.00  0.00    +0.000 C 
ATOM     13  C   UNL     1       8.909   8.873  19.112  0.00  0.00    +0.000 C 
ENDBRANCH   7  10
ENDBRANCH   1   8
BRANCH   3  14
ATOM     14  C   UNL     1       3.735   4.211  16.964  0.00  0.00    +0.000 C 
BRANCH  14  15
ATOM     15  C   UNL     1       2.696   3.864  18.017  0.00  0.00    +0.000 A 
ATOM     16  C   UNL     1       2.111   2.583  17.953  0.00  0.00    +0.000 A 
ATOM     17  C   UNL     1       1.130   2.178  18.857  0.00  0.00    +0.000 A 
ATOM     18  C   UNL     1       0.733   3.037  19.871  0.00  0.00    +0.000 A 
ATOM     19  C   UNL     1       1.280   4.317  19.942  0.00  0.00    +0.000 A 
ATOM     20  C   UNL     1       2.231   4.770  18.998  0.00  0.00    +0.000 A 
BRANCH  20  21
ATOM     21  C   UNL     1       2.609   6.234  19.078  0.00  0.00    +0.000 C 
ATOM     22  F   UNL     1       1.983   6.968  20.033  0.00  0.00    +0.000 F 
ATOM     23  F   UNL     1       3.942   6.376  19.351  0.00  0.00    +0.000 F 
ATOM     24  F   UNL     1       2.418   6.892  17.898  0.00  0.00    +0.000 F 
ENDBRANCH  20  21
ENDBRANCH  14  15
ENDBRANCH   3  14
BRANCH   5  25
ATOM     25  C   UNL     1       6.841   4.976  14.234  0.00  0.00    +0.000 C 
BRANCH  25  26
ATOM     26  O   UNL     1       8.064   5.654  13.969  0.00  0.00    +0.000 OA
ATOM     27  H   UNL     1       8.681   5.024  13.569  0.00  0.00    +0.000 HD
ENDBRANCH  25  26
ENDBRANCH   5  25
TORSDOF 7
ENDMDL
MODEL 3
REMARK VINA RESULT:      -8.1      3.603      6.750
REMARK  Name = 
REMARK  7 active torsions:
REMARK  status: ('A' for Active; 'I' for Inactive)
REMARK    1  A    between atoms: C_2  and  C_22
REMARK    2  A    between atoms: N_3  and  C_4
REMARK    3  A    between atoms: N_6  and  C_7
REMARK    4  A    between atoms: C_7  and  C_8
REMARK    5  A    between atoms: C_13  and  C_14
REMARK    6  A    between atoms: C_19  and  C_20
REMARK    7  A    between atoms: C_20  and  O_21
REMARK                            x       y       z     vdW  Elec       q    Type
REMARK                         _______ _______ _______ _____ _____    ______ ____
ROOT
ATOM      1  C   UNL     1       6.607   5.651  16.554  0.00  0.00    +0.000 C 
ATOM      2  C   UNL     1       6.095   4.776  17.711  0.00  0.00    +0.000 C 
ATOM      3  N   UNL     1       5.207   3.781  17.058  0.00  0.00    +0.000 NA
ATOM      4  C   UNL     1       5.916   3.461  15.798  0.00  0.00    +0.000 C 
ATOM      5  C   UNL     1       6.970   4.566  15.542  0.00  0.00    +0.000 C 
ENDROOT
BRANCH   1   8
ATOM      6  O   UNL     1       6.150   8.049  17.799  0.00  0.00    +0.000 OA
ATOM      7  C   UNL     1       7.318   7.804  17.486  0.00  0.00    +0.000 C 
ATOM      8  N   UNL     1       7.663   6.576  16.925  0.00  0.00    +0.000 N 
ATOM      9  H   UNL     1       8.603   6.441  16.576  0.00  0.00    +0.000 HD
BRANCH   7  10
ATOM     10  C   UNL     1       8.477   8.826  17.635  0.00  0.00    +0.000 C 
ATOM     11  C   UNL     1       8.079  10.329  17.533  0.00  0.00    +0.000 C 
ATOM     12  C   UNL     1       9.113  10.622  18.633  0.00  0.00    +0.000 C 
ATOM     13  C   UNL     1       8.960   9.155  19.077  0.00  0.00    +0.000 C 
ENDBRANCH   7  10
ENDBRANCH   1   8
BRANCH   3  14
ATOM     14  C   UNL     1       3.876   4.399  16.852  0.00  0.00    +0.000 C 
BRANCH  14  15
ATOM     15  C   UNL     1       3.087   4.704  18.115  0.00  0.00    +0.000 A 
ATOM     16  C   UNL     1       3.101   6.034  18.583  0.00  0.00    +0.000 A 
ATOM     17  C   UNL     1       2.430   6.410  19.746  0.00  0.00    +0.000 A 
ATOM     18  C   UNL     1       1.698   5.468  20.452  0.00  0.00    +0.000 A 
ATOM     19  C   UNL     1       1.686   4.142  20.022  0.00  0.00    +0.000 A 
ATOM     20  C   UNL     1       2.411   3.727  18.880  0.00  0.00    +0.000 A 
BRANCH  20  21
ATOM     21  C   UNL     1       2.463   2.235  18.627  0.00  0.00    +0.000 C 
ATOM     22  F   UNL     1       1.578   1.473  19.319  0.00  0.00    +0.000 F 
ATOM     23  F   UNL     1       2.205   1.958  17.312  0.00  0.00    +0.000 F 
ATOM     24  F   UNL     1       3.697   1.703  18.863  0.00  0.00    +0.000 F 
ENDBRANCH  20  21
ENDBRANCH  14  15
ENDBRANCH   3  14
BRANCH   5  25
ATOM     25  C   UNL     1       6.986   5.051  14.097  0.00  0.00    +0.000 C 
BRANCH  25  26
ATOM     26  O   UNL     1       8.216   5.703  13.801  0.00  0.00    +0.000 OA
ATOM     27  H   UNL     1       8.039   6.649  13.692  0.00  0.00    +0.000 HD
ENDBRANCH  25  26
ENDBRANCH   5  25
TORSDOF 7
ENDMDL
MODEL 4
REMARK VINA RESULT:      -7.9      0.891      1.229
REMARK  Name = 
REMARK  7 active torsions:
REMARK  status: ('A' for Active; 'I' for Inactive)
REMARK    1  A    between atoms: C_2  and  C_22
REMARK    2  A    between atoms: N_3  and  C_4
REMARK    3  A    between atoms: N_6  and  C_7
REMARK    4  A    between atoms: C_7  and  C_8
REMARK    5  A    between atoms: C_13  and  C_14
REMARK    6  A    between atoms: C_19  and  C_20
REMARK    7  A    between atoms: C_20  and  O_21
REMARK                            x       y       z     vdW  Elec       q    Type
REMARK                         _______ _______ _______ _____ _____    ______ ____
ROOT
ATOM      1  C   UNL     1       2.084   4.808  19.940  0.00  0.00    +0.000 C 
ATOM      2  C   UNL     1       2.307   4.981  18.427  0.00  0.00    +0.000 C 
ATOM      3  N   UNL     1       2.752   3.643  17.963  0.00  0.00    +0.000 NA
ATOM      4  C   UNL     1       1.916   2.709  18.750  0.00  0.00    +0.000 C 
ATOM      5  C   UNL     1       1.311   3.490  19.943  0.00  0.00    +0.000 C 
ENDROOT
BRANCH   1   8
ATOM      6  O   UNL     1       2.635   7.417  19.311  0.00  0.00    +0.000 OA
ATOM      7  C   UNL     1       1.851   7.228  20.244  0.00  0.00    +0.000 C 
ATOM      8  N   UNL     1       1.444   5.940  20.585  0.00  0.00    +0.000 N 
ATOM      9  H   UNL     1       0.890   5.803  21.421  0.00  0.00    +0.000 HD
BRANCH   7  10
ATOM     10  C   UNL     1       1.295   8.369  21.140  0.00  0.00    +0.000 C 
ATOM     11  C   UNL     1       0.889   9.680  20.402  0.00  0.00    +0.000 C 
ATOM     12  C   UNL     1      -0.298   9.795  21.373  0.00  0.00    +0.000 C 
ATOM     13  C   UNL     1      -0.195   8.272  21.578  0.00  0.00    +0.000 C 
ENDBRANCH   7  10
ENDBRANCH   1   8
BRANCH   3  14
ATOM     14  C   UNL     1       4.204   3.510  18.227  0.00  0.00    +0.000 C 
BRANCH  14  15
ATOM     15  C   UNL     1       5.124   4.092  17.167  0.00  0.00    +0.000 A 
ATOM     16  C   UNL     1       5.017   3.575  15.860  0.00  0.00    +0.000 A 
ATOM     17  C   UNL     1       5.834   4.025  14.823  0.00  0.00    +0.000 A 
ATOM     18  C   UNL     1       6.758   5.031  15.062  0.00  0.00    +0.000 A 
ATOM     19  C   UNL     1       6.899   5.542  16.352  0.00  0.00    +0.000 A 
ATOM     20  C   UNL     1       6.124   5.057  17.431  0.00  0.00    +0.000 A 
BRANCH  20  21
ATOM     21  C   UNL     1       6.499   5.565  18.807  0.00  0.00    +0.000 C 
ATOM     22  F   UNL     1       7.200   4.711  19.596  0.00  0.00    +0.000 F 
ATOM     23  F   UNL     1       7.291   6.678  18.713  0.00  0.00    +0.000 F 
ATOM     24  F   UNL     1       5.416   5.964  19.535  0.00  0.00    +0.000 F 
ENDBRANCH  20  21
ENDBRANCH  14  15
ENDBRANCH   3  14
BRANCH   5  25
ATOM     25  C   UNL     1       1.398   2.728  21.260  0.00  0.00    +0.000 C 
BRANCH  25  26
ATOM     26  O   UNL     1       2.237   3.413  22.181  0.00  0.00    +0.000 OA
ATOM     27  H   UNL     1       3.150   3.124  22.034  0.00  0.00    +0.000 HD
ENDBRANCH  25  26
ENDBRANCH   5  25
TORSDOF 7
ENDMDL
MODEL 5
REMARK VINA RESULT:      -7.9      0.554      1.096
REMARK  Name = 
REMARK  7 active torsions:
REMARK  status: ('A' for Active; 'I' for Inactive)
REMARK    1  A    between atoms: C_2  and  C_22
REMARK    2  A    between atoms: N_3  and  C_4
REMARK    3  A    between atoms: N_6  and  C_7
REMARK    4  A    between atoms: C_7  and  C_8
REMARK    5  A    between atoms: C_13  and  C_14
REMARK    6  A    between atoms: C_19  and  C_20
REMARK    7  A    between atoms: C_20  and  O_21
REMARK                            x       y       z     vdW  Elec       q    Type
REMARK                         _______ _______ _______ _____ _____    ______ ____
ROOT
ATOM      1  C   UNL     1       2.392   4.803  20.100  0.00  0.00    +0.000 C 
ATOM      2  C   UNL     1       2.514   4.838  18.567  0.00  0.00    +0.000 C 
ATOM      3  N   UNL     1       3.351   3.657  18.234  0.00  0.00    +0.000 NA
ATOM      4  C   UNL     1       2.873   2.620  19.177  0.00  0.00    +0.000 C 
ATOM      5  C   UNL     1       2.079   3.322  20.306  0.00  0.00    +0.000 C 
ENDROOT
BRANCH   1   8
ATOM      6  O   UNL     1       2.553   7.508  19.698  0.00  0.00    +0.000 OA
ATOM      7  C   UNL     1       1.655   7.114  20.447  0.00  0.00    +0.000 C 
ATOM      8  N   UNL     1       1.440   5.753  20.648  0.00  0.00    +0.000 N 
ATOM      9  H   UNL     1       0.773   5.457  21.349  0.00  0.00    +0.000 HD
BRANCH   7  10
ATOM     10  C   UNL     1       0.735   8.068  21.256  0.00  0.00    +0.000 C 
ATOM     11  C   UNL     1       1.455   9.049  22.229  0.00  0.00    +0.000 C 
ATOM     12  C   UNL     1       0.412  10.112  21.843  0.00  0.00    +0.000 C 
ATOM     13  C   UNL     1       0.204   9.336  20.528  0.00  0.00    +0.000 C 
ENDBRANCH   7  10
ENDBRANCH   1   8
BRANCH   3  14
ATOM     14  C   UNL     1       4.775   4.021  18.420  0.00  0.00    +0.000 C 
BRANCH  14  15
ATOM     15  C   UNL     1       5.533   4.389  17.155  0.00  0.00    +0.000 A 
ATOM     16  C   UNL     1       5.084   3.825  15.943  0.00  0.00    +0.000 A 
ATOM     17  C   UNL     1       5.727   4.081  14.733  0.00  0.00    +0.000 A 
ATOM     18  C   UNL     1       6.818   4.937  14.700  0.00  0.00    +0.000 A 
ATOM     19  C   UNL     1       7.294   5.489  15.889  0.00  0.00    +0.000 A 
ATOM     20  C   UNL     1       6.695   5.194  17.136  0.00  0.00    +0.000 A 
BRANCH  20  21
ATOM     21  C   UNL     1       7.416   5.709  18.363  0.00  0.00    +0.000 C 
ATOM     22  F   UNL     1       8.079   6.886  18.225  0.00  0.00    +0.000 F 
ATOM     23  F   UNL     1       6.534   5.928  19.386  0.00  0.00    +0.000 F 
ATOM     24  F   UNL     1       8.317   4.814  18.860  0.00  0.00    +0.000 F 
ENDBRANCH  20  21
ENDBRANCH  14  15
ENDBRANCH   3  14
BRANCH   5  25
ATOM     25  C   UNL     1       2.434   2.804  21.695  0.00  0.00    +0.000 C 
BRANCH  25  26
ATOM     26  O   UNL     1       1.264   2.386  22.389  0.00  0.00    +0.000 OA
ATOM     27  H   UNL     1       0.759   1.800  21.806  0.00  0.00    +0.000 HD
ENDBRANCH  25  26
ENDBRANCH   5  25
TORSDOF 7
ENDMDL
MODEL 6
REMARK VINA RESULT:      -7.8      3.402      6.424
REMARK  Name = 
REMARK  7 active torsions:
REMARK  status: ('A' for Active; 'I' for Inactive)
REMARK    1  A    between atoms: C_2  and  C_22
REMARK    2  A    between atoms: N_3  and  C_4
REMARK    3  A    between atoms: N_6  and  C_7
REMARK    4  A    between atoms: C_7  and  C_8
REMARK    5  A    between atoms: C_13  and  C_14
REMARK    6  A    between atoms: C_19  and  C_20
REMARK    7  A    between atoms: C_20  and  O_21
REMARK                            x       y       z     vdW  Elec       q    Type
REMARK                         _______ _______ _______ _____ _____    ______ ____
ROOT
ATOM      1  C   UNL     1       6.271   5.401  17.169  0.00  0.00    +0.000 C 
ATOM      2  C   UNL     1       5.813   4.366  18.211  0.00  0.00    +0.000 C 
ATOM      3  N   UNL     1       4.949   3.430  17.448  0.00  0.00    +0.000 NA
ATOM      4  C   UNL     1       5.645   3.301  16.148  0.00  0.00    +0.000 C 
ATOM      5  C   UNL     1       6.654   4.469  16.021  0.00  0.00    +0.000 C 
ENDROOT
BRANCH   1   8
ATOM      6  O   UNL     1       6.105   8.125  16.934  0.00  0.00    +0.000 OA
ATOM      7  C   UNL     1       7.153   7.675  17.404  0.00  0.00    +0.000 C 
ATOM      8  N   UNL     1       7.300   6.311  17.640  0.00  0.00    +0.000 N 
ATOM      9  H   UNL     1       8.205   5.954  17.921  0.00  0.00    +0.000 HD
BRANCH   7  10
ATOM     10  C   UNL     1       8.395   8.552  17.723  0.00  0.00    +0.000 C 
ATOM     11  C   UNL     1       8.154  10.091  17.757  0.00  0.00    +0.000 C 
ATOM     12  C   UNL     1       9.136  10.164  18.938  0.00  0.00    +0.000 C 
ATOM     13  C   UNL     1       8.811   8.684  19.216  0.00  0.00    +0.000 C 
ENDBRANCH   7  10
ENDBRANCH   1   8
BRANCH   3  14
ATOM     14  C   UNL     1       3.593   4.018  17.343  0.00  0.00    +0.000 C 
BRANCH  14  15
ATOM     15  C   UNL     1       2.735   3.929  18.593  0.00  0.00    +0.000 A 
ATOM     16  C   UNL     1       2.280   2.651  18.978  0.00  0.00    +0.000 A 
ATOM     17  C   UNL     1       1.467   2.466  20.095  0.00  0.00    +0.000 A 
ATOM     18  C   UNL     1       1.115   3.556  20.878  0.00  0.00    +0.000 A 
ATOM     19  C   UNL     1       1.534   4.833  20.506  0.00  0.00    +0.000 A 
ATOM     20  C   UNL     1       2.308   5.050  19.342  0.00  0.00    +0.000 A 
BRANCH  20  21
ATOM     21  C   UNL     1       2.542   6.494  18.953  0.00  0.00    +0.000 C 
ATOM     22  F   UNL     1       3.828   6.854  18.708  0.00  0.00    +0.000 F 
ATOM     23  F   UNL     1       1.872   6.800  17.800  0.00  0.00    +0.000 F 
ATOM     24  F   UNL     1       2.066   7.374  19.881  0.00  0.00    +0.000 F 
ENDBRANCH  20  21
ENDBRANCH  14  15
ENDBRANCH   3  14
BRANCH   5  25
ATOM     25  C   UNL     1       6.625   5.135  14.650  0.00  0.00    +0.000 C 
BRANCH  25  26
ATOM     26  O   UNL     1       5.733   6.243  14.651  0.00  0.00    +0.000 OA
ATOM     27  H   UNL     1       4.992   6.038  14.061  0.00  0.00    +0.000 HD
ENDBRANCH  25  26
ENDBRANCH   5  25
TORSDOF 7
ENDMDL
MODEL 7
REMARK VINA RESULT:      -7.8      3.275      7.495
REMARK  Name = 
REMARK  7 active torsions:
REMARK  status: ('A' for Active; 'I' for Inactive)
REMARK    1  A    between atoms: C_2  and  C_22
REMARK    2  A    between atoms: N_3  and  C_4
REMARK    3  A    between atoms: N_6  and  C_7
REMARK    4  A    between atoms: C_7  and  C_8
REMARK    5  A    between atoms: C_13  and  C_14
REMARK    6  A    between atoms: C_19  and  C_20
REMARK    7  A    between atoms: C_20  and  O_21
REMARK                            x       y       z     vdW  Elec       q    Type
REMARK                         _______ _______ _______ _____ _____    ______ ____
ROOT
ATOM      1  C   UNL     1       3.333   5.141  18.234  0.00  0.00    +0.000 C 
ATOM      2  C   UNL     1       3.872   6.075  19.332  0.00  0.00    +0.000 C 
ATOM      3  N   UNL     1       2.669   6.466  20.109  0.00  0.00    +0.000 NA
ATOM      4  C   UNL     1       1.870   5.220  20.158  0.00  0.00    +0.000 C 
ATOM      5  C   UNL     1       2.407   4.258  19.069  0.00  0.00    +0.000 C 
ENDROOT
BRANCH   1   8
ATOM      6  O   UNL     1       4.746   6.336  16.214  0.00  0.00    +0.000 OA
ATOM      7  C   UNL     1       4.968   5.138  16.409  0.00  0.00    +0.000 C 
ATOM      8  N   UNL     1       4.362   4.463  17.465  0.00  0.00    +0.000 N 
ATOM      9  H   UNL     1       4.473   3.460  17.538  0.00  0.00    +0.000 HD
BRANCH   7  10
ATOM     10  C   UNL     1       5.880   4.276  15.493  0.00  0.00    +0.000 C 
ATOM     11  C   UNL     1       5.398   4.098  14.022  0.00  0.00    +0.000 C 
ATOM     12  C   UNL     1       6.869   4.191  13.586  0.00  0.00    +0.000 C 
ATOM     13  C   UNL     1       7.141   4.960  14.892  0.00  0.00    +0.000 C 
ENDBRANCH   7  10
ENDBRANCH   1   8
BRANCH   3  14
ATOM     14  C   UNL     1       1.992   7.579  19.404  0.00  0.00    +0.000 C 
BRANCH  14  15
ATOM     15  C   UNL     1       1.317   8.610  20.293  0.00  0.00    +0.000 A 
ATOM     16  C   UNL     1       1.147   8.282  21.654  0.00  0.00    +0.000 A 
ATOM     17  C   UNL     1       0.517   9.149  22.545  0.00  0.00    +0.000 A 
ATOM     18  C   UNL     1       0.068  10.384  22.102  0.00  0.00    +0.000 A 
ATOM     19  C   UNL     1       0.204  10.723  20.757  0.00  0.00    +0.000 A 
ATOM     20  C   UNL     1       0.785   9.833  19.823  0.00  0.00    +0.000 A 
BRANCH  20  21
ATOM     21  C   UNL     1       0.708  10.245  18.368  0.00  0.00    +0.000 C 
ATOM     22  F   UNL     1      -0.002   9.430  17.546  0.00  0.00    +0.000 F 
ATOM     23  F   UNL     1       0.108  11.469  18.243  0.00  0.00    +0.000 F 
ATOM     24  F   UNL     1       1.937  10.394  17.796  0.00  0.00    +0.000 F 
ENDBRANCH  20  21
ENDBRANCH  14  15
ENDBRANCH   3  14
BRANCH   5  25
ATOM     25  C   UNL     1       1.299   3.592  18.263  0.00  0.00    +0.000 C 
BRANCH  25  26
ATOM     26  O   UNL     1       1.847   2.808  17.210  0.00  0.00    +0.000 OA
ATOM     27  H   UNL     1       1.199   2.769  16.491  0.00  0.00    +0.000 HD
ENDBRANCH  25  26
ENDBRANCH   5  25
TORSDOF 7
ENDMDL
MODEL 8
REMARK VINA RESULT:      -7.7      1.703      2.150
REMARK  Name = 
REMARK  7 active torsions:
REMARK  status: ('A' for Active; 'I' for Inactive)
REMARK    1  A    between atoms: C_2  and  C_22
REMARK    2  A    between atoms: N_3  and  C_4
REMARK    3  A    between atoms: N_6  and  C_7
REMARK    4  A    between atoms: C_7  and  C_8
REMARK    5  A    between atoms: C_13  and  C_14
REMARK    6  A    between atoms: C_19  and  C_20
REMARK    7  A    between atoms: C_20  and  O_21
REMARK                            x       y       z     vdW  Elec       q    Type
REMARK                         _______ _______ _______ _____ _____    ______ ____
ROOT
ATOM      1  C   UNL     1       2.717   5.370  18.577  0.00  0.00    +0.000 C 
ATOM      2  C   UNL     1       2.974   4.470  17.356  0.00  0.00    +0.000 C 
ATOM      3  N   UNL     1       3.636   3.265  17.916  0.00  0.00    +0.000 NA
ATOM      4  C   UNL     1       2.920   3.040  19.192  0.00  0.00    +0.000 C 
ATOM      5  C   UNL     1       2.155   4.338  19.552  0.00  0.00    +0.000 C 
ENDROOT
BRANCH   1   8
ATOM      6  O   UNL     1       3.721   7.812  17.846  0.00  0.00    +0.000 OA
ATOM      7  C   UNL     1       2.501   7.745  18.013  0.00  0.00    +0.000 C 
ATOM      8  N   UNL     1       1.887   6.529  18.304  0.00  0.00    +0.000 N 
ATOM      9  H   UNL     1       0.904   6.519  18.545  0.00  0.00    +0.000 HD
BRANCH   7  10
ATOM     10  C   UNL     1       1.561   8.980  17.967  0.00  0.00    +0.000 C 
ATOM     11  C   UNL     1       0.973   9.442  19.333  0.00  0.00    +0.000 C 
ATOM     12  C   UNL     1       1.136  10.893  18.852  0.00  0.00    +0.000 C 
ATOM     13  C   UNL     1       2.228  10.384  17.892  0.00  0.00    +0.000 C 
ENDBRANCH   7  10
ENDBRANCH   1   8
BRANCH   3  14
ATOM     14  C   UNL     1       5.079   3.555  18.085  0.00  0.00    +0.000 C 
BRANCH  14  15
ATOM     15  C   UNL     1       5.790   4.109  16.862  0.00  0.00    +0.000 A 
ATOM     16  C   UNL     1       5.542   3.478  15.626  0.00  0.00    +0.000 A 
ATOM     17  C   UNL     1       6.165   3.895  14.451  0.00  0.00    +0.000 A 
ATOM     18  C   UNL     1       7.028   4.980  14.477  0.00  0.00    +0.000 A 
ATOM     19  C   UNL     1       7.307   5.607  15.691  0.00  0.00    +0.000 A 
ATOM     20  C   UNL     1       6.734   5.161  16.905  0.00  0.00    +0.000 A 
BRANCH  20  21
ATOM     21  C   UNL     1       7.257   5.809  18.169  0.00  0.00    +0.000 C 
ATOM     22  F   UNL     1       8.189   5.109  18.866  0.00  0.00    +0.000 F 
ATOM     23  F   UNL     1       7.861   7.003  17.887  0.00  0.00    +0.000 F 
ATOM     24  F   UNL     1       6.264   6.116  19.054  0.00  0.00    +0.000 F 
ENDBRANCH  20  21
ENDBRANCH  14  15
ENDBRANCH   3  14
BRANCH   5  25
ATOM     25  C   UNL     1       2.303   4.729  21.018  0.00  0.00    +0.000 C 
BRANCH  25  26
ATOM     26  O   UNL     1       2.078   6.124  21.189  0.00  0.00    +0.000 OA
ATOM     27  H   UNL     1       2.408   6.583  20.403  0.00  0.00    +0.000 HD
ENDBRANCH  25  26
ENDBRANCH   5  25
TORSDOF 7
ENDMDL
MODEL 9
REMARK VINA RESULT:      -7.7      3.098      5.494
REMARK  Name = 
REMARK  7 active torsions:
REMARK  status: ('A' for Active; 'I' for Inactive)
REMARK    1  A    between atoms: C_2  and  C_22
REMARK    2  A    between atoms: N_3  and  C_4
REMARK    3  A    between atoms: N_6  and  C_7
REMARK    4  A    between atoms: C_7  and  C_8
REMARK    5  A    between atoms: C_13  and  C_14
REMARK    6  A    between atoms: C_19  and  C_20
REMARK    7  A    between atoms: C_20  and  O_21
REMARK                            x       y       z     vdW  Elec       q    Type
REMARK                         _______ _______ _______ _____ _____    ______ ____
ROOT
ATOM      1  C   UNL     1       4.350   6.032  17.815  0.00  0.00    +0.000 C 
ATOM      2  C   UNL     1       4.695   5.481  19.209  0.00  0.00    +0.000 C 
ATOM      3  N   UNL     1       5.443   4.228  18.937  0.00  0.00    +0.000 NA
ATOM      4  C   UNL     1       6.276   4.572  17.762  0.00  0.00    +0.000 C 
ATOM      5  C   UNL     1       5.698   5.858  17.120  0.00  0.00    +0.000 C 
ENDROOT
BRANCH   1   8
ATOM      6  O   UNL     1       2.289   6.800  19.449  0.00  0.00    +0.000 OA
ATOM      7  C   UNL     1       2.691   7.638  18.638  0.00  0.00    +0.000 C 
ATOM      8  N   UNL     1       3.788   7.371  17.823  0.00  0.00    +0.000 N 
ATOM      9  H   UNL     1       4.030   8.028  17.091  0.00  0.00    +0.000 HD
BRANCH   7  10
ATOM     10  C   UNL     1       2.006   9.014  18.416  0.00  0.00    +0.000 C 
ATOM     11  C   UNL     1       0.727   9.004  17.526  0.00  0.00    +0.000 C 
ATOM     12  C   UNL     1       0.130  10.065  18.465  0.00  0.00    +0.000 C 
ATOM     13  C   UNL     1       1.088   9.547  19.554  0.00  0.00    +0.000 C 
ENDBRANCH   7  10
ENDBRANCH   1   8
BRANCH   3  14
ATOM     14  C   UNL     1       4.469   3.142  18.679  0.00  0.00    +0.000 C 
BRANCH  14  15
ATOM     15  C   UNL     1       3.284   3.079  19.628  0.00  0.00    +0.000 A 
ATOM     16  C   UNL     1       3.535   2.665  20.952  0.00  0.00    +0.000 A 
ATOM     17  C   UNL     1       2.511   2.550  21.892  0.00  0.00    +0.000 A 
ATOM     18  C   UNL     1       1.212   2.880  21.537  0.00  0.00    +0.000 A 
ATOM     19  C   UNL     1       0.934   3.271  20.228  0.00  0.00    +0.000 A 
ATOM     20  C   UNL     1       1.948   3.335  19.243  0.00  0.00    +0.000 A 
BRANCH  20  21
ATOM     21  C   UNL     1       1.487   3.595  17.825  0.00  0.00    +0.000 C 
ATOM     22  F   UNL     1       2.207   3.004  16.837  0.00  0.00    +0.000 F 
ATOM     23  F   UNL     1       0.210   3.140  17.639  0.00  0.00    +0.000 F 
ATOM     24  F   UNL     1       1.435   4.924  17.522  0.00  0.00    +0.000 F 
ENDBRANCH  20  21
ENDBRANCH  14  15
ENDBRANCH   3  14
BRANCH   5  25
ATOM     25  C   UNL     1       5.603   5.774  15.601  0.00  0.00    +0.000 C 
BRANCH  25  26
ATOM     26  O   UNL     1       5.103   6.992  15.063  0.00  0.00    +0.000 OA
ATOM     27  H   UNL     1       4.914   7.595  15.798  0.00  0.00    +0.000 HD
ENDBRANCH  25  26
ENDBRANCH   5  25
TORSDOF 7
ENDMDL
