MODEL 1
REMARK VINA RESULT:      -7.4      0.000      0.000
REMARK  Name = 
REMARK  3 active torsions:
REMARK  status: ('A' for Active; 'I' for Inactive)
REMARK    1  A    between atoms: C_1  and  C_2
REMARK    2  A    between atoms: C_2  and  C_3
REMARK    3  A    between atoms: C_2  and  N_4
REMARK                            x       y       z     vdW  Elec       q    Type
REMARK                         _______ _______ _______ _____ _____    ______ ____
ROOT
ATOM      1  N   UNL     1       6.433   5.197  14.696  0.00  0.00    +0.000 N 
ATOM      2  C   UNL     1       5.616   4.961  15.770  0.00  0.00    +0.000 A 
ATOM      3  N   UNL     1       5.317   3.776  16.203  0.00  0.00    +0.000 NA
ATOM      4  C   UNL     1       4.441   3.749  17.225  0.00  0.00    +0.000 A 
ATOM      5  S   UNL     1       3.924   2.291  17.939  0.00  0.00    +0.000 S 
ATOM      6  C   UNL     1       2.905   3.119  19.025  0.00  0.00    +0.000 A 
ATOM      7  C   UNL     1       2.925   4.489  18.832  0.00  0.00    +0.000 A 
ATOM      8  C   UNL     1       3.850   4.844  17.799  0.00  0.00    +0.000 A 
ATOM      9  C   UNL     1       4.238   6.136  17.285  0.00  0.00    +0.000 A 
ATOM     10  O   UNL     1       3.782   7.188  17.724  0.00  0.00    +0.000 OA
ATOM     11  O   UNL     1       5.148   6.142  16.263  0.00  0.00    +0.000 OA
ATOM     12  C   UNL     1       2.089   5.418  19.664  0.00  0.00    +0.000 C 
ATOM     13  C   UNL     1       0.984   4.663  20.423  0.00  0.00    +0.000 C 
ATOM     14  C   UNL     1       1.525   3.386  21.082  0.00  0.00    +0.000 C 
ATOM     15  C   UNL     1       2.067   2.399  20.036  0.00  0.00    +0.000 C 
ATOM     16  H   UNL     1       6.416   6.163  14.387  0.00  0.00    +0.000 HD
ENDROOT
BRANCH   1  18
ATOM     17  C   UNL     1       5.199   3.917  13.021  0.00  0.00    +0.000 C 
ATOM     18  C   UNL     1       6.571   4.218  13.624  0.00  0.00    +0.000 C 
ATOM     19  C   UNL     1       7.506   4.765  12.548  0.00  0.00    +0.000 C 
ENDBRANCH   1  18
TORSDOF 1
ENDMDL
MODEL 2
REMARK VINA RESULT:      -7.1      1.582      1.802
REMARK  Name = 
REMARK  3 active torsions:
REMARK  status: ('A' for Active; 'I' for Inactive)
REMARK    1  A    between atoms: C_1  and  C_2
REMARK    2  A    between atoms: C_2  and  C_3
REMARK    3  A    between atoms: C_2  and  N_4
REMARK                            x       y       z     vdW  Elec       q    Type
REMARK                         _______ _______ _______ _____ _____    ______ ____
ROOT
ATOM      1  N   UNL     1       7.205   4.624  15.331  0.00  0.00    +0.000 N 
ATOM      2  C   UNL     1       6.253   4.367  16.282  0.00  0.00    +0.000 A 
ATOM      3  N   UNL     1       5.083   3.875  16.017  0.00  0.00    +0.000 NA
ATOM      4  C   UNL     1       4.262   3.763  17.079  0.00  0.00    +0.000 A 
ATOM      5  S   UNL     1       2.683   3.136  16.943  0.00  0.00    +0.000 S 
ATOM      6  C   UNL     1       2.389   3.365  18.605  0.00  0.00    +0.000 A 
ATOM      7  C   UNL     1       3.462   3.943  19.260  0.00  0.00    +0.000 A 
ATOM      8  C   UNL     1       4.559   4.140  18.362  0.00  0.00    +0.000 A 
ATOM      9  C   UNL     1       5.884   4.664  18.595  0.00  0.00    +0.000 A 
ATOM     10  O   UNL     1       6.267   5.027  19.703  0.00  0.00    +0.000 OA
ATOM     11  O   UNL     1       6.711   4.746  17.507  0.00  0.00    +0.000 OA
ATOM     12  C   UNL     1       3.419   4.254  20.728  0.00  0.00    +0.000 C 
ATOM     13  C   UNL     1       1.981   4.224  21.274  0.00  0.00    +0.000 C 
ATOM     14  C   UNL     1       1.213   2.994  20.770  0.00  0.00    +0.000 C 
ATOM     15  C   UNL     1       1.081   3.000  19.239  0.00  0.00    +0.000 C 
ATOM     16  H   UNL     1       7.984   5.167  15.683  0.00  0.00    +0.000 HD
ENDROOT
BRANCH   1  18
ATOM     17  C   UNL     1       8.050   5.439  13.188  0.00  0.00    +0.000 C 
ATOM     18  C   UNL     1       6.832   4.918  13.951  0.00  0.00    +0.000 C 
ATOM     19  C   UNL     1       6.300   3.652  13.283  0.00  0.00    +0.000 C 
ENDBRANCH   1  18
TORSDOF 1
ENDMDL
MODEL 3
REMARK VINA RESULT:      -7.0      3.227      4.419
REMARK  Name = 
REMARK  3 active torsions:
REMARK  status: ('A' for Active; 'I' for Inactive)
REMARK    1  A    between atoms: C_1  and  C_2
REMARK    2  A    between atoms: C_2  and  C_3
REMARK    3  A    between atoms: C_2  and  N_4
REMARK                            x       y       z     vdW  Elec       q    Type
REMARK                         _______ _______ _______ _____ _____    ______ ____
ROOT
ATOM      1  N   UNL     1       5.007   4.263  17.320  0.00  0.00    +0.000 N 
ATOM      2  C   UNL     1       4.139   5.136  17.920  0.00  0.00    +0.000 A 
ATOM      3  N   UNL     1       3.842   6.302  17.438  0.00  0.00    +0.000 NA
ATOM      4  C   UNL     1       3.024   7.044  18.210  0.00  0.00    +0.000 A 
ATOM      5  S   UNL     1       2.512   8.603  17.754  0.00  0.00    +0.000 S 
ATOM      6  C   UNL     1       1.616   8.790  19.191  0.00  0.00    +0.000 A 
ATOM      7  C   UNL     1       1.726   7.697  20.032  0.00  0.00    +0.000 A 
ATOM      8  C   UNL     1       2.526   6.673  19.431  0.00  0.00    +0.000 A 
ATOM      9  C   UNL     1       2.879   5.355  19.904  0.00  0.00    +0.000 A 
ATOM     10  O   UNL     1       2.487   4.910  20.979  0.00  0.00    +0.000 OA
ATOM     11  O   UNL     1       3.690   4.609  19.092  0.00  0.00    +0.000 OA
ATOM     12  C   UNL     1       1.036   7.649  21.364  0.00  0.00    +0.000 C 
ATOM     13  C   UNL     1       0.562   9.044  21.809  0.00  0.00    +0.000 C 
ATOM     14  C   UNL     1      -0.124   9.798  20.661  0.00  0.00    +0.000 C 
ATOM     15  C   UNL     1       0.839  10.036  19.487  0.00  0.00    +0.000 C 
ATOM     16  H   UNL     1       5.261   3.482  17.914  0.00  0.00    +0.000 HD
ENDROOT
BRANCH   1  18
ATOM     17  C   UNL     1       7.423   4.597  17.168  0.00  0.00    +0.000 C 
ATOM     18  C   UNL     1       6.079   4.741  16.454  0.00  0.00    +0.000 C 
ATOM     19  C   UNL     1       6.089   3.933  15.157  0.00  0.00    +0.000 C 
ENDBRANCH   1  18
TORSDOF 1
ENDMDL
MODEL 4
REMARK VINA RESULT:      -6.9      1.315      1.553
REMARK  Name = 
REMARK  3 active torsions:
REMARK  status: ('A' for Active; 'I' for Inactive)
REMARK    1  A    between atoms: C_1  and  C_2
REMARK    2  A    between atoms: C_2  and  C_3
REMARK    3  A    between atoms: C_2  and  N_4
REMARK                            x       y       z     vdW  Elec       q    Type
REMARK                         _______ _______ _______ _____ _____    ______ ____
ROOT
ATOM      1  N   UNL     1       6.504   4.247  13.500  0.00  0.00    +0.000 N 
ATOM      2  C   UNL     1       5.849   4.461  14.683  0.00  0.00    +0.000 A 
ATOM      3  N   UNL     1       5.251   3.528  15.357  0.00  0.00    +0.000 NA
ATOM      4  C   UNL     1       4.602   3.950  16.458  0.00  0.00    +0.000 A 
ATOM      5  S   UNL     1       3.758   2.880  17.481  0.00  0.00    +0.000 S 
ATOM      6  C   UNL     1       3.271   4.152  18.503  0.00  0.00    +0.000 A 
ATOM      7  C   UNL     1       3.712   5.387  18.062  0.00  0.00    +0.000 A 
ATOM      8  C   UNL     1       4.514   5.249  16.885  0.00  0.00    +0.000 A 
ATOM      9  C   UNL     1       5.216   6.239  16.102  0.00  0.00    +0.000 A 
ATOM     10  O   UNL     1       5.217   7.433  16.390  0.00  0.00    +0.000 OA
ATOM     11  O   UNL     1       5.890   5.785  15.001  0.00  0.00    +0.000 OA
ATOM     12  C   UNL     1       3.385   6.654  18.798  0.00  0.00    +0.000 C 
ATOM     13  C   UNL     1       2.237   6.448  19.801  0.00  0.00    +0.000 C 
ATOM     14  C   UNL     1       2.426   5.162  20.618  0.00  0.00    +0.000 C 
ATOM     15  C   UNL     1       2.424   3.917  19.717  0.00  0.00    +0.000 C 
ATOM     16  H   UNL     1       6.757   5.105  13.024  0.00  0.00    +0.000 HD
ENDROOT
BRANCH   1  18
ATOM     17  C   UNL     1       4.808   3.480  11.918  0.00  0.00    +0.000 C 
ATOM     18  C   UNL     1       6.126   3.149  12.617  0.00  0.00    +0.000 C 
ATOM     19  C   UNL     1       7.224   2.925  11.580  0.00  0.00    +0.000 C 
ENDBRANCH   1  18
TORSDOF 1
ENDMDL
MODEL 5
REMARK VINA RESULT:      -6.3      4.894      7.133
REMARK  Name = 
REMARK  3 active torsions:
REMARK  status: ('A' for Active; 'I' for Inactive)
REMARK    1  A    between atoms: C_1  and  C_2
REMARK    2  A    between atoms: C_2  and  C_3
REMARK    3  A    between atoms: C_2  and  N_4
REMARK                            x       y       z     vdW  Elec       q    Type
REMARK                         _______ _______ _______ _____ _____    ______ ____
ROOT
ATOM      1  N   UNL     1       2.302   4.857  19.786  0.00  0.00    +0.000 N 
ATOM      2  C   UNL     1       2.050   6.203  19.833  0.00  0.00    +0.000 A 
ATOM      3  N   UNL     1       1.502   6.799  20.845  0.00  0.00    +0.000 NA
ATOM      4  C   UNL     1       1.272   8.115  20.672  0.00  0.00    +0.000 A 
ATOM      5  S   UNL     1       0.561   9.079  21.885  0.00  0.00    +0.000 S 
ATOM      6  C   UNL     1       0.619  10.464  20.894  0.00  0.00    +0.000 A 
ATOM      7  C   UNL     1       1.140  10.200  19.640  0.00  0.00    +0.000 A 
ATOM      8  C   UNL     1       1.545   8.830  19.537  0.00  0.00    +0.000 A 
ATOM      9  C   UNL     1       2.173   8.114  18.452  0.00  0.00    +0.000 A 
ATOM     10  O   UNL     1       2.472   8.650  17.389  0.00  0.00    +0.000 OA
ATOM     11  O   UNL     1       2.421   6.783  18.658  0.00  0.00    +0.000 OA
ATOM     12  C   UNL     1       1.268  11.269  18.594  0.00  0.00    +0.000 C 
ATOM     13  C   UNL     1       0.425  12.508  18.942  0.00  0.00    +0.000 C 
ATOM     14  C   UNL     1       0.593  12.908  20.414  0.00  0.00    +0.000 C 
ATOM     15  C   UNL     1       0.114  11.795  21.359  0.00  0.00    +0.000 C 
ATOM     16  H   UNL     1       2.566   4.533  18.863  0.00  0.00    +0.000 HD
ENDROOT
BRANCH   1  18
ATOM     17  C   UNL     1       0.759   2.971  19.605  0.00  0.00    +0.000 C 
ATOM     18  C   UNL     1       1.499   3.913  20.555  0.00  0.00    +0.000 C 
ATOM     19  C   UNL     1       2.405   3.109  21.485  0.00  0.00    +0.000 C 
ENDBRANCH   1  18
TORSDOF 1
ENDMDL
MODEL 6
REMARK VINA RESULT:      -6.2      4.793      6.296
REMARK  Name = 
REMARK  3 active torsions:
REMARK  status: ('A' for Active; 'I' for Inactive)
REMARK    1  A    between atoms: C_1  and  C_2
REMARK    2  A    between atoms: C_2  and  C_3
REMARK    3  A    between atoms: C_2  and  N_4
REMARK                            x       y       z     vdW  Elec       q    Type
REMARK                         _______ _______ _______ _____ _____    ______ ____
ROOT
ATOM      1  N   UNL     1       3.314   5.978  18.008  0.00  0.00    +0.000 N 
ATOM      2  C   UNL     1       2.695   7.038  18.615  0.00  0.00    +0.000 A 
ATOM      3  N   UNL     1       2.210   6.999  19.817  0.00  0.00    +0.000 NA
ATOM      4  C   UNL     1       1.575   8.120  20.210  0.00  0.00    +0.000 A 
ATOM      5  S   UNL     1       0.871   8.270  21.755  0.00  0.00    +0.000 S 
ATOM      6  C   UNL     1       0.321   9.846  21.411  0.00  0.00    +0.000 A 
ATOM      7  C   UNL     1       0.635  10.250  20.126  0.00  0.00    +0.000 A 
ATOM      8  C   UNL     1       1.394   9.243  19.448  0.00  0.00    +0.000 A 
ATOM      9  C   UNL     1       1.973   9.232  18.125  0.00  0.00    +0.000 A 
ATOM     10  O   UNL     1       1.883  10.184  17.355  0.00  0.00    +0.000 OA
ATOM     11  O   UNL     1       2.636   8.093  17.755  0.00  0.00    +0.000 OA
ATOM     12  C   UNL     1       0.232  11.597  19.599  0.00  0.00    +0.000 C 
ATOM     13  C   UNL     1      -0.849  12.251  20.476  0.00  0.00    +0.000 C 
ATOM     14  C   UNL     1      -0.515  12.125  21.969  0.00  0.00    +0.000 C 
ATOM     15  C   UNL     1      -0.448  10.654  22.410  0.00  0.00    +0.000 C 
ATOM     16  H   UNL     1       3.471   6.123  17.017  0.00  0.00    +0.000 HD
ENDROOT
BRANCH   1  18
ATOM     17  C   UNL     1       1.658   4.200  17.757  0.00  0.00    +0.000 C 
ATOM     18  C   UNL     1       2.994   4.604  18.379  0.00  0.00    +0.000 C 
ATOM     19  C   UNL     1       4.100   3.671  17.891  0.00  0.00    +0.000 C 
ENDBRANCH   1  18
TORSDOF 1
ENDMDL
MODEL 7
REMARK VINA RESULT:      -6.2      8.088     10.761
REMARK  Name = 
REMARK  3 active torsions:
REMARK  status: ('A' for Active; 'I' for Inactive)
REMARK    1  A    between atoms: C_1  and  C_2
REMARK    2  A    between atoms: C_2  and  C_3
REMARK    3  A    between atoms: C_2  and  N_4
REMARK                            x       y       z     vdW  Elec       q    Type
REMARK                         _______ _______ _______ _____ _____    ______ ____
ROOT
ATOM      1  N   UNL     1      -2.594  12.886  23.228  0.00  0.00    +0.000 N 
ATOM      2  C   UNL     1      -1.744  12.112  22.485  0.00  0.00    +0.000 A 
ATOM      3  N   UNL     1      -1.676  12.153  21.191  0.00  0.00    +0.000 NA
ATOM      4  C   UNL     1      -0.829  11.263  20.639  0.00  0.00    +0.000 A 
ATOM      5  S   UNL     1      -0.593  11.158  18.954  0.00  0.00    +0.000 S 
ATOM      6  C   UNL     1       0.514   9.875  19.133  0.00  0.00    +0.000 A 
ATOM      7  C   UNL     1       0.684   9.500  20.454  0.00  0.00    +0.000 A 
ATOM      8  C   UNL     1      -0.083  10.340  21.323  0.00  0.00    +0.000 A 
ATOM      9  C   UNL     1      -0.189  10.357  22.763  0.00  0.00    +0.000 A 
ATOM     10  O   UNL     1       0.437   9.584  23.483  0.00  0.00    +0.000 OA
ATOM     11  O   UNL     1      -1.036  11.286  23.305  0.00  0.00    +0.000 OA
ATOM     12  C   UNL     1       1.599   8.376  20.846  0.00  0.00    +0.000 C 
ATOM     13  C   UNL     1       1.975   7.501  19.638  0.00  0.00    +0.000 C 
ATOM     14  C   UNL     1       2.354   8.355  18.420  0.00  0.00    +0.000 C 
ATOM     15  C   UNL     1       1.178   9.229  17.956  0.00  0.00    +0.000 C 
ATOM     16  H   UNL     1      -2.645  12.603  24.200  0.00  0.00    +0.000 HD
ENDROOT
BRANCH   1  18
ATOM     17  C   UNL     1      -5.014  12.943  23.565  0.00  0.00    +0.000 C 
ATOM     18  C   UNL     1      -3.851  13.374  22.671  0.00  0.00    +0.000 C 
ATOM     19  C   UNL     1      -3.809  14.897  22.569  0.00  0.00    +0.000 C 
ENDBRANCH   1  18
TORSDOF 1
ENDMDL
MODEL 8
REMARK VINA RESULT:      -6.2      3.989      7.070
REMARK  Name = 
REMARK  3 active torsions:
REMARK  status: ('A' for Active; 'I' for Inactive)
REMARK    1  A    between atoms: C_1  and  C_2
REMARK    2  A    between atoms: C_2  and  C_3
REMARK    3  A    between atoms: C_2  and  N_4
REMARK                            x       y       z     vdW  Elec       q    Type
REMARK                         _______ _______ _______ _____ _____    ______ ____
ROOT
ATOM      1  N   UNL     1       0.184   9.276  21.013  0.00  0.00    +0.000 N 
ATOM      2  C   UNL     1       1.012   8.514  20.231  0.00  0.00    +0.000 A 
ATOM      3  N   UNL     1       1.462   7.348  20.578  0.00  0.00    +0.000 NA
ATOM      4  C   UNL     1       2.320   6.789  19.705  0.00  0.00    +0.000 A 
ATOM      5  S   UNL     1       3.020   5.258  19.974  0.00  0.00    +0.000 S 
ATOM      6  C   UNL     1       3.904   5.345  18.520  0.00  0.00    +0.000 A 
ATOM      7  C   UNL     1       3.702   6.536  17.845  0.00  0.00    +0.000 A 
ATOM      8  C   UNL     1       2.751   7.355  18.534  0.00  0.00    +0.000 A 
ATOM      9  C   UNL     1       2.200   8.645  18.195  0.00  0.00    +0.000 A 
ATOM     10  O   UNL     1       2.504   9.247  17.169  0.00  0.00    +0.000 OA
ATOM     11  O   UNL     1       1.310   9.185  19.084  0.00  0.00    +0.000 OA
ATOM     12  C   UNL     1       4.395   6.839  16.549  0.00  0.00    +0.000 C 
ATOM     13  C   UNL     1       5.581   5.891  16.303  0.00  0.00    +0.000 C 
ATOM     14  C   UNL     1       5.209   4.432  16.604  0.00  0.00    +0.000 C 
ATOM     15  C   UNL     1       4.818   4.244  18.079  0.00  0.00    +0.000 C 
ATOM     16  H   UNL     1       0.075  10.224  20.672  0.00  0.00    +0.000 HD
ENDROOT
BRANCH   1  18
ATOM     17  C   UNL     1       1.604   9.403  22.997  0.00  0.00    +0.000 C 
ATOM     18  C   UNL     1       0.193   9.149  22.466  0.00  0.00    +0.000 C 
ATOM     19  C   UNL     1      -0.782  10.154  23.074  0.00  0.00    +0.000 C 
ENDBRANCH   1  18
TORSDOF 1
ENDMDL
MODEL 9
REMARK VINA RESULT:      -6.2      2.732      3.777
REMARK  Name = 
REMARK  3 active torsions:
REMARK  status: ('A' for Active; 'I' for Inactive)
REMARK    1  A    between atoms: C_1  and  C_2
REMARK    2  A    between atoms: C_2  and  C_3
REMARK    3  A    between atoms: C_2  and  N_4
REMARK                            x       y       z     vdW  Elec       q    Type
REMARK                         _______ _______ _______ _____ _____    ______ ____
ROOT
ATOM      1  N   UNL     1       7.034   7.474  16.944  0.00  0.00    +0.000 N 
ATOM      2  C   UNL     1       5.985   6.636  17.213  0.00  0.00    +0.000 A 
ATOM      3  N   UNL     1       5.095   6.865  18.128  0.00  0.00    +0.000 NA
ATOM      4  C   UNL     1       4.183   5.887  18.290  0.00  0.00    +0.000 A 
ATOM      5  S   UNL     1       2.929   5.997  19.438  0.00  0.00    +0.000 S 
ATOM      6  C   UNL     1       2.329   4.460  19.011  0.00  0.00    +0.000 A 
ATOM      7  C   UNL     1       3.088   3.847  18.030  0.00  0.00    +0.000 A 
ATOM      8  C   UNL     1       4.148   4.706  17.597  0.00  0.00    +0.000 A 
ATOM      9  C   UNL     1       5.155   4.519  16.579  0.00  0.00    +0.000 A 
ATOM     10  O   UNL     1       5.219   3.505  15.889  0.00  0.00    +0.000 OA
ATOM     11  O   UNL     1       6.057   5.535  16.414  0.00  0.00    +0.000 OA
ATOM     12  C   UNL     1       2.755   2.478  17.512  0.00  0.00    +0.000 C 
ATOM     13  C   UNL     1       1.776   1.741  18.442  0.00  0.00    +0.000 C 
ATOM     14  C   UNL     1       0.621   2.652  18.880  0.00  0.00    +0.000 C 
ATOM     15  C   UNL     1       1.130   3.862  19.680  0.00  0.00    +0.000 C 
ATOM     16  H   UNL     1       7.726   7.061  16.329  0.00  0.00    +0.000 HD
ENDROOT
BRANCH   1  18
ATOM     17  C   UNL     1       8.513   7.558  18.887  0.00  0.00    +0.000 C 
ATOM     18  C   UNL     1       7.581   8.352  17.972  0.00  0.00    +0.000 C 
ATOM     19  C   UNL     1       8.348   9.497  17.314  0.00  0.00    +0.000 C 
ENDBRANCH   1  18
TORSDOF 1
ENDMDL
