MODEL 1
REMARK VINA RESULT:      -8.8      0.000      0.000
REMARK  Name = 
REMARK  6 active torsions:
REMARK  status: ('A' for Active; 'I' for Inactive)
REMARK    1  A    between atoms: C_1  and  N_2
REMARK    2  A    between atoms: C_7  and  C_8
REMARK    3  A    between atoms: N_14  and  N_15
REMARK    4  A    between atoms: N_15  and  C_16
REMARK    5  A    between atoms: C_19  and  N_20
REMARK    6  A    between atoms: C_24  and  N_25
REMARK                            x       y       z     vdW  Elec       q    Type
REMARK                         _______ _______ _______ _____ _____    ______ ____
ROOT
ATOM      1  C   UNL     1       3.941   4.613  17.604  0.00  0.00    +0.000 C 
ATOM      2  C   UNL     1       4.061   3.106  17.945  0.00  0.00    +0.000 C 
ATOM      3  C   UNL     1       2.710   2.385  17.792  0.00  0.00    +0.000 C 
ATOM      4  C   UNL     1       1.647   3.033  18.696  0.00  0.00    +0.000 C 
ATOM      5  C   UNL     1       1.455   4.508  18.324  0.00  0.00    +0.000 C 
ATOM      6  C   UNL     1       2.798   5.209  18.422  0.00  0.00    +0.000 C 
ATOM      7  N   UNL     1       3.040   6.222  19.190  0.00  0.00    +0.000 NA
ENDROOT
BRANCH   1  14
ATOM      8  C   UNL     1       5.040   6.770  15.822  0.00  0.00    +0.000 C 
ATOM      9  N   UNL     1       5.760   6.344  17.029  0.00  0.00    +0.000 N 
ATOM     10  C   UNL     1       6.938   6.983  17.327  0.00  0.00    +0.000 A 
ATOM     11  C   UNL     1       7.680   6.639  18.456  0.00  0.00    +0.000 A 
ATOM     12  C   UNL     1       7.224   5.630  19.288  0.00  0.00    +0.000 A 
ATOM     13  C   UNL     1       6.031   4.980  18.992  0.00  0.00    +0.000 A 
ATOM     14  C   UNL     1       5.279   5.342  17.853  0.00  0.00    +0.000 A 
ENDBRANCH   1  14
BRANCH   7  15
ATOM     15  N   UNL     1       2.148   6.889  20.002  0.00  0.00    +0.000 N 
ATOM     16  H   UNL     1       1.788   6.430  20.837  0.00  0.00    +0.000 HD
BRANCH  15  17
ATOM     17  C   UNL     1       1.777   8.233  19.655  0.00  0.00    +0.000 A 
ATOM     18  C   UNL     1       2.201   8.715  18.397  0.00  0.00    +0.000 A 
ATOM     19  C   UNL     1       1.944  10.007  17.974  0.00  0.00    +0.000 A 
ATOM     20  C   UNL     1       1.240  10.892  18.788  0.00  0.00    +0.000 A 
ATOM     21  C   UNL     1       0.785  10.439  20.038  0.00  0.00    +0.000 A 
ATOM     22  C   UNL     1       1.029   9.122  20.504  0.00  0.00    +0.000 A 
BRANCH  20  23
ATOM     23  N   UNL     1       0.996  12.228  18.353  0.00  0.00    +0.000 N 
ATOM     24  O   UNL     1       1.901  12.982  18.165  0.00  0.00    +0.000 OA
ATOM     25  O   UNL     1      -0.236  12.657  18.175  0.00  0.00    +0.000 OA
ENDBRANCH  20  23
BRANCH  22  26
ATOM     26  N   UNL     1       0.506   8.766  21.797  0.00  0.00    +0.000 N 
ATOM     27  O   UNL     1      -0.427   8.038  21.922  0.00  0.00    +0.000 OA
ATOM     28  O   UNL     1       1.031   9.291  22.885  0.00  0.00    +0.000 OA
ENDBRANCH  22  26
ENDBRANCH  15  17
ENDBRANCH   7  15
TORSDOF 5
ENDMDL
MODEL 2
REMARK VINA RESULT:      -8.8      4.265      6.906
REMARK  Name = 
REMARK  6 active torsions:
REMARK  status: ('A' for Active; 'I' for Inactive)
REMARK    1  A    between atoms: C_1  and  N_2
REMARK    2  A    between atoms: C_7  and  C_8
REMARK    3  A    between atoms: N_14  and  N_15
REMARK    4  A    between atoms: N_15  and  C_16
REMARK    5  A    between atoms: C_19  and  N_20
REMARK    6  A    between atoms: C_24  and  N_25
REMARK                            x       y       z     vdW  Elec       q    Type
REMARK                         _______ _______ _______ _____ _____    ______ ____
ROOT
ATOM      1  C   UNL     1       2.247   5.242  20.191  0.00  0.00    +0.000 C 
ATOM      2  C   UNL     1       1.039   4.361  19.783  0.00  0.00    +0.000 C 
ATOM      3  C   UNL     1       1.124   2.962  20.418  0.00  0.00    +0.000 C 
ATOM      4  C   UNL     1       2.431   2.261  20.010  0.00  0.00    +0.000 C 
ATOM      5  C   UNL     1       3.643   3.079  20.473  0.00  0.00    +0.000 C 
ATOM      6  C   UNL     1       3.534   4.476  19.892  0.00  0.00    +0.000 C 
ATOM      7  N   UNL     1       4.420   5.020  19.121  0.00  0.00    +0.000 NA
ENDROOT
BRANCH   1  14
ATOM      8  C   UNL     1       1.146   7.754  21.422  0.00  0.00    +0.000 C 
ATOM      9  N   UNL     1       1.703   7.757  20.063  0.00  0.00    +0.000 N 
ATOM     10  C   UNL     1       1.726   8.951  19.386  0.00  0.00    +0.000 A 
ATOM     11  C   UNL     1       2.240   9.038  18.094  0.00  0.00    +0.000 A 
ATOM     12  C   UNL     1       2.731   7.898  17.478  0.00  0.00    +0.000 A 
ATOM     13  C   UNL     1       2.712   6.686  18.159  0.00  0.00    +0.000 A 
ATOM     14  C   UNL     1       2.199   6.608  19.473  0.00  0.00    +0.000 A 
ENDBRANCH   1  14
BRANCH   7  15
ATOM     15  N   UNL     1       5.631   4.488  18.733  0.00  0.00    +0.000 N 
ATOM     16  H   UNL     1       6.200   3.985  19.413  0.00  0.00    +0.000 HD
BRANCH  15  17
ATOM     17  C   UNL     1       6.038   4.636  17.363  0.00  0.00    +0.000 A 
ATOM     18  C   UNL     1       5.501   3.725  16.428  0.00  0.00    +0.000 A 
ATOM     19  C   UNL     1       5.855   3.740  15.091  0.00  0.00    +0.000 A 
ATOM     20  C   UNL     1       6.767   4.678  14.611  0.00  0.00    +0.000 A 
ATOM     21  C   UNL     1       7.307   5.613  15.510  0.00  0.00    +0.000 A 
ATOM     22  C   UNL     1       6.966   5.628  16.887  0.00  0.00    +0.000 A 
BRANCH  20  23
ATOM     23  N   UNL     1       7.143   4.675  13.235  0.00  0.00    +0.000 N 
ATOM     24  O   UNL     1       6.708   3.853  12.487  0.00  0.00    +0.000 OA
ATOM     25  O   UNL     1       7.994   5.567  12.774  0.00  0.00    +0.000 OA
ENDBRANCH  20  23
BRANCH  22  26
ATOM     26  N   UNL     1       7.574   6.638  17.712  0.00  0.00    +0.000 N 
ATOM     27  O   UNL     1       7.930   6.414  18.826  0.00  0.00    +0.000 OA
ATOM     28  O   UNL     1       7.702   7.869  17.259  0.00  0.00    +0.000 OA
ENDBRANCH  22  26
ENDBRANCH  15  17
ENDBRANCH   7  15
TORSDOF 5
ENDMDL
MODEL 3
REMARK VINA RESULT:      -8.4      4.202      6.794
REMARK  Name = 
REMARK  6 active torsions:
REMARK  status: ('A' for Active; 'I' for Inactive)
REMARK    1  A    between atoms: C_1  and  N_2
REMARK    2  A    between atoms: C_7  and  C_8
REMARK    3  A    between atoms: N_14  and  N_15
REMARK    4  A    between atoms: N_15  and  C_16
REMARK    5  A    between atoms: C_19  and  N_20
REMARK    6  A    between atoms: C_24  and  N_25
REMARK                            x       y       z     vdW  Elec       q    Type
REMARK                         _______ _______ _______ _____ _____    ______ ____
ROOT
ATOM      1  C   UNL     1       1.962   5.534  20.499  0.00  0.00    +0.000 C 
ATOM      2  C   UNL     1       0.797   4.604  20.079  0.00  0.00    +0.000 C 
ATOM      3  C   UNL     1       0.887   3.237  20.782  0.00  0.00    +0.000 C 
ATOM      4  C   UNL     1       2.229   2.554  20.465  0.00  0.00    +0.000 C 
ATOM      5  C   UNL     1       3.398   3.425  20.942  0.00  0.00    +0.000 C 
ATOM      6  C   UNL     1       3.280   4.791  20.292  0.00  0.00    +0.000 C 
ATOM      7  N   UNL     1       4.186   5.323  19.537  0.00  0.00    +0.000 NA
ENDROOT
BRANCH   1  14
ATOM      8  C   UNL     1       1.070   8.151  21.680  0.00  0.00    +0.000 C 
ATOM      9  N   UNL     1       1.514   8.063  20.283  0.00  0.00    +0.000 N 
ATOM     10  C   UNL     1       1.532   9.220  19.545  0.00  0.00    +0.000 A 
ATOM     11  C   UNL     1       1.943   9.221  18.214  0.00  0.00    +0.000 A 
ATOM     12  C   UNL     1       2.335   8.030  17.622  0.00  0.00    +0.000 A 
ATOM     13  C   UNL     1       2.320   6.855  18.364  0.00  0.00    +0.000 A 
ATOM     14  C   UNL     1       1.913   6.865  19.716  0.00  0.00    +0.000 A 
ENDBRANCH   1  14
BRANCH   7  15
ATOM     15  N   UNL     1       5.427   4.807  19.228  0.00  0.00    +0.000 N 
ATOM     16  H   UNL     1       6.039   4.487  19.978  0.00  0.00    +0.000 HD
BRANCH  15  17
ATOM     17  C   UNL     1       5.804   4.709  17.845  0.00  0.00    +0.000 A 
ATOM     18  C   UNL     1       6.971   5.395  17.444  0.00  0.00    +0.000 A 
ATOM     19  C   UNL     1       7.407   5.412  16.132  0.00  0.00    +0.000 A 
ATOM     20  C   UNL     1       6.698   4.734  15.142  0.00  0.00    +0.000 A 
ATOM     21  C   UNL     1       5.542   4.024  15.509  0.00  0.00    +0.000 A 
ATOM     22  C   UNL     1       5.067   3.983  16.844  0.00  0.00    +0.000 A 
BRANCH  20  23
ATOM     23  N   UNL     1       7.142   4.773  13.787  0.00  0.00    +0.000 N 
ATOM     24  O   UNL     1       6.675   4.037  12.972  0.00  0.00    +0.000 OA
ATOM     25  O   UNL     1       8.093   5.606  13.420  0.00  0.00    +0.000 OA
ENDBRANCH  20  23
BRANCH  22  26
ATOM     26  N   UNL     1       3.878   3.215  17.105  0.00  0.00    +0.000 N 
ATOM     27  O   UNL     1       2.791   3.626  16.844  0.00  0.00    +0.000 OA
ATOM     28  O   UNL     1       3.969   2.042  17.697  0.00  0.00    +0.000 OA
ENDBRANCH  22  26
ENDBRANCH  15  17
ENDBRANCH   7  15
TORSDOF 5
ENDMDL
MODEL 4
REMARK VINA RESULT:      -8.3      1.705      4.583
REMARK  Name = 
REMARK  6 active torsions:
REMARK  status: ('A' for Active; 'I' for Inactive)
REMARK    1  A    between atoms: C_1  and  N_2
REMARK    2  A    between atoms: C_7  and  C_8
REMARK    3  A    between atoms: N_14  and  N_15
REMARK    4  A    between atoms: N_15  and  C_16
REMARK    5  A    between atoms: C_19  and  N_20
REMARK    6  A    between atoms: C_24  and  N_25
REMARK                            x       y       z     vdW  Elec       q    Type
REMARK                         _______ _______ _______ _____ _____    ______ ____
ROOT
ATOM      1  C   UNL     1       4.227   4.554  17.786  0.00  0.00    +0.000 C 
ATOM      2  C   UNL     1       4.538   3.996  16.374  0.00  0.00    +0.000 C 
ATOM      3  C   UNL     1       5.659   4.795  15.687  0.00  0.00    +0.000 C 
ATOM      4  C   UNL     1       5.274   6.281  15.579  0.00  0.00    +0.000 C 
ATOM      5  C   UNL     1       5.037   6.876  16.972  0.00  0.00    +0.000 C 
ATOM      6  C   UNL     1       3.970   6.054  17.672  0.00  0.00    +0.000 C 
ATOM      7  N   UNL     1       2.850   6.532  18.112  0.00  0.00    +0.000 NA
ENDROOT
BRANCH   1  14
ATOM      8  C   UNL     1       4.467   2.733  20.166  0.00  0.00    +0.000 C 
ATOM      9  N   UNL     1       3.167   2.982  19.531  0.00  0.00    +0.000 N 
ATOM     10  C   UNL     1       2.063   2.376  20.078  0.00  0.00    +0.000 A 
ATOM     11  C   UNL     1       0.793   2.563  19.535  0.00  0.00    +0.000 A 
ATOM     12  C   UNL     1       0.643   3.372  18.420  0.00  0.00    +0.000 A 
ATOM     13  C   UNL     1       1.756   3.990  17.862  0.00  0.00    +0.000 A 
ATOM     14  C   UNL     1       3.038   3.804  18.424  0.00  0.00    +0.000 A 
ENDBRANCH   1  14
BRANCH   7  15
ATOM     15  N   UNL     1       2.436   7.847  18.093  0.00  0.00    +0.000 N 
ATOM     16  H   UNL     1       2.530   8.391  17.236  0.00  0.00    +0.000 HD
BRANCH  15  17
ATOM     17  C   UNL     1       1.853   8.400  19.284  0.00  0.00    +0.000 A 
ATOM     18  C   UNL     1       1.674   7.527  20.379  0.00  0.00    +0.000 A 
ATOM     19  C   UNL     1       1.081   7.934  21.561  0.00  0.00    +0.000 A 
ATOM     20  C   UNL     1       0.636   9.246  21.715  0.00  0.00    +0.000 A 
ATOM     21  C   UNL     1       0.817  10.147  20.651  0.00  0.00    +0.000 A 
ATOM     22  C   UNL     1       1.422   9.765  19.427  0.00  0.00    +0.000 A 
BRANCH  20  23
ATOM     23  N   UNL     1       0.008   9.653  22.929  0.00  0.00    +0.000 N 
ATOM     24  O   UNL     1      -1.078  10.148  22.917  0.00  0.00    +0.000 OA
ATOM     25  O   UNL     1       0.627   9.509  24.082  0.00  0.00    +0.000 OA
ENDBRANCH  20  23
BRANCH  22  26
ATOM     26  N   UNL     1       1.563  10.775  18.411  0.00  0.00    +0.000 N 
ATOM     27  O   UNL     1       2.271  10.624  17.466  0.00  0.00    +0.000 OA
ATOM     28  O   UNL     1       0.940  11.928  18.539  0.00  0.00    +0.000 OA
ENDBRANCH  22  26
ENDBRANCH  15  17
ENDBRANCH   7  15
TORSDOF 5
ENDMDL
MODEL 5
REMARK VINA RESULT:      -8.3      1.225      3.031
REMARK  Name = 
REMARK  6 active torsions:
REMARK  status: ('A' for Active; 'I' for Inactive)
REMARK    1  A    between atoms: C_1  and  N_2
REMARK    2  A    between atoms: C_7  and  C_8
REMARK    3  A    between atoms: N_14  and  N_15
REMARK    4  A    between atoms: N_15  and  C_16
REMARK    5  A    between atoms: C_19  and  N_20
REMARK    6  A    between atoms: C_24  and  N_25
REMARK                            x       y       z     vdW  Elec       q    Type
REMARK                         _______ _______ _______ _____ _____    ______ ____
ROOT
ATOM      1  C   UNL     1       4.098   4.307  17.860  0.00  0.00    +0.000 C 
ATOM      2  C   UNL     1       3.879   3.310  19.026  0.00  0.00    +0.000 C 
ATOM      3  C   UNL     1       2.494   2.643  18.942  0.00  0.00    +0.000 C 
ATOM      4  C   UNL     1       1.381   3.706  18.960  0.00  0.00    +0.000 C 
ATOM      5  C   UNL     1       1.534   4.660  17.769  0.00  0.00    +0.000 C 
ATOM      6  C   UNL     1       2.920   5.277  17.818  0.00  0.00    +0.000 C 
ATOM      7  N   UNL     1       3.152   6.548  17.891  0.00  0.00    +0.000 NA
ENDROOT
BRANCH   1  14
ATOM      8  C   UNL     1       5.558   5.626  15.587  0.00  0.00    +0.000 C 
ATOM      9  N   UNL     1       6.099   5.653  16.952  0.00  0.00    +0.000 N 
ATOM     10  C   UNL     1       7.280   6.322  17.157  0.00  0.00    +0.000 A 
ATOM     11  C   UNL     1       7.857   6.396  18.423  0.00  0.00    +0.000 A 
ATOM     12  C   UNL     1       7.232   5.777  19.493  0.00  0.00    +0.000 A 
ATOM     13  C   UNL     1       6.036   5.098  19.293  0.00  0.00    +0.000 A 
ATOM     14  C   UNL     1       5.451   5.037  18.009  0.00  0.00    +0.000 A 
ENDBRANCH   1  14
BRANCH   7  15
ATOM     15  N   UNL     1       2.228   7.570  17.874  0.00  0.00    +0.000 N 
ATOM     16  H   UNL     1       1.862   7.903  16.983  0.00  0.00    +0.000 HD
BRANCH  15  17
ATOM     17  C   UNL     1       1.785   8.115  19.128  0.00  0.00    +0.000 A 
ATOM     18  C   UNL     1       1.849   7.270  20.257  0.00  0.00    +0.000 A 
ATOM     19  C   UNL     1       1.407   7.667  21.506  0.00  0.00    +0.000 A 
ATOM     20  C   UNL     1       0.880   8.943  21.698  0.00  0.00    +0.000 A 
ATOM     21  C   UNL     1       0.821   9.818  20.600  0.00  0.00    +0.000 A 
ATOM     22  C   UNL     1       1.266   9.445  19.306  0.00  0.00    +0.000 A 
BRANCH  20  23
ATOM     23  N   UNL     1       0.409   9.339  22.985  0.00  0.00    +0.000 N 
ATOM     24  O   UNL     1      -0.737   9.629  23.151  0.00  0.00    +0.000 OA
ATOM     25  O   UNL     1       1.238   9.414  24.004  0.00  0.00    +0.000 OA
ENDBRANCH  20  23
BRANCH  22  26
ATOM     26  N   UNL     1       1.166  10.427  18.259  0.00  0.00    +0.000 N 
ATOM     27  O   UNL     1       2.057  10.629  17.495  0.00  0.00    +0.000 OA
ATOM     28  O   UNL     1       0.084  11.172  18.156  0.00  0.00    +0.000 OA
ENDBRANCH  22  26
ENDBRANCH  15  17
ENDBRANCH   7  15
TORSDOF 5
ENDMDL
MODEL 6
REMARK VINA RESULT:      -8.2      0.720      1.058
REMARK  Name = 
REMARK  6 active torsions:
REMARK  status: ('A' for Active; 'I' for Inactive)
REMARK    1  A    between atoms: C_1  and  N_2
REMARK    2  A    between atoms: C_7  and  C_8
REMARK    3  A    between atoms: N_14  and  N_15
REMARK    4  A    between atoms: N_15  and  C_16
REMARK    5  A    between atoms: C_19  and  N_20
REMARK    6  A    between atoms: C_24  and  N_25
REMARK                            x       y       z     vdW  Elec       q    Type
REMARK                         _______ _______ _______ _____ _____    ______ ____
ROOT
ATOM      1  C   UNL     1       3.830   4.801  17.941  0.00  0.00    +0.000 C 
ATOM      2  C   UNL     1       3.947   3.294  18.281  0.00  0.00    +0.000 C 
ATOM      3  C   UNL     1       2.568   2.610  18.286  0.00  0.00    +0.000 C 
ATOM      4  C   UNL     1       1.629   3.293  19.296  0.00  0.00    +0.000 C 
ATOM      5  C   UNL     1       1.438   4.771  18.933  0.00  0.00    +0.000 C 
ATOM      6  C   UNL     1       2.801   5.435  18.874  0.00  0.00    +0.000 C 
ATOM      7  N   UNL     1       3.155   6.445  19.601  0.00  0.00    +0.000 NA
ENDROOT
BRANCH   1  14
ATOM      8  C   UNL     1       4.758   6.959  16.064  0.00  0.00    +0.000 C 
ATOM      9  N   UNL     1       5.609   6.497  17.168  0.00  0.00    +0.000 N 
ATOM     10  C   UNL     1       6.831   7.103  17.328  0.00  0.00    +0.000 A 
ATOM     11  C   UNL     1       7.695   6.725  18.353  0.00  0.00    +0.000 A 
ATOM     12  C   UNL     1       7.319   5.714  19.223  0.00  0.00    +0.000 A 
ATOM     13  C   UNL     1       6.083   5.097  19.067  0.00  0.00    +0.000 A 
ATOM     14  C   UNL     1       5.207   5.494  18.033  0.00  0.00    +0.000 A 
ENDBRANCH   1  14
BRANCH   7  15
ATOM     15  N   UNL     1       2.376   7.142  20.500  0.00  0.00    +0.000 N 
ATOM     16  H   UNL     1       2.331   6.834  21.471  0.00  0.00    +0.000 HD
BRANCH  15  17
ATOM     17  C   UNL     1       1.674   8.308  20.040  0.00  0.00    +0.000 A 
ATOM     18  C   UNL     1       1.604   8.511  18.645  0.00  0.00    +0.000 A 
ATOM     19  C   UNL     1       0.996   9.620  18.087  0.00  0.00    +0.000 A 
ATOM     20  C   UNL     1       0.413  10.592  18.899  0.00  0.00    +0.000 A 
ATOM     21  C   UNL     1       0.447  10.412  20.292  0.00  0.00    +0.000 A 
ATOM     22  C   UNL     1       1.061   9.287  20.899  0.00  0.00    +0.000 A 
BRANCH  20  23
ATOM     23  N   UNL     1      -0.195  11.744  18.317  0.00  0.00    +0.000 N 
ATOM     24  O   UNL     1      -1.230  11.654  17.730  0.00  0.00    +0.000 OA
ATOM     25  O   UNL     1       0.389  12.920  18.400  0.00  0.00    +0.000 OA
ENDBRANCH  20  23
BRANCH  22  26
ATOM     26  N   UNL     1       1.025   9.203  22.335  0.00  0.00    +0.000 N 
ATOM     27  O   UNL     1       2.017   9.228  22.993  0.00  0.00    +0.000 OA
ATOM     28  O   UNL     1      -0.125   9.042  22.957  0.00  0.00    +0.000 OA
ENDBRANCH  22  26
ENDBRANCH  15  17
ENDBRANCH   7  15
TORSDOF 5
ENDMDL
MODEL 7
REMARK VINA RESULT:      -8.2      4.446      6.927
REMARK  Name = 
REMARK  6 active torsions:
REMARK  status: ('A' for Active; 'I' for Inactive)
REMARK    1  A    between atoms: C_1  and  N_2
REMARK    2  A    between atoms: C_7  and  C_8
REMARK    3  A    between atoms: N_14  and  N_15
REMARK    4  A    between atoms: N_15  and  C_16
REMARK    5  A    between atoms: C_19  and  N_20
REMARK    6  A    between atoms: C_24  and  N_25
REMARK                            x       y       z     vdW  Elec       q    Type
REMARK                         _______ _______ _______ _____ _____    ______ ____
ROOT
ATOM      1  C   UNL     1       2.761   5.191  20.190  0.00  0.00    +0.000 C 
ATOM      2  C   UNL     1       1.351   4.635  20.513  0.00  0.00    +0.000 C 
ATOM      3  C   UNL     1       1.434   3.323  21.314  0.00  0.00    +0.000 C 
ATOM      4  C   UNL     1       2.237   2.266  20.537  0.00  0.00    +0.000 C 
ATOM      5  C   UNL     1       3.663   2.765  20.273  0.00  0.00    +0.000 C 
ATOM      6  C   UNL     1       3.583   4.086  19.531  0.00  0.00    +0.000 C 
ATOM      7  N   UNL     1       4.106   4.305  18.368  0.00  0.00    +0.000 NA
ENDROOT
BRANCH   1  14
ATOM      8  C   UNL     1       1.354   7.718  21.012  0.00  0.00    +0.000 C 
ATOM      9  N   UNL     1       2.026   7.614  19.710  0.00  0.00    +0.000 N 
ATOM     10  C   UNL     1       2.012   8.718  18.894  0.00  0.00    +0.000 A 
ATOM     11  C   UNL     1       2.629   8.700  17.645  0.00  0.00    +0.000 A 
ATOM     12  C   UNL     1       3.263   7.546  17.215  0.00  0.00    +0.000 A 
ATOM     13  C   UNL     1       3.283   6.425  18.037  0.00  0.00    +0.000 A 
ATOM     14  C   UNL     1       2.665   6.454  19.307  0.00  0.00    +0.000 A 
ENDBRANCH   1  14
BRANCH   7  15
ATOM     15  N   UNL     1       4.869   3.437  17.616  0.00  0.00    +0.000 N 
ATOM     16  H   UNL     1       4.853   2.440  17.829  0.00  0.00    +0.000 HD
BRANCH  15  17
ATOM     17  C   UNL     1       5.644   3.969  16.529  0.00  0.00    +0.000 A 
ATOM     18  C   UNL     1       5.271   3.585  15.223  0.00  0.00    +0.000 A 
ATOM     19  C   UNL     1       5.970   3.996  14.102  0.00  0.00    +0.000 A 
ATOM     20  C   UNL     1       7.084   4.824  14.227  0.00  0.00    +0.000 A 
ATOM     21  C   UNL     1       7.472   5.242  15.512  0.00  0.00    +0.000 A 
ATOM     22  C   UNL     1       6.778   4.842  16.682  0.00  0.00    +0.000 A 
BRANCH  20  23
ATOM     23  N   UNL     1       7.812   5.227  13.068  0.00  0.00    +0.000 N 
ATOM     24  O   UNL     1       8.713   6.005  13.155  0.00  0.00    +0.000 OA
ATOM     25  O   UNL     1       7.485   4.764  11.880  0.00  0.00    +0.000 OA
ENDBRANCH  20  23
BRANCH  22  26
ATOM     26  N   UNL     1       7.259   5.340  17.944  0.00  0.00    +0.000 N 
ATOM     27  O   UNL     1       7.406   4.630  18.888  0.00  0.00    +0.000 OA
ATOM     28  O   UNL     1       7.501   6.626  18.094  0.00  0.00    +0.000 OA
ENDBRANCH  22  26
ENDBRANCH  15  17
ENDBRANCH   7  15
TORSDOF 5
ENDMDL
MODEL 8
REMARK VINA RESULT:      -8.1      4.474      7.337
REMARK  Name = 
REMARK  6 active torsions:
REMARK  status: ('A' for Active; 'I' for Inactive)
REMARK    1  A    between atoms: C_1  and  N_2
REMARK    2  A    between atoms: C_7  and  C_8
REMARK    3  A    between atoms: N_14  and  N_15
REMARK    4  A    between atoms: N_15  and  C_16
REMARK    5  A    between atoms: C_19  and  N_20
REMARK    6  A    between atoms: C_24  and  N_25
REMARK                            x       y       z     vdW  Elec       q    Type
REMARK                         _______ _______ _______ _____ _____    ______ ____
ROOT
ATOM      1  C   UNL     1       2.353   5.452  18.544  0.00  0.00    +0.000 C 
ATOM      2  C   UNL     1       2.127   6.880  19.100  0.00  0.00    +0.000 C 
ATOM      3  C   UNL     1       2.514   7.953  18.066  0.00  0.00    +0.000 C 
ATOM      4  C   UNL     1       3.985   7.793  17.646  0.00  0.00    +0.000 C 
ATOM      5  C   UNL     1       4.215   6.411  17.021  0.00  0.00    +0.000 C 
ATOM      6  C   UNL     1       3.783   5.352  18.018  0.00  0.00    +0.000 C 
ATOM      7  N   UNL     1       4.559   4.428  18.486  0.00  0.00    +0.000 NA
ENDROOT
BRANCH   1  14
ATOM      8  C   UNL     1       1.312   2.695  17.945  0.00  0.00    +0.000 C 
ATOM      9  N   UNL     1       1.588   3.118  19.325  0.00  0.00    +0.000 N 
ATOM     10  C   UNL     1       1.379   2.203  20.327  0.00  0.00    +0.000 A 
ATOM     11  C   UNL     1       1.619   2.526  21.660  0.00  0.00    +0.000 A 
ATOM     12  C   UNL     1       2.072   3.795  21.983  0.00  0.00    +0.000 A 
ATOM     13  C   UNL     1       2.287   4.726  20.973  0.00  0.00    +0.000 A 
ATOM     14  C   UNL     1       2.052   4.388  19.622  0.00  0.00    +0.000 A 
ENDBRANCH   1  14
BRANCH   7  15
ATOM     15  N   UNL     1       5.871   4.184  18.143  0.00  0.00    +0.000 N 
ATOM     16  H   UNL     1       6.500   3.765  18.828  0.00  0.00    +0.000 HD
BRANCH  15  17
ATOM     17  C   UNL     1       6.303   4.503  16.811  0.00  0.00    +0.000 A 
ATOM     18  C   UNL     1       5.887   3.640  15.773  0.00  0.00    +0.000 A 
ATOM     19  C   UNL     1       6.278   3.820  14.459  0.00  0.00    +0.000 A 
ATOM     20  C   UNL     1       7.107   4.883  14.106  0.00  0.00    +0.000 A 
ATOM     21  C   UNL     1       7.524   5.774  15.110  0.00  0.00    +0.000 A 
ATOM     22  C   UNL     1       7.142   5.621  16.467  0.00  0.00    +0.000 A 
BRANCH  20  23
ATOM     23  N   UNL     1       7.522   5.050  12.751  0.00  0.00    +0.000 N 
ATOM     24  O   UNL     1       8.195   5.983  12.431  0.00  0.00    +0.000 OA
ATOM     25  O   UNL     1       7.150   4.188  11.828  0.00  0.00    +0.000 OA
ENDBRANCH  20  23
BRANCH  22  26
ATOM     26  N   UNL     1       7.621   6.600  17.407  0.00  0.00    +0.000 N 
ATOM     27  O   UNL     1       7.857   6.323  18.541  0.00  0.00    +0.000 OA
ATOM     28  O   UNL     1       7.759   7.856  17.036  0.00  0.00    +0.000 OA
ENDBRANCH  22  26
ENDBRANCH  15  17
ENDBRANCH   7  15
TORSDOF 5
ENDMDL
MODEL 9
REMARK VINA RESULT:      -8.0      4.194      6.757
REMARK  Name = 
REMARK  6 active torsions:
REMARK  status: ('A' for Active; 'I' for Inactive)
REMARK    1  A    between atoms: C_1  and  N_2
REMARK    2  A    between atoms: C_7  and  C_8
REMARK    3  A    between atoms: N_14  and  N_15
REMARK    4  A    between atoms: N_15  and  C_16
REMARK    5  A    between atoms: C_19  and  N_20
REMARK    6  A    between atoms: C_24  and  N_25
REMARK                            x       y       z     vdW  Elec       q    Type
REMARK                         _______ _______ _______ _____ _____    ______ ____
ROOT
ATOM      1  C   UNL     1       2.256   4.385  20.021  0.00  0.00    +0.000 C 
ATOM      2  C   UNL     1       1.260   3.660  19.082  0.00  0.00    +0.000 C 
ATOM      3  C   UNL     1       1.499   2.140  19.074  0.00  0.00    +0.000 C 
ATOM      4  C   UNL     1       2.940   1.822  18.637  0.00  0.00    +0.000 C 
ATOM      5  C   UNL     1       3.945   2.467  19.599  0.00  0.00    +0.000 C 
ATOM      6  C   UNL     1       3.675   3.960  19.650  0.00  0.00    +0.000 C 
ATOM      7  N   UNL     1       4.541   4.871  19.342  0.00  0.00    +0.000 NA
ENDROOT
BRANCH   1  14
ATOM      8  C   UNL     1       2.737   6.024  17.547  0.00  0.00    +0.000 C 
ATOM      9  N   UNL     1       2.278   6.651  18.794  0.00  0.00    +0.000 N 
ATOM     10  C   UNL     1       2.052   8.005  18.782  0.00  0.00    +0.000 A 
ATOM     11  C   UNL     1       1.614   8.673  19.923  0.00  0.00    +0.000 A 
ATOM     12  C   UNL     1       1.408   7.960  21.093  0.00  0.00    +0.000 A 
ATOM     13  C   UNL     1       1.633   6.589  21.111  0.00  0.00    +0.000 A 
ATOM     14  C   UNL     1       2.067   5.916  19.948  0.00  0.00    +0.000 A 
ENDBRANCH   1  14
BRANCH   7  15
ATOM     15  N   UNL     1       5.857   4.686  18.978  0.00  0.00    +0.000 N 
ATOM     16  H   UNL     1       6.548   4.455  19.691  0.00  0.00    +0.000 HD
BRANCH  15  17
ATOM     17  C   UNL     1       6.206   4.795  17.589  0.00  0.00    +0.000 A 
ATOM     18  C   UNL     1       5.671   3.828  16.710  0.00  0.00    +0.000 A 
ATOM     19  C   UNL     1       5.973   3.804  15.361  0.00  0.00    +0.000 A 
ATOM     20  C   UNL     1       6.830   4.756  14.810  0.00  0.00    +0.000 A 
ATOM     21  C   UNL     1       7.366   5.746  15.652  0.00  0.00    +0.000 A 
ATOM     22  C   UNL     1       7.076   5.802  17.039  0.00  0.00    +0.000 A 
BRANCH  20  23
ATOM     23  N   UNL     1       7.153   4.713  13.422  0.00  0.00    +0.000 N 
ATOM     24  O   UNL     1       7.910   5.504  12.948  0.00  0.00    +0.000 OA
ATOM     25  O   UNL     1       6.602   3.811  12.637  0.00  0.00    +0.000 OA
ENDBRANCH  20  23
BRANCH  22  26
ATOM     26  N   UNL     1       7.674   6.866  17.801  0.00  0.00    +0.000 N 
ATOM     27  O   UNL     1       8.114   6.691  18.893  0.00  0.00    +0.000 OA
ATOM     28  O   UNL     1       7.698   8.090  17.315  0.00  0.00    +0.000 OA
ENDBRANCH  22  26
ENDBRANCH  15  17
ENDBRANCH   7  15
TORSDOF 5
ENDMDL
