MODEL 1
REMARK VINA RESULT:      -8.4      0.000      0.000
REMARK  Name = 
REMARK  7 active torsions:
REMARK  status: ('A' for Active; 'I' for Inactive)
REMARK    1  A    between atoms: C_1  and  O_2
REMARK    2  A    between atoms: O_2  and  C_3
REMARK    3  A    between atoms: N_9  and  C_10
REMARK    4  A    between atoms: C_10  and  C_11
REMARK    5  A    between atoms: C_20  and  C_21
REMARK    6  A    between atoms: C_22  and  C_23
REMARK    7  A    between atoms: C_22  and  C_25
REMARK                            x       y       z     vdW  Elec       q    Type
REMARK                         _______ _______ _______ _____ _____    ______ ____
ROOT
ATOM      1  C   UNL     1      -4.438  11.631  17.290  0.00  0.00    +0.000 A 
ATOM      2  C   UNL     1      -4.230  10.980  16.068  0.00  0.00    +0.000 A 
ATOM      3  C   UNL     1      -3.059  10.287  15.849  0.00  0.00    +0.000 A 
ATOM      4  C   UNL     1      -2.093  10.239  16.854  0.00  0.00    +0.000 A 
ATOM      5  C   UNL     1      -2.276  10.877  18.113  0.00  0.00    +0.000 A 
ATOM      6  C   UNL     1      -1.311  10.861  19.180  0.00  0.00    +0.000 A 
ATOM      7  N   UNL     1      -0.294   9.885  18.943  0.00  0.00    +0.000 N 
ATOM      8  N   UNL     1      -1.415  11.634  20.333  0.00  0.00    +0.000 NA
ATOM      9  C   UNL     1      -2.575  12.338  20.446  0.00  0.00    +0.000 A 
ATOM     10  N   UNL     1      -2.993  13.334  21.493  0.00  0.00    +0.000 N 
ATOM     11  C   UNL     1      -4.270  13.859  21.313  0.00  0.00    +0.000 A 
ATOM     12  C   UNL     1      -3.883  15.154  20.972  0.00  0.00    +0.000 A 
ATOM     13  C   UNL     1      -3.121  15.442  22.162  0.00  0.00    +0.000 A 
ATOM     14  C   UNL     1      -3.153  16.596  22.993  0.00  0.00    +0.000 A 
ATOM     15  C   UNL     1      -3.042  16.428  24.379  0.00  0.00    +0.000 A 
ATOM     16  C   UNL     1      -2.879  15.147  24.902  0.00  0.00    +0.000 A 
ATOM     17  C   UNL     1      -2.652  14.014  24.054  0.00  0.00    +0.000 A 
ATOM     18  C   UNL     1      -2.644  14.168  22.626  0.00  0.00    +0.000 A 
ATOM     19  N   UNL     1      -3.568  12.250  19.493  0.00  0.00    +0.000 NA
ATOM     20  C   UNL     1      -3.440  11.598  18.326  0.00  0.00    +0.000 A 
ATOM     21  H   UNL     1      -0.690   8.953  19.035  0.00  0.00    +0.000 HD
ENDROOT
BRANCH   1  23
ATOM     22  C   UNL     1      -6.787  11.720  17.940  0.00  0.00    +0.000 C 
ATOM     23  O   UNL     1      -5.578  12.375  17.540  0.00  0.00    +0.000 OA
ENDBRANCH   1  23
BRANCH  11  24
ATOM     24  C   UNL     1      -5.287  13.061  21.896  0.00  0.00    +0.000 C 
ATOM     25  C   UNL     1      -6.365  13.411  22.578  0.00  0.00    +0.000 C 
BRANCH  25  26
ATOM     26  C   UNL     1      -6.642  14.822  22.934  0.00  0.00    +0.000 C 
ATOM     27  N   UNL     1      -6.372  15.217  24.205  0.00  0.00    +0.000 N 
ATOM     28  O   UNL     1      -7.153  15.607  22.126  0.00  0.00    +0.000 OA
ATOM     29  H   UNL     1      -6.868  14.750  24.957  0.00  0.00    +0.000 HD
ATOM     30  H   UNL     1      -6.338  16.221  24.335  0.00  0.00    +0.000 HD
ENDBRANCH  25  26
BRANCH  25  31
ATOM     31  C   UNL     1      -7.176  12.284  23.199  0.00  0.00    +0.000 C 
ATOM     32  N   UNL     1      -7.849  11.351  23.713  0.00  0.00    +0.000 NA
ENDBRANCH  25  31
ENDBRANCH  11  24
BRANCH   7  33
ATOM     33  C   UNL     1       1.085   9.973  19.375  0.00  0.00    +0.000 C 
BRANCH  33  34
ATOM     34  C   UNL     1       1.879   8.661  19.148  0.00  0.00    +0.000 A 
ATOM     35  C   UNL     1       1.921   7.567  20.041  0.00  0.00    +0.000 A 
ATOM     36  C   UNL     1       2.621   6.383  19.717  0.00  0.00    +0.000 A 
ATOM     37  C   UNL     1       3.272   6.247  18.489  0.00  0.00    +0.000 A 
ATOM     38  C   UNL     1       3.227   7.299  17.586  0.00  0.00    +0.000 A 
ATOM     39  C   UNL     1       2.544   8.489  17.911  0.00  0.00    +0.000 A 
ENDBRANCH  33  34
ENDBRANCH   7  33
TORSDOF 6
ENDMDL
MODEL 2
REMARK VINA RESULT:      -7.9      0.996      1.310
REMARK  Name = 
REMARK  7 active torsions:
REMARK  status: ('A' for Active; 'I' for Inactive)
REMARK    1  A    between atoms: C_1  and  O_2
REMARK    2  A    between atoms: O_2  and  C_3
REMARK    3  A    between atoms: N_9  and  C_10
REMARK    4  A    between atoms: C_10  and  C_11
REMARK    5  A    between atoms: C_20  and  C_21
REMARK    6  A    between atoms: C_22  and  C_23
REMARK    7  A    between atoms: C_22  and  C_25
REMARK                            x       y       z     vdW  Elec       q    Type
REMARK                         _______ _______ _______ _____ _____    ______ ____
ROOT
ATOM      1  C   UNL     1      -4.271  11.634  17.509  0.00  0.00    +0.000 A 
ATOM      2  C   UNL     1      -4.257  10.922  16.303  0.00  0.00    +0.000 A 
ATOM      3  C   UNL     1      -3.160  10.158  15.969  0.00  0.00    +0.000 A 
ATOM      4  C   UNL     1      -2.074  10.098  16.843  0.00  0.00    +0.000 A 
ATOM      5  C   UNL     1      -2.060  10.797  18.082  0.00  0.00    +0.000 A 
ATOM      6  C   UNL     1      -0.966  10.772  19.016  0.00  0.00    +0.000 A 
ATOM      7  N   UNL     1      -0.037   9.733  18.698  0.00  0.00    +0.000 N 
ATOM      8  N   UNL     1      -0.880  11.595  20.135  0.00  0.00    +0.000 NA
ATOM      9  C   UNL     1      -1.979  12.366  20.363  0.00  0.00    +0.000 A 
ATOM     10  N   UNL     1      -2.207  13.426  21.405  0.00  0.00    +0.000 N 
ATOM     11  C   UNL     1      -3.469  14.012  21.366  0.00  0.00    +0.000 A 
ATOM     12  C   UNL     1      -3.067  15.269  20.917  0.00  0.00    +0.000 A 
ATOM     13  C   UNL     1      -2.143  15.564  21.984  0.00  0.00    +0.000 A 
ATOM     14  C   UNL     1      -2.009  16.751  22.756  0.00  0.00    +0.000 A 
ATOM     15  C   UNL     1      -1.727  16.634  24.122  0.00  0.00    +0.000 A 
ATOM     16  C   UNL     1      -1.560  15.369  24.681  0.00  0.00    +0.000 A 
ATOM     17  C   UNL     1      -1.501  14.190  23.866  0.00  0.00    +0.000 A 
ATOM     18  C   UNL     1      -1.672  14.286  22.443  0.00  0.00    +0.000 A 
ATOM     19  N   UNL     1      -3.091  12.294  19.550  0.00  0.00    +0.000 NA
ATOM     20  C   UNL     1      -3.149  11.589  18.409  0.00  0.00    +0.000 A 
ATOM     21  H   UNL     1      -0.463   8.828  18.885  0.00  0.00    +0.000 HD
ENDROOT
BRANCH   1  23
ATOM     22  C   UNL     1      -6.528  12.453  17.081  0.00  0.00    +0.000 C 
ATOM     23  O   UNL     1      -5.330  12.449  17.867  0.00  0.00    +0.000 OA
ENDBRANCH   1  23
BRANCH  11  24
ATOM     24  C   UNL     1      -4.440  13.297  22.112  0.00  0.00    +0.000 C 
ATOM     25  C   UNL     1      -5.758  13.409  22.135  0.00  0.00    +0.000 C 
BRANCH  25  26
ATOM     26  C   UNL     1      -6.466  14.461  21.369  0.00  0.00    +0.000 C 
ATOM     27  N   UNL     1      -6.826  14.176  20.091  0.00  0.00    +0.000 N 
ATOM     28  O   UNL     1      -6.678  15.581  21.848  0.00  0.00    +0.000 OA
ATOM     29  H   UNL     1      -6.085  13.954  19.434  0.00  0.00    +0.000 HD
ATOM     30  H   UNL     1      -7.511  14.809  19.696  0.00  0.00    +0.000 HD
ENDBRANCH  25  26
BRANCH  25  31
ATOM     31  C   UNL     1      -6.496  12.580  23.174  0.00  0.00    +0.000 C 
ATOM     32  N   UNL     1      -7.108  11.893  24.035  0.00  0.00    +0.000 NA
ENDBRANCH  25  31
ENDBRANCH  11  24
BRANCH   7  33
ATOM     33  C   UNL     1       1.389   9.761  18.945  0.00  0.00    +0.000 C 
BRANCH  33  34
ATOM     34  C   UNL     1       2.058   8.369  18.817  0.00  0.00    +0.000 A 
ATOM     35  C   UNL     1       2.911   7.967  17.766  0.00  0.00    +0.000 A 
ATOM     36  C   UNL     1       3.530   6.696  17.770  0.00  0.00    +0.000 A 
ATOM     37  C   UNL     1       3.339   5.807  18.830  0.00  0.00    +0.000 A 
ATOM     38  C   UNL     1       2.523   6.188  19.886  0.00  0.00    +0.000 A 
ATOM     39  C   UNL     1       1.890   7.448  19.879  0.00  0.00    +0.000 A 
ENDBRANCH  33  34
ENDBRANCH   7  33
TORSDOF 6
ENDMDL
MODEL 3
REMARK VINA RESULT:      -7.3      1.722      2.671
REMARK  Name = 
REMARK  7 active torsions:
REMARK  status: ('A' for Active; 'I' for Inactive)
REMARK    1  A    between atoms: C_1  and  O_2
REMARK    2  A    between atoms: O_2  and  C_3
REMARK    3  A    between atoms: N_9  and  C_10
REMARK    4  A    between atoms: C_10  and  C_11
REMARK    5  A    between atoms: C_20  and  C_21
REMARK    6  A    between atoms: C_22  and  C_23
REMARK    7  A    between atoms: C_22  and  C_25
REMARK                            x       y       z     vdW  Elec       q    Type
REMARK                         _______ _______ _______ _____ _____    ______ ____
ROOT
ATOM      1  C   UNL     1      -4.342  11.370  17.491  0.00  0.00    +0.000 A 
ATOM      2  C   UNL     1      -3.986  10.697  16.316  0.00  0.00    +0.000 A 
ATOM      3  C   UNL     1      -2.715  10.184  16.176  0.00  0.00    +0.000 A 
ATOM      4  C   UNL     1      -1.795  10.340  17.213  0.00  0.00    +0.000 A 
ATOM      5  C   UNL     1      -2.125  11.007  18.426  0.00  0.00    +0.000 A 
ATOM      6  C   UNL     1      -1.214  11.197  19.523  0.00  0.00    +0.000 A 
ATOM      7  N   UNL     1      -0.050  10.381  19.377  0.00  0.00    +0.000 N 
ATOM      8  N   UNL     1      -1.482  12.003  20.625  0.00  0.00    +0.000 NA
ATOM      9  C   UNL     1      -2.740  12.523  20.660  0.00  0.00    +0.000 A 
ATOM     10  N   UNL     1      -3.349  13.496  21.633  0.00  0.00    +0.000 N 
ATOM     11  C   UNL     1      -4.683  13.805  21.382  0.00  0.00    +0.000 A 
ATOM     12  C   UNL     1      -4.486  15.125  20.979  0.00  0.00    +0.000 A 
ATOM     13  C   UNL     1      -3.827  15.590  22.174  0.00  0.00    +0.000 A 
ATOM     14  C   UNL     1      -4.069  16.767  22.935  0.00  0.00    +0.000 A 
ATOM     15  C   UNL     1      -3.992  16.691  24.331  0.00  0.00    +0.000 A 
ATOM     16  C   UNL     1      -3.655  15.481  24.933  0.00  0.00    +0.000 A 
ATOM     17  C   UNL     1      -3.221  14.353  24.160  0.00  0.00    +0.000 A 
ATOM     18  C   UNL     1      -3.179  14.432  22.727  0.00  0.00    +0.000 A 
ATOM     19  N   UNL     1      -3.668  12.233  19.682  0.00  0.00    +0.000 NA
ATOM     20  C   UNL     1      -3.394  11.548  18.559  0.00  0.00    +0.000 A 
ATOM     21  H   UNL     1      -0.301   9.404  19.510  0.00  0.00    +0.000 HD
ENDROOT
BRANCH   1  23
ATOM     22  C   UNL     1      -6.041  12.960  16.760  0.00  0.00    +0.000 C 
ATOM     23  O   UNL     1      -5.591  11.940  17.660  0.00  0.00    +0.000 OA
ENDBRANCH   1  23
BRANCH  11  24
ATOM     24  C   UNL     1      -5.589  12.891  21.976  0.00  0.00    +0.000 C 
ATOM     25  C   UNL     1      -6.717  13.106  22.632  0.00  0.00    +0.000 C 
BRANCH  25  26
ATOM     26  C   UNL     1      -7.195  14.474  22.938  0.00  0.00    +0.000 C 
ATOM     27  N   UNL     1      -7.049  14.924  24.211  0.00  0.00    +0.000 N 
ATOM     28  O   UNL     1      -7.760  15.170  22.085  0.00  0.00    +0.000 OA
ATOM     29  H   UNL     1      -7.522  14.408  24.947  0.00  0.00    +0.000 HD
ATOM     30  H   UNL     1      -7.154  15.925  24.317  0.00  0.00    +0.000 HD
ENDBRANCH  25  26
BRANCH  25  31
ATOM     31  C   UNL     1      -7.373  11.896  23.279  0.00  0.00    +0.000 C 
ATOM     32  N   UNL     1      -7.917  10.893  23.815  0.00  0.00    +0.000 NA
ENDBRANCH  25  31
ENDBRANCH  11  24
BRANCH   7  33
ATOM     33  C   UNL     1       1.280  10.704  19.847  0.00  0.00    +0.000 C 
BRANCH  33  34
ATOM     34  C   UNL     1       1.689  12.171  19.560  0.00  0.00    +0.000 A 
ATOM     35  C   UNL     1       1.825  13.186  20.533  0.00  0.00    +0.000 A 
ATOM     36  C   UNL     1       2.269  14.481  20.184  0.00  0.00    +0.000 A 
ATOM     37  C   UNL     1       2.614  14.792  18.867  0.00  0.00    +0.000 A 
ATOM     38  C   UNL     1       2.510  13.806  17.896  0.00  0.00    +0.000 A 
ATOM     39  C   UNL     1       2.052  12.516  18.237  0.00  0.00    +0.000 A 
ENDBRANCH  33  34
ENDBRANCH   7  33
TORSDOF 6
ENDMDL
MODEL 4
REMARK VINA RESULT:      -7.3      4.992      6.768
REMARK  Name = 
REMARK  7 active torsions:
REMARK  status: ('A' for Active; 'I' for Inactive)
REMARK    1  A    between atoms: C_1  and  O_2
REMARK    2  A    between atoms: O_2  and  C_3
REMARK    3  A    between atoms: N_9  and  C_10
REMARK    4  A    between atoms: C_10  and  C_11
REMARK    5  A    between atoms: C_20  and  C_21
REMARK    6  A    between atoms: C_22  and  C_23
REMARK    7  A    between atoms: C_22  and  C_25
REMARK                            x       y       z     vdW  Elec       q    Type
REMARK                         _______ _______ _______ _____ _____    ______ ____
ROOT
ATOM      1  C   UNL     1      -0.713  16.777  18.890  0.00  0.00    +0.000 A 
ATOM      2  C   UNL     1      -0.335  18.055  18.461  0.00  0.00    +0.000 A 
ATOM      3  C   UNL     1       0.947  18.276  18.005  0.00  0.00    +0.000 A 
ATOM      4  C   UNL     1       1.855  17.217  17.973  0.00  0.00    +0.000 A 
ATOM      5  C   UNL     1       1.501  15.903  18.388  0.00  0.00    +0.000 A 
ATOM      6  C   UNL     1       2.399  14.778  18.378  0.00  0.00    +0.000 A 
ATOM      7  N   UNL     1       3.579  15.065  17.624  0.00  0.00    +0.000 N 
ATOM      8  N   UNL     1       2.106  13.545  18.953  0.00  0.00    +0.000 NA
ATOM      9  C   UNL     1       0.839  13.426  19.436  0.00  0.00    +0.000 A 
ATOM     10  N   UNL     1       0.204  12.292  20.193  0.00  0.00    +0.000 N 
ATOM     11  C   UNL     1      -1.133  12.495  20.524  0.00  0.00    +0.000 A 
ATOM     12  C   UNL     1      -0.956  12.634  21.899  0.00  0.00    +0.000 A 
ATOM     13  C   UNL     1      -0.316  11.364  22.136  0.00  0.00    +0.000 A 
ATOM     14  C   UNL     1      -0.586  10.393  23.140  0.00  0.00    +0.000 A 
ATOM     15  C   UNL     1      -0.520   9.037  22.798  0.00  0.00    +0.000 A 
ATOM     16  C   UNL     1      -0.167   8.676  21.500  0.00  0.00    +0.000 A 
ATOM     17  C   UNL     1       0.294   9.646  20.550  0.00  0.00    +0.000 A 
ATOM     18  C   UNL     1       0.348  11.036  20.904  0.00  0.00    +0.000 A 
ATOM     19  N   UNL     1      -0.074  14.453  19.325  0.00  0.00    +0.000 NA
ATOM     20  C   UNL     1       0.222  15.683  18.873  0.00  0.00    +0.000 A 
ATOM     21  H   UNL     1       3.344  15.125  16.636  0.00  0.00    +0.000 HD
ENDROOT
BRANCH   1  23
ATOM     22  C   UNL     1      -2.824  17.599  19.793  0.00  0.00    +0.000 C 
ATOM     23  O   UNL     1      -1.974  16.517  19.396  0.00  0.00    +0.000 OA
ENDBRANCH   1  23
BRANCH  11  24
ATOM     24  C   UNL     1      -2.027  12.099  19.498  0.00  0.00    +0.000 C 
ATOM     25  C   UNL     1      -3.323  12.326  19.355  0.00  0.00    +0.000 C 
BRANCH  25  26
ATOM     26  C   UNL     1      -4.113  13.025  20.394  0.00  0.00    +0.000 C 
ATOM     27  N   UNL     1      -4.119  14.383  20.375  0.00  0.00    +0.000 N 
ATOM     28  O   UNL     1      -4.706  12.406  21.285  0.00  0.00    +0.000 OA
ATOM     29  H   UNL     1      -3.228  14.857  20.489  0.00  0.00    +0.000 HD
ATOM     30  H   UNL     1      -4.852  14.808  20.930  0.00  0.00    +0.000 HD
ENDBRANCH  25  26
BRANCH  25  31
ATOM     31  C   UNL     1      -4.017  11.620  18.201  0.00  0.00    +0.000 C 
ATOM     32  N   UNL     1      -4.592  11.034  17.244  0.00  0.00    +0.000 NA
ENDBRANCH  25  31
ENDBRANCH  11  24
BRANCH   7  33
ATOM     33  C   UNL     1       4.899  14.525  17.871  0.00  0.00    +0.000 C 
BRANCH  33  34
ATOM     34  C   UNL     1       5.737  15.386  18.850  0.00  0.00    +0.000 A 
ATOM     35  C   UNL     1       6.906  14.960  19.518  0.00  0.00    +0.000 A 
ATOM     36  C   UNL     1       7.642  15.840  20.342  0.00  0.00    +0.000 A 
ATOM     37  C   UNL     1       7.251  17.171  20.501  0.00  0.00    +0.000 A 
ATOM     38  C   UNL     1       6.118  17.621  19.837  0.00  0.00    +0.000 A 
ATOM     39  C   UNL     1       5.371  16.742  19.027  0.00  0.00    +0.000 A 
ENDBRANCH  33  34
ENDBRANCH   7  33
TORSDOF 6
ENDMDL
MODEL 5
REMARK VINA RESULT:      -7.2      3.192      6.586
REMARK  Name = 
REMARK  7 active torsions:
REMARK  status: ('A' for Active; 'I' for Inactive)
REMARK    1  A    between atoms: C_1  and  O_2
REMARK    2  A    between atoms: O_2  and  C_3
REMARK    3  A    between atoms: N_9  and  C_10
REMARK    4  A    between atoms: C_10  and  C_11
REMARK    5  A    between atoms: C_20  and  C_21
REMARK    6  A    between atoms: C_22  and  C_23
REMARK    7  A    between atoms: C_22  and  C_25
REMARK                            x       y       z     vdW  Elec       q    Type
REMARK                         _______ _______ _______ _____ _____    ______ ____
ROOT
ATOM      1  C   UNL     1      -0.688  11.178  18.635  0.00  0.00    +0.000 A 
ATOM      2  C   UNL     1      -0.760  10.123  17.718  0.00  0.00    +0.000 A 
ATOM      3  C   UNL     1      -1.981   9.736  17.209  0.00  0.00    +0.000 A 
ATOM      4  C   UNL     1      -3.135  10.408  17.613  0.00  0.00    +0.000 A 
ATOM      5  C   UNL     1      -3.098  11.493  18.533  0.00  0.00    +0.000 A 
ATOM      6  C   UNL     1      -4.258  12.216  18.984  0.00  0.00    +0.000 A 
ATOM      7  N   UNL     1      -5.399  11.920  18.176  0.00  0.00    +0.000 N 
ATOM      8  N   UNL     1      -4.238  13.150  20.015  0.00  0.00    +0.000 NA
ATOM      9  C   UNL     1      -3.001  13.433  20.507  0.00  0.00    +0.000 A 
ATOM     10  N   UNL     1      -2.606  14.309  21.665  0.00  0.00    +0.000 N 
ATOM     11  C   UNL     1      -1.234  14.391  21.886  0.00  0.00    +0.000 A 
ATOM     12  C   UNL     1      -1.204  13.677  23.082  0.00  0.00    +0.000 A 
ATOM     13  C   UNL     1      -2.127  14.505  23.819  0.00  0.00    +0.000 A 
ATOM     14  C   UNL     1      -2.008  15.034  25.133  0.00  0.00    +0.000 A 
ATOM     15  C   UNL     1      -2.473  16.332  25.379  0.00  0.00    +0.000 A 
ATOM     16  C   UNL     1      -3.059  17.055  24.343  0.00  0.00    +0.000 A 
ATOM     17  C   UNL     1      -3.354  16.450  23.077  0.00  0.00    +0.000 A 
ATOM     18  C   UNL     1      -2.994  15.082  22.829  0.00  0.00    +0.000 A 
ATOM     19  N   UNL     1      -1.866  12.847  19.985  0.00  0.00    +0.000 NA
ATOM     20  C   UNL     1      -1.875  11.866  19.068  0.00  0.00    +0.000 A 
ATOM     21  H   UNL     1      -5.274  12.324  17.251  0.00  0.00    +0.000 HD
ENDROOT
BRANCH   1  23
ATOM     22  C   UNL     1       1.022  10.876  20.349  0.00  0.00    +0.000 C 
ATOM     23  O   UNL     1       0.509  11.573  19.207  0.00  0.00    +0.000 OA
ENDBRANCH   1  23
BRANCH  11  24
ATOM     24  C   UNL     1      -0.604  15.401  21.115  0.00  0.00    +0.000 C 
ATOM     25  C   UNL     1       0.645  15.503  20.692  0.00  0.00    +0.000 C 
BRANCH  25  26
ATOM     26  C   UNL     1       1.683  14.519  21.075  0.00  0.00    +0.000 C 
ATOM     27  N   UNL     1       2.256  13.788  20.085  0.00  0.00    +0.000 N 
ATOM     28  O   UNL     1       1.986  14.321  22.258  0.00  0.00    +0.000 OA
ATOM     29  H   UNL     1       1.649  13.191  19.532  0.00  0.00    +0.000 HD
ATOM     30  H   UNL     1       3.114  13.320  20.350  0.00  0.00    +0.000 HD
ENDBRANCH  25  26
BRANCH  25  31
ATOM     31  C   UNL     1       1.030  16.805  20.008  0.00  0.00    +0.000 C 
ATOM     32  N   UNL     1       1.349  17.885  19.442  0.00  0.00    +0.000 NA
ENDBRANCH  25  31
ENDBRANCH  11  24
BRANCH   7  33
ATOM     33  C   UNL     1      -6.776  11.909  18.621  0.00  0.00    +0.000 C 
BRANCH  33  34
ATOM     34  C   UNL     1      -7.092  10.748  19.599  0.00  0.00    +0.000 A 
ATOM     35  C   UNL     1      -7.594  10.900  20.910  0.00  0.00    +0.000 A 
ATOM     36  C   UNL     1      -7.916   9.777  21.705  0.00  0.00    +0.000 A 
ATOM     37  C   UNL     1      -7.773   8.480  21.209  0.00  0.00    +0.000 A 
ATOM     38  C   UNL     1      -7.303   8.305  19.915  0.00  0.00    +0.000 A 
ATOM     39  C   UNL     1      -6.965   9.421  19.123  0.00  0.00    +0.000 A 
ENDBRANCH  33  34
ENDBRANCH   7  33
TORSDOF 6
ENDMDL
MODEL 6
REMARK VINA RESULT:      -7.1      4.221      6.140
REMARK  Name = 
REMARK  7 active torsions:
REMARK  status: ('A' for Active; 'I' for Inactive)
REMARK    1  A    between atoms: C_1  and  O_2
REMARK    2  A    between atoms: O_2  and  C_3
REMARK    3  A    between atoms: N_9  and  C_10
REMARK    4  A    between atoms: C_10  and  C_11
REMARK    5  A    between atoms: C_20  and  C_21
REMARK    6  A    between atoms: C_22  and  C_23
REMARK    7  A    between atoms: C_22  and  C_25
REMARK                            x       y       z     vdW  Elec       q    Type
REMARK                         _______ _______ _______ _____ _____    ______ ____
ROOT
ATOM      1  C   UNL     1      -0.704  11.196  22.764  0.00  0.00    +0.000 A 
ATOM      2  C   UNL     1      -1.032   9.913  23.218  0.00  0.00    +0.000 A 
ATOM      3  C   UNL     1      -0.621   8.807  22.506  0.00  0.00    +0.000 A 
ATOM      4  C   UNL     1       0.124   8.980  21.339  0.00  0.00    +0.000 A 
ATOM      5  C   UNL     1       0.487  10.268  20.856  0.00  0.00    +0.000 A 
ATOM      6  C   UNL     1       1.250  10.501  19.658  0.00  0.00    +0.000 A 
ATOM      7  N   UNL     1       1.853   9.294  19.186  0.00  0.00    +0.000 N 
ATOM      8  N   UNL     1       1.446  11.758  19.095  0.00  0.00    +0.000 NA
ATOM      9  C   UNL     1       0.957  12.796  19.828  0.00  0.00    +0.000 A 
ATOM     10  N   UNL     1       0.903  14.263  19.497  0.00  0.00    +0.000 N 
ATOM     11  C   UNL     1       0.347  15.060  20.493  0.00  0.00    +0.000 A 
ATOM     12  C   UNL     1      -0.827  15.391  19.819  0.00  0.00    +0.000 A 
ATOM     13  C   UNL     1      -0.215  15.978  18.653  0.00  0.00    +0.000 A 
ATOM     14  C   UNL     1      -0.515  17.206  18.001  0.00  0.00    +0.000 A 
ATOM     15  C   UNL     1       0.542  17.974  17.498  0.00  0.00    +0.000 A 
ATOM     16  C   UNL     1       1.848  17.506  17.624  0.00  0.00    +0.000 A 
ATOM     17  C   UNL     1       2.129  16.184  18.103  0.00  0.00    +0.000 A 
ATOM     18  C   UNL     1       1.058  15.324  18.521  0.00  0.00    +0.000 A 
ATOM     19  N   UNL     1       0.346  12.592  21.047  0.00  0.00    +0.000 NA
ATOM     20  C   UNL     1       0.052  11.384  21.553  0.00  0.00    +0.000 A 
ATOM     21  H   UNL     1       2.591   9.010  19.825  0.00  0.00    +0.000 HD
ENDROOT
BRANCH   1  23
ATOM     22  C   UNL     1      -2.466  12.818  23.225  0.00  0.00    +0.000 C 
ATOM     23  O   UNL     1      -1.130  12.338  23.419  0.00  0.00    +0.000 OA
ENDBRANCH   1  23
BRANCH  11  24
ATOM     24  C   UNL     1       1.290  15.477  21.466  0.00  0.00    +0.000 C 
ATOM     25  C   UNL     1       1.438  16.644  22.071  0.00  0.00    +0.000 C 
BRANCH  25  26
ATOM     26  C   UNL     1       0.605  17.818  21.721  0.00  0.00    +0.000 C 
ATOM     27  N   UNL     1      -0.596  17.947  22.340  0.00  0.00    +0.000 N 
ATOM     28  O   UNL     1       0.958  18.628  20.855  0.00  0.00    +0.000 OA
ATOM     29  H   UNL     1      -1.277  17.206  22.201  0.00  0.00    +0.000 HD
ATOM     30  H   UNL     1      -1.012  18.867  22.264  0.00  0.00    +0.000 HD
ENDBRANCH  25  26
BRANCH  25  31
ATOM     31  C   UNL     1       2.661  16.802  22.960  0.00  0.00    +0.000 C 
ATOM     32  N   UNL     1       3.675  16.932  23.698  0.00  0.00    +0.000 NA
ENDBRANCH  25  31
ENDBRANCH  11  24
BRANCH   7  33
ATOM     33  C   UNL     1       2.129   8.966  17.803  0.00  0.00    +0.000 C 
BRANCH  33  34
ATOM     34  C   UNL     1       2.844   7.602  17.631  0.00  0.00    +0.000 A 
ATOM     35  C   UNL     1       4.122   7.417  17.059  0.00  0.00    +0.000 A 
ATOM     36  C   UNL     1       4.722   6.138  17.005  0.00  0.00    +0.000 A 
ATOM     37  C   UNL     1       4.080   5.020  17.541  0.00  0.00    +0.000 A 
ATOM     38  C   UNL     1       2.834   5.180  18.130  0.00  0.00    +0.000 A 
ATOM     39  C   UNL     1       2.223   6.450  18.171  0.00  0.00    +0.000 A 
ENDBRANCH  33  34
ENDBRANCH   7  33
TORSDOF 6
ENDMDL
MODEL 7
REMARK VINA RESULT:      -7.1      3.078      6.294
REMARK  Name = 
REMARK  7 active torsions:
REMARK  status: ('A' for Active; 'I' for Inactive)
REMARK    1  A    between atoms: C_1  and  O_2
REMARK    2  A    between atoms: O_2  and  C_3
REMARK    3  A    between atoms: N_9  and  C_10
REMARK    4  A    between atoms: C_10  and  C_11
REMARK    5  A    between atoms: C_20  and  C_21
REMARK    6  A    between atoms: C_22  and  C_23
REMARK    7  A    between atoms: C_22  and  C_25
REMARK                            x       y       z     vdW  Elec       q    Type
REMARK                         _______ _______ _______ _____ _____    ______ ____
ROOT
ATOM      1  C   UNL     1      -0.464  11.190  19.171  0.00  0.00    +0.000 A 
ATOM      2  C   UNL     1      -0.303  10.106  18.299  0.00  0.00    +0.000 A 
ATOM      3  C   UNL     1      -1.376   9.649  17.564  0.00  0.00    +0.000 A 
ATOM      4  C   UNL     1      -2.614  10.279  17.696  0.00  0.00    +0.000 A 
ATOM      5  C   UNL     1      -2.811  11.391  18.561  0.00  0.00    +0.000 A 
ATOM      6  C   UNL     1      -4.066  12.072  18.735  0.00  0.00    +0.000 A 
ATOM      7  N   UNL     1      -5.002  11.701  17.721  0.00  0.00    +0.000 N 
ATOM      8  N   UNL     1      -4.297  13.036  19.712  0.00  0.00    +0.000 NA
ATOM      9  C   UNL     1      -3.201  13.389  20.438  0.00  0.00    +0.000 A 
ATOM     10  N   UNL     1      -3.090  14.316  21.618  0.00  0.00    +0.000 N 
ATOM     11  C   UNL     1      -1.798  14.467  22.114  0.00  0.00    +0.000 A 
ATOM     12  C   UNL     1      -1.990  13.790  23.317  0.00  0.00    +0.000 A 
ATOM     13  C   UNL     1      -3.077  14.596  23.816  0.00  0.00    +0.000 A 
ATOM     14  C   UNL     1      -3.255  15.168  25.105  0.00  0.00    +0.000 A 
ATOM     15  C   UNL     1      -3.811  16.449  25.200  0.00  0.00    +0.000 A 
ATOM     16  C   UNL     1      -4.197  17.115  24.039  0.00  0.00    +0.000 A 
ATOM     17  C   UNL     1      -4.198  16.460  22.763  0.00  0.00    +0.000 A 
ATOM     18  C   UNL     1      -3.741  15.103  22.647  0.00  0.00    +0.000 A 
ATOM     19  N   UNL     1      -1.961  12.841  20.184  0.00  0.00    +0.000 NA
ATOM     20  C   UNL     1      -1.742  11.835  19.323  0.00  0.00    +0.000 A 
ATOM     21  H   UNL     1      -4.704  12.083  16.827  0.00  0.00    +0.000 HD
ENDROOT
BRANCH   1  23
ATOM     22  C   UNL     1       0.958  10.930  21.135  0.00  0.00    +0.000 C 
ATOM     23  O   UNL     1       0.571  11.655  19.961  0.00  0.00    +0.000 OA
ENDBRANCH   1  23
BRANCH  11  24
ATOM     24  C   UNL     1      -1.062  15.482  21.452  0.00  0.00    +0.000 C 
ATOM     25  C   UNL     1      -0.303  16.448  21.942  0.00  0.00    +0.000 C 
BRANCH  25  26
ATOM     26  C   UNL     1      -0.171  16.676  23.399  0.00  0.00    +0.000 C 
ATOM     27  N   UNL     1      -0.831  17.735  23.935  0.00  0.00    +0.000 N 
ATOM     28  O   UNL     1       0.557  15.966  24.104  0.00  0.00    +0.000 OA
ATOM     29  H   UNL     1      -0.588  18.660  23.594  0.00  0.00    +0.000 HD
ATOM     30  H   UNL     1      -0.917  17.710  24.944  0.00  0.00    +0.000 HD
ENDBRANCH  25  26
BRANCH  25  31
ATOM     31  C   UNL     1       0.226  17.471  20.949  0.00  0.00    +0.000 C 
ATOM     32  N   UNL     1       0.664  18.319  20.125  0.00  0.00    +0.000 NA
ENDBRANCH  25  31
ENDBRANCH  11  24
BRANCH   7  33
ATOM     33  C   UNL     1      -6.440  11.639  17.872  0.00  0.00    +0.000 C 
BRANCH  33  34
ATOM     34  C   UNL     1      -6.890  10.804  19.097  0.00  0.00    +0.000 A 
ATOM     35  C   UNL     1      -7.476  11.326  20.271  0.00  0.00    +0.000 A 
ATOM     36  C   UNL     1      -7.916  10.476  21.311  0.00  0.00    +0.000 A 
ATOM     37  C   UNL     1      -7.810   9.089  21.199  0.00  0.00    +0.000 A 
ATOM     38  C   UNL     1      -7.258   8.550  20.046  0.00  0.00    +0.000 A 
ATOM     39  C   UNL     1      -6.802   9.394  19.012  0.00  0.00    +0.000 A 
ENDBRANCH  33  34
ENDBRANCH   7  33
TORSDOF 6
ENDMDL
MODEL 8
REMARK VINA RESULT:      -7.1      1.693      2.697
REMARK  Name = 
REMARK  7 active torsions:
REMARK  status: ('A' for Active; 'I' for Inactive)
REMARK    1  A    between atoms: C_1  and  O_2
REMARK    2  A    between atoms: O_2  and  C_3
REMARK    3  A    between atoms: N_9  and  C_10
REMARK    4  A    between atoms: C_10  and  C_11
REMARK    5  A    between atoms: C_20  and  C_21
REMARK    6  A    between atoms: C_22  and  C_23
REMARK    7  A    between atoms: C_22  and  C_25
REMARK                            x       y       z     vdW  Elec       q    Type
REMARK                         _______ _______ _______ _____ _____    ______ ____
ROOT
ATOM      1  C   UNL     1      -4.333  11.592  17.562  0.00  0.00    +0.000 A 
ATOM      2  C   UNL     1      -4.088  10.923  16.357  0.00  0.00    +0.000 A 
ATOM      3  C   UNL     1      -2.870  10.313  16.144  0.00  0.00    +0.000 A 
ATOM      4  C   UNL     1      -1.893  10.368  17.139  0.00  0.00    +0.000 A 
ATOM      5  C   UNL     1      -2.112  11.027  18.381  0.00  0.00    +0.000 A 
ATOM      6  C   UNL     1      -1.138  11.115  19.437  0.00  0.00    +0.000 A 
ATOM      7  N   UNL     1      -0.053  10.211  19.217  0.00  0.00    +0.000 N 
ATOM      8  N   UNL     1      -1.289  11.911  20.568  0.00  0.00    +0.000 NA
ATOM      9  C   UNL     1      -2.497  12.529  20.676  0.00  0.00    +0.000 A 
ATOM     10  N   UNL     1      -2.980  13.521  21.698  0.00  0.00    +0.000 N 
ATOM     11  C   UNL     1      -4.294  13.943  21.519  0.00  0.00    +0.000 A 
ATOM     12  C   UNL     1      -4.009  15.253  21.137  0.00  0.00    +0.000 A 
ATOM     13  C   UNL     1      -3.259  15.632  22.309  0.00  0.00    +0.000 A 
ATOM     14  C   UNL     1      -3.370  16.804  23.107  0.00  0.00    +0.000 A 
ATOM     15  C   UNL     1      -3.234  16.686  24.495  0.00  0.00    +0.000 A 
ATOM     16  C   UNL     1      -2.970  15.437  25.053  0.00  0.00    +0.000 A 
ATOM     17  C   UNL     1      -2.666  14.299  24.235  0.00  0.00    +0.000 A 
ATOM     18  C   UNL     1      -2.683  14.412  22.803  0.00  0.00    +0.000 A 
ATOM     19  N   UNL     1      -3.490  12.339  19.737  0.00  0.00    +0.000 NA
ATOM     20  C   UNL     1      -3.325  11.665  18.588  0.00  0.00    +0.000 A 
ATOM     21  H   UNL     1      -0.376   9.255  19.339  0.00  0.00    +0.000 HD
ENDROOT
BRANCH   1  23
ATOM     22  C   UNL     1      -6.742  11.515  17.934  0.00  0.00    +0.000 C 
ATOM     23  O   UNL     1      -5.522  12.256  17.805  0.00  0.00    +0.000 OA
ENDBRANCH   1  23
BRANCH  11  24
ATOM     24  C   UNL     1      -5.243  13.089  22.136  0.00  0.00    +0.000 C 
ATOM     25  C   UNL     1      -6.564  13.080  22.062  0.00  0.00    +0.000 C 
BRANCH  25  26
ATOM     26  C   UNL     1      -7.312  14.117  21.314  0.00  0.00    +0.000 C 
ATOM     27  N   UNL     1      -7.917  15.099  22.031  0.00  0.00    +0.000 N 
ATOM     28  O   UNL     1      -7.435  14.069  20.085  0.00  0.00    +0.000 OA
ATOM     29  H   UNL     1      -8.629  14.821  22.699  0.00  0.00    +0.000 HD
ATOM     30  H   UNL     1      -8.197  15.905  21.487  0.00  0.00    +0.000 HD
ENDBRANCH  25  26
BRANCH  25  31
ATOM     31  C   UNL     1      -7.293  12.112  22.981  0.00  0.00    +0.000 C 
ATOM     32  N   UNL     1      -7.897  11.310  23.742  0.00  0.00    +0.000 NA
ENDBRANCH  25  31
ENDBRANCH  11  24
BRANCH   7  33
ATOM     33  C   UNL     1       1.319  10.414  19.629  0.00  0.00    +0.000 C 
BRANCH  33  34
ATOM     34  C   UNL     1       1.848  11.836  19.312  0.00  0.00    +0.000 A 
ATOM     35  C   UNL     1       2.116  12.338  18.019  0.00  0.00    +0.000 A 
ATOM     36  C   UNL     1       2.533  13.674  17.823  0.00  0.00    +0.000 A 
ATOM     37  C   UNL     1       2.669  14.549  18.902  0.00  0.00    +0.000 A 
ATOM     38  C   UNL     1       2.390  14.087  20.180  0.00  0.00    +0.000 A 
ATOM     39  C   UNL     1       1.989  12.750  20.383  0.00  0.00    +0.000 A 
ENDBRANCH  33  34
ENDBRANCH   7  33
TORSDOF 6
ENDMDL
MODEL 9
REMARK VINA RESULT:      -7.0      5.029      6.751
REMARK  Name = 
REMARK  7 active torsions:
REMARK  status: ('A' for Active; 'I' for Inactive)
REMARK    1  A    between atoms: C_1  and  O_2
REMARK    2  A    between atoms: O_2  and  C_3
REMARK    3  A    between atoms: N_9  and  C_10
REMARK    4  A    between atoms: C_10  and  C_11
REMARK    5  A    between atoms: C_20  and  C_21
REMARK    6  A    between atoms: C_22  and  C_23
REMARK    7  A    between atoms: C_22  and  C_25
REMARK                            x       y       z     vdW  Elec       q    Type
REMARK                         _______ _______ _______ _____ _____    ______ ____
ROOT
ATOM      1  C   UNL     1      -0.793  16.872  19.134  0.00  0.00    +0.000 A 
ATOM      2  C   UNL     1      -0.395  18.151  18.728  0.00  0.00    +0.000 A 
ATOM      3  C   UNL     1       0.875  18.351  18.231  0.00  0.00    +0.000 A 
ATOM      4  C   UNL     1       1.751  17.269  18.134  0.00  0.00    +0.000 A 
ATOM      5  C   UNL     1       1.376  15.953  18.524  0.00  0.00    +0.000 A 
ATOM      6  C   UNL     1       2.241  14.805  18.447  0.00  0.00    +0.000 A 
ATOM      7  N   UNL     1       3.400  15.082  17.657  0.00  0.00    +0.000 N 
ATOM      8  N   UNL     1       1.935  13.564  18.996  0.00  0.00    +0.000 NA
ATOM      9  C   UNL     1       0.684  13.465  19.523  0.00  0.00    +0.000 A 
ATOM     10  N   UNL     1       0.045  12.326  20.271  0.00  0.00    +0.000 N 
ATOM     11  C   UNL     1      -1.272  12.555  20.657  0.00  0.00    +0.000 A 
ATOM     12  C   UNL     1      -1.041  12.648  22.028  0.00  0.00    +0.000 A 
ATOM     13  C   UNL     1      -0.429  11.354  22.204  0.00  0.00    +0.000 A 
ATOM     14  C   UNL     1      -0.689  10.362  23.189  0.00  0.00    +0.000 A 
ATOM     15  C   UNL     1      -0.674   9.015  22.805  0.00  0.00    +0.000 A 
ATOM     16  C   UNL     1      -0.379   8.684  21.485  0.00  0.00    +0.000 A 
ATOM     17  C   UNL     1       0.073   9.669  20.546  0.00  0.00    +0.000 A 
ATOM     18  C   UNL     1       0.179  11.046  20.939  0.00  0.00    +0.000 A 
ATOM     19  N   UNL     1      -0.204  14.519  19.476  0.00  0.00    +0.000 NA
ATOM     20  C   UNL     1       0.110  15.754  19.050  0.00  0.00    +0.000 A 
ATOM     21  H   UNL     1       3.130  15.179  16.682  0.00  0.00    +0.000 HD
ENDROOT
BRANCH   1  23
ATOM     22  C   UNL     1      -2.484  17.383  20.815  0.00  0.00    +0.000 C 
ATOM     23  O   UNL     1      -2.041  16.630  19.680  0.00  0.00    +0.000 OA
ENDBRANCH   1  23
BRANCH  11  24
ATOM     24  C   UNL     1      -2.215  12.214  19.654  0.00  0.00    +0.000 C 
ATOM     25  C   UNL     1      -3.507  12.485  19.564  0.00  0.00    +0.000 C 
BRANCH  25  26
ATOM     26  C   UNL     1      -4.237  13.181  20.649  0.00  0.00    +0.000 C 
ATOM     27  N   UNL     1      -4.889  12.416  21.562  0.00  0.00    +0.000 N 
ATOM     28  O   UNL     1      -4.304  14.415  20.699  0.00  0.00    +0.000 OA
ATOM     29  H   UNL     1      -5.626  11.806  21.223  0.00  0.00    +0.000 HD
ATOM     30  H   UNL     1      -5.157  12.907  22.407  0.00  0.00    +0.000 HD
ENDBRANCH  25  26
BRANCH  25  31
ATOM     31  C   UNL     1      -4.264  11.832  18.419  0.00  0.00    +0.000 C 
ATOM     32  N   UNL     1      -4.890  11.290  17.469  0.00  0.00    +0.000 NA
ENDBRANCH  25  31
ENDBRANCH  11  24
BRANCH   7  33
ATOM     33  C   UNL     1       4.712  14.500  17.839  0.00  0.00    +0.000 C 
BRANCH  33  34
ATOM     34  C   UNL     1       5.777  15.527  18.299  0.00  0.00    +0.000 A 
ATOM     35  C   UNL     1       5.567  16.553  19.247  0.00  0.00    +0.000 A 
ATOM     36  C   UNL     1       6.620  17.403  19.653  0.00  0.00    +0.000 A 
ATOM     37  C   UNL     1       7.912  17.237  19.150  0.00  0.00    +0.000 A 
ATOM     38  C   UNL     1       8.150  16.222  18.234  0.00  0.00    +0.000 A 
ATOM     39  C   UNL     1       7.099  15.382  17.813  0.00  0.00    +0.000 A 
ENDBRANCH  33  34
ENDBRANCH   7  33
TORSDOF 6
ENDMDL
