MODEL 1
REMARK VINA RESULT:     -10.3      0.000      0.000
REMARK  Name = 
REMARK  3 active torsions:
REMARK  status: ('A' for Active; 'I' for Inactive)
REMARK    1  A    between atoms: C_2  and  C_16
REMARK    2  A    between atoms: N_3  and  N_4
REMARK    3  A    between atoms: C_5  and  C_6
REMARK                            x       y       z     vdW  Elec       q    Type
REMARK                         _______ _______ _______ _____ _____    ______ ____
ROOT
ATOM      1  O   UNL     1       8.193   6.627  18.953  0.00  0.00    +0.000 OA
ATOM      2  C   UNL     1       7.405   6.816  18.025  0.00  0.00    +0.000 C 
ATOM      3  N   UNL     1       7.416   7.935  17.202  0.00  0.00    +0.000 N 
ATOM      4  H   UNL     1       6.734   8.021  16.454  0.00  0.00    +0.000 HD
ENDROOT
BRANCH   2   5
ATOM      5  C   UNL     1       6.347   5.796  17.742  0.00  0.00    +0.000 A 
ATOM      6  C   UNL     1       5.367   5.603  18.712  0.00  0.00    +0.000 A 
ATOM      7  C   UNL     1       4.386   4.645  18.446  0.00  0.00    +0.000 A 
ATOM      8  C   UNL     1       4.460   3.941  17.247  0.00  0.00    +0.000 A 
ATOM      9  C   UNL     1       5.461   4.177  16.307  0.00  0.00    +0.000 A 
ATOM     10  N   UNL     1       6.407   5.120  16.560  0.00  0.00    +0.000 NA
ATOM     11  N   UNL     1       3.405   3.053  17.243  0.00  0.00    +0.000 N 
ATOM     12  C   UNL     1       2.643   3.185  18.384  0.00  0.00    +0.000 A 
ATOM     13  C   UNL     1       1.486   2.507  18.790  0.00  0.00    +0.000 A 
ATOM     14  C   UNL     1       0.914   2.871  20.015  0.00  0.00    +0.000 A 
ATOM     15  C   UNL     1       1.482   3.868  20.804  0.00  0.00    +0.000 A 
ATOM     16  C   UNL     1       2.644   4.528  20.390  0.00  0.00    +0.000 A 
ATOM     17  C   UNL     1       3.235   4.182  19.156  0.00  0.00    +0.000 A 
ATOM     18  H   UNL     1       3.204   2.395  16.504  0.00  0.00    +0.000 HD
ENDBRANCH   2   5
BRANCH   3  19
ATOM     19  N   UNL     1       8.369   8.883  17.434  0.00  0.00    +0.000 NA
ATOM     20  C   UNL     1       8.143   9.774  18.340  0.00  0.00    +0.000 C 
BRANCH  20  21
ATOM     21  C   UNL     1       9.152  10.828  18.616  0.00  0.00    +0.000 A 
ATOM     22  C   UNL     1       9.732  10.911  19.881  0.00  0.00    +0.000 A 
ATOM     23  C   UNL     1      10.675  11.911  20.148  0.00  0.00    +0.000 A 
ATOM     24  C   UNL     1      11.045  12.841  19.161  0.00  0.00    +0.000 A 
ATOM     25  C   UNL     1      11.983  13.855  19.419  0.00  0.00    +0.000 A 
ATOM     26  C   UNL     1      12.332  14.777  18.429  0.00  0.00    +0.000 A 
ATOM     27  C   UNL     1      11.752  14.694  17.167  0.00  0.00    +0.000 A 
ATOM     28  C   UNL     1      10.823  13.688  16.892  0.00  0.00    +0.000 A 
ATOM     29  C   UNL     1      10.458  12.754  17.877  0.00  0.00    +0.000 A 
ATOM     30  C   UNL     1       9.517  11.742  17.619  0.00  0.00    +0.000 A 
ENDBRANCH  20  21
ENDBRANCH   3  19
TORSDOF 3
ENDMDL
MODEL 2
REMARK VINA RESULT:      -9.7      0.879      1.314
REMARK  Name = 
REMARK  3 active torsions:
REMARK  status: ('A' for Active; 'I' for Inactive)
REMARK    1  A    between atoms: C_2  and  C_16
REMARK    2  A    between atoms: N_3  and  N_4
REMARK    3  A    between atoms: C_5  and  C_6
REMARK                            x       y       z     vdW  Elec       q    Type
REMARK                         _______ _______ _______ _____ _____    ______ ____
ROOT
ATOM      1  O   UNL     1       8.229   6.515  18.935  0.00  0.00    +0.000 OA
ATOM      2  C   UNL     1       7.407   6.863  18.086  0.00  0.00    +0.000 C 
ATOM      3  N   UNL     1       7.434   8.083  17.421  0.00  0.00    +0.000 N 
ATOM      4  H   UNL     1       6.721   8.301  16.732  0.00  0.00    +0.000 HD
ENDROOT
BRANCH   2   5
ATOM      5  C   UNL     1       6.286   5.939  17.728  0.00  0.00    +0.000 A 
ATOM      6  C   UNL     1       5.322   5.694  18.702  0.00  0.00    +0.000 A 
ATOM      7  C   UNL     1       4.281   4.825  18.365  0.00  0.00    +0.000 A 
ATOM      8  C   UNL     1       4.285   4.253  17.095  0.00  0.00    +0.000 A 
ATOM      9  C   UNL     1       5.274   4.536  16.156  0.00  0.00    +0.000 A 
ATOM     10  N   UNL     1       6.278   5.393  16.479  0.00  0.00    +0.000 NA
ATOM     11  N   UNL     1       3.181   3.429  17.029  0.00  0.00    +0.000 N 
ATOM     12  C   UNL     1       2.458   3.476  18.201  0.00  0.00    +0.000 A 
ATOM     13  C   UNL     1       1.274   2.821  18.568  0.00  0.00    +0.000 A 
ATOM     14  C   UNL     1       0.755   3.079  19.842  0.00  0.00    +0.000 A 
ATOM     15  C   UNL     1       1.398   3.952  20.716  0.00  0.00    +0.000 A 
ATOM     16  C   UNL     1       2.585   4.590  20.338  0.00  0.00    +0.000 A 
ATOM     17  C   UNL     1       3.125   4.350  19.057  0.00  0.00    +0.000 A 
ATOM     18  H   UNL     1       2.925   2.867  16.230  0.00  0.00    +0.000 HD
ENDBRANCH   2   5
BRANCH   3  19
ATOM     19  N   UNL     1       8.444   8.948  17.725  0.00  0.00    +0.000 NA
ATOM     20  C   UNL     1       8.150  10.185  17.950  0.00  0.00    +0.000 C 
BRANCH  20  21
ATOM     21  C   UNL     1       9.222  11.158  18.275  0.00  0.00    +0.000 A 
ATOM     22  C   UNL     1      10.490  10.999  17.716  0.00  0.00    +0.000 A 
ATOM     23  C   UNL     1      11.507  11.908  18.031  0.00  0.00    +0.000 A 
ATOM     24  C   UNL     1      11.273  12.982  18.908  0.00  0.00    +0.000 A 
ATOM     25  C   UNL     1      12.288  13.895  19.240  0.00  0.00    +0.000 A 
ATOM     26  C   UNL     1      12.042  14.951  20.121  0.00  0.00    +0.000 A 
ATOM     27  C   UNL     1      10.776  15.109  20.679  0.00  0.00    +0.000 A 
ATOM     28  C   UNL     1       9.756  14.213  20.356  0.00  0.00    +0.000 A 
ATOM     29  C   UNL     1       9.987  13.144  19.473  0.00  0.00    +0.000 A 
ATOM     30  C   UNL     1       8.972  12.228  19.144  0.00  0.00    +0.000 A 
ENDBRANCH  20  21
ENDBRANCH   3  19
TORSDOF 3
ENDMDL
MODEL 3
REMARK VINA RESULT:      -9.0      2.555     11.082
REMARK  Name = 
REMARK  3 active torsions:
REMARK  status: ('A' for Active; 'I' for Inactive)
REMARK    1  A    between atoms: C_2  and  C_16
REMARK    2  A    between atoms: N_3  and  N_4
REMARK    3  A    between atoms: C_5  and  C_6
REMARK                            x       y       z     vdW  Elec       q    Type
REMARK                         _______ _______ _______ _____ _____    ______ ____
ROOT
ATOM      1  O   UNL     1       9.219  10.542  19.894  0.00  0.00    +0.000 OA
ATOM      2  C   UNL     1       9.297  10.770  18.686  0.00  0.00    +0.000 C 
ATOM      3  N   UNL     1       8.722   9.980  17.698  0.00  0.00    +0.000 N 
ATOM      4  H   UNL     1       8.829  10.232  16.721  0.00  0.00    +0.000 HD
ENDROOT
BRANCH   2   5
ATOM      5  C   UNL     1      10.062  11.967  18.214  0.00  0.00    +0.000 A 
ATOM      6  C   UNL     1       9.466  13.214  18.380  0.00  0.00    +0.000 A 
ATOM      7  C   UNL     1      10.182  14.328  17.931  0.00  0.00    +0.000 A 
ATOM      8  C   UNL     1      11.425  14.118  17.340  0.00  0.00    +0.000 A 
ATOM      9  C   UNL     1      11.978  12.847  17.202  0.00  0.00    +0.000 A 
ATOM     10  N   UNL     1      11.288  11.765  17.652  0.00  0.00    +0.000 NA
ATOM     11  N   UNL     1      11.901  15.358  16.968  0.00  0.00    +0.000 N 
ATOM     12  C   UNL     1      11.019  16.354  17.328  0.00  0.00    +0.000 A 
ATOM     13  C   UNL     1      11.098  17.744  17.164  0.00  0.00    +0.000 A 
ATOM     14  C   UNL     1      10.039  18.519  17.649  0.00  0.00    +0.000 A 
ATOM     15  C   UNL     1       8.942  17.926  18.269  0.00  0.00    +0.000 A 
ATOM     16  C   UNL     1       8.873  16.536  18.417  0.00  0.00    +0.000 A 
ATOM     17  C   UNL     1       9.931  15.735  17.939  0.00  0.00    +0.000 A 
ATOM     18  H   UNL     1      12.781  15.525  16.502  0.00  0.00    +0.000 HD
ENDBRANCH   2   5
BRANCH   3  19
ATOM     19  N   UNL     1       8.018   8.882  18.096  0.00  0.00    +0.000 NA
ATOM     20  C   UNL     1       7.611   8.051  17.196  0.00  0.00    +0.000 C 
BRANCH  20  21
ATOM     21  C   UNL     1       6.834   6.849  17.589  0.00  0.00    +0.000 A 
ATOM     22  C   UNL     1       7.507   5.702  18.012  0.00  0.00    +0.000 A 
ATOM     23  C   UNL     1       6.778   4.562  18.371  0.00  0.00    +0.000 A 
ATOM     24  C   UNL     1       5.373   4.551  18.308  0.00  0.00    +0.000 A 
ATOM     25  C   UNL     1       4.630   3.410  18.657  0.00  0.00    +0.000 A 
ATOM     26  C   UNL     1       3.235   3.412  18.579  0.00  0.00    +0.000 A 
ATOM     27  C   UNL     1       2.565   4.557  18.156  0.00  0.00    +0.000 A 
ATOM     28  C   UNL     1       3.288   5.700  17.812  0.00  0.00    +0.000 A 
ATOM     29  C   UNL     1       4.692   5.714  17.881  0.00  0.00    +0.000 A 
ATOM     30  C   UNL     1       5.435   6.855  17.529  0.00  0.00    +0.000 A 
ENDBRANCH  20  21
ENDBRANCH   3  19
TORSDOF 3
ENDMDL
MODEL 4
REMARK VINA RESULT:      -9.0      1.166      1.740
REMARK  Name = 
REMARK  3 active torsions:
REMARK  status: ('A' for Active; 'I' for Inactive)
REMARK    1  A    between atoms: C_2  and  C_16
REMARK    2  A    between atoms: N_3  and  N_4
REMARK    3  A    between atoms: C_5  and  C_6
REMARK                            x       y       z     vdW  Elec       q    Type
REMARK                         _______ _______ _______ _____ _____    ______ ____
ROOT
ATOM      1  O   UNL     1       6.136   8.266  16.632  0.00  0.00    +0.000 OA
ATOM      2  C   UNL     1       6.648   7.360  17.291  0.00  0.00    +0.000 C 
ATOM      3  N   UNL     1       7.845   7.474  17.986  0.00  0.00    +0.000 N 
ATOM      4  H   UNL     1       8.205   6.681  18.509  0.00  0.00    +0.000 HD
ENDROOT
BRANCH   2   5
ATOM      5  C   UNL     1       5.963   6.031  17.364  0.00  0.00    +0.000 A 
ATOM      6  C   UNL     1       4.831   5.937  18.168  0.00  0.00    +0.000 A 
ATOM      7  C   UNL     1       4.200   4.692  18.238  0.00  0.00    +0.000 A 
ATOM      8  C   UNL     1       4.748   3.633  17.519  0.00  0.00    +0.000 A 
ATOM      9  C   UNL     1       5.883   3.784  16.724  0.00  0.00    +0.000 A 
ATOM     10  N   UNL     1       6.488   4.998  16.645  0.00  0.00    +0.000 NA
ATOM     11  N   UNL     1       3.962   2.530  17.777  0.00  0.00    +0.000 N 
ATOM     12  C   UNL     1       2.915   2.853  18.613  0.00  0.00    +0.000 A 
ATOM     13  C   UNL     1       1.876   2.061  19.119  0.00  0.00    +0.000 A 
ATOM     14  C   UNL     1       0.932   2.677  19.949  0.00  0.00    +0.000 A 
ATOM     15  C   UNL     1       1.028   4.031  20.263  0.00  0.00    +0.000 A 
ATOM     16  C   UNL     1       2.077   4.806  19.757  0.00  0.00    +0.000 A 
ATOM     17  C   UNL     1       3.038   4.208  18.915  0.00  0.00    +0.000 A 
ATOM     18  H   UNL     1       4.121   1.606  17.402  0.00  0.00    +0.000 HD
ENDBRANCH   2   5
BRANCH   3  19
ATOM     19  N   UNL     1       8.493   8.673  17.939  0.00  0.00    +0.000 NA
ATOM     20  C   UNL     1       8.750   9.279  19.050  0.00  0.00    +0.000 C 
BRANCH  20  21
ATOM     21  C   UNL     1       9.446  10.590  19.040  0.00  0.00    +0.000 A 
ATOM     22  C   UNL     1      10.191  10.966  17.922  0.00  0.00    +0.000 A 
ATOM     23  C   UNL     1      10.858  12.196  17.914  0.00  0.00    +0.000 A 
ATOM     24  C   UNL     1      10.796  13.062  19.020  0.00  0.00    +0.000 A 
ATOM     25  C   UNL     1      11.470  14.295  19.029  0.00  0.00    +0.000 A 
ATOM     26  C   UNL     1      11.405  15.138  20.140  0.00  0.00    +0.000 A 
ATOM     27  C   UNL     1      10.663  14.763  21.255  0.00  0.00    +0.000 A 
ATOM     28  C   UNL     1       9.983  13.543  21.261  0.00  0.00    +0.000 A 
ATOM     29  C   UNL     1      10.039  12.681  20.152  0.00  0.00    +0.000 A 
ATOM     30  C   UNL     1       9.367  11.446  20.146  0.00  0.00    +0.000 A 
ENDBRANCH  20  21
ENDBRANCH   3  19
TORSDOF 3
ENDMDL
MODEL 5
REMARK VINA RESULT:      -9.0      1.389      1.552
REMARK  Name = 
REMARK  3 active torsions:
REMARK  status: ('A' for Active; 'I' for Inactive)
REMARK    1  A    between atoms: C_2  and  C_16
REMARK    2  A    between atoms: N_3  and  N_4
REMARK    3  A    between atoms: C_5  and  C_6
REMARK                            x       y       z     vdW  Elec       q    Type
REMARK                         _______ _______ _______ _____ _____    ______ ____
ROOT
ATOM      1  O   UNL     1       6.701   8.933  16.936  0.00  0.00    +0.000 OA
ATOM      2  C   UNL     1       7.247   7.980  17.494  0.00  0.00    +0.000 C 
ATOM      3  N   UNL     1       8.390   8.080  18.278  0.00  0.00    +0.000 N 
ATOM      4  H   UNL     1       8.784   7.249  18.709  0.00  0.00    +0.000 HD
ENDROOT
BRANCH   2   5
ATOM      5  C   UNL     1       6.673   6.608  17.333  0.00  0.00    +0.000 A 
ATOM      6  C   UNL     1       5.383   6.394  17.811  0.00  0.00    +0.000 A 
ATOM      7  C   UNL     1       4.854   5.109  17.664  0.00  0.00    +0.000 A 
ATOM      8  C   UNL     1       5.648   4.132  17.069  0.00  0.00    +0.000 A 
ATOM      9  C   UNL     1       6.933   4.402  16.603  0.00  0.00    +0.000 A 
ATOM     10  N   UNL     1       7.442   5.656  16.733  0.00  0.00    +0.000 NA
ATOM     11  N   UNL     1       4.911   2.967  17.069  0.00  0.00    +0.000 N 
ATOM     12  C   UNL     1       3.663   3.172  17.617  0.00  0.00    +0.000 A 
ATOM     13  C   UNL     1       2.593   2.286  17.803  0.00  0.00    +0.000 A 
ATOM     14  C   UNL     1       1.423   2.789  18.383  0.00  0.00    +0.000 A 
ATOM     15  C   UNL     1       1.330   4.125  18.767  0.00  0.00    +0.000 A 
ATOM     16  C   UNL     1       2.410   4.995  18.583  0.00  0.00    +0.000 A 
ATOM     17  C   UNL     1       3.598   4.511  17.995  0.00  0.00    +0.000 A 
ATOM     18  H   UNL     1       5.231   2.079  16.711  0.00  0.00    +0.000 HD
ENDBRANCH   2   5
BRANCH   3  19
ATOM     19  N   UNL     1       8.938   9.318  18.445  0.00  0.00    +0.000 NA
ATOM     20  C   UNL     1       9.052   9.785  19.643  0.00  0.00    +0.000 C 
BRANCH  20  21
ATOM     21  C   UNL     1       9.636  11.132  19.864  0.00  0.00    +0.000 A 
ATOM     22  C   UNL     1       9.491  11.750  21.106  0.00  0.00    +0.000 A 
ATOM     23  C   UNL     1      10.029  13.025  21.315  0.00  0.00    +0.000 A 
ATOM     24  C   UNL     1      10.712  13.700  20.288  0.00  0.00    +0.000 A 
ATOM     25  C   UNL     1      11.249  14.985  20.481  0.00  0.00    +0.000 A 
ATOM     26  C   UNL     1      11.916  15.645  19.447  0.00  0.00    +0.000 A 
ATOM     27  C   UNL     1      12.059  15.029  18.207  0.00  0.00    +0.000 A 
ATOM     28  C   UNL     1      11.537  13.751  18.000  0.00  0.00    +0.000 A 
ATOM     29  C   UNL     1      10.860  13.073  19.029  0.00  0.00    +0.000 A 
ATOM     30  C   UNL     1      10.321  11.789  18.834  0.00  0.00    +0.000 A 
ENDBRANCH  20  21
ENDBRANCH   3  19
TORSDOF 3
ENDMDL
MODEL 6
REMARK VINA RESULT:      -8.8      1.934      2.645
REMARK  Name = 
REMARK  3 active torsions:
REMARK  status: ('A' for Active; 'I' for Inactive)
REMARK    1  A    between atoms: C_2  and  C_16
REMARK    2  A    between atoms: N_3  and  N_4
REMARK    3  A    between atoms: C_5  and  C_6
REMARK                            x       y       z     vdW  Elec       q    Type
REMARK                         _______ _______ _______ _____ _____    ______ ____
ROOT
ATOM      1  O   UNL     1       7.284   9.114  17.009  0.00  0.00    +0.000 OA
ATOM      2  C   UNL     1       7.667   8.199  17.739  0.00  0.00    +0.000 C 
ATOM      3  N   UNL     1       8.658   8.328  18.704  0.00  0.00    +0.000 N 
ATOM      4  H   UNL     1       8.921   7.527  19.271  0.00  0.00    +0.000 HD
ENDROOT
BRANCH   2   5
ATOM      5  C   UNL     1       7.051   6.842  17.599  0.00  0.00    +0.000 A 
ATOM      6  C   UNL     1       5.678   6.738  17.807  0.00  0.00    +0.000 A 
ATOM      7  C   UNL     1       5.110   5.467  17.681  0.00  0.00    +0.000 A 
ATOM      8  C   UNL     1       5.946   4.397  17.375  0.00  0.00    +0.000 A 
ATOM      9  C   UNL     1       7.315   4.559  17.172  0.00  0.00    +0.000 A 
ATOM     10  N   UNL     1       7.866   5.797  17.280  0.00  0.00    +0.000 NA
ATOM     11  N   UNL     1       5.151   3.271  17.336  0.00  0.00    +0.000 N 
ATOM     12  C   UNL     1       3.832   3.588  17.577  0.00  0.00    +0.000 A 
ATOM     13  C   UNL     1       2.692   2.774  17.619  0.00  0.00    +0.000 A 
ATOM     14  C   UNL     1       1.462   3.389  17.879  0.00  0.00    +0.000 A 
ATOM     15  C   UNL     1       1.377   4.763  18.094  0.00  0.00    +0.000 A 
ATOM     16  C   UNL     1       2.526   5.560  18.059  0.00  0.00    +0.000 A 
ATOM     17  C   UNL     1       3.777   4.964  17.794  0.00  0.00    +0.000 A 
ATOM     18  H   UNL     1       5.481   2.336  17.147  0.00  0.00    +0.000 HD
ENDBRANCH   2   5
BRANCH   3  19
ATOM     19  N   UNL     1       9.238   9.552  18.857  0.00  0.00    +0.000 NA
ATOM     20  C   UNL     1       9.015  10.209  19.945  0.00  0.00    +0.000 C 
BRANCH  20  21
ATOM     21  C   UNL     1       9.623  11.549  20.144  0.00  0.00    +0.000 A 
ATOM     22  C   UNL     1      10.621  11.989  19.275  0.00  0.00    +0.000 A 
ATOM     23  C   UNL     1      11.205  13.246  19.467  0.00  0.00    +0.000 A 
ATOM     24  C   UNL     1      10.805  14.076  20.530  0.00  0.00    +0.000 A 
ATOM     25  C   UNL     1      11.390  15.337  20.740  0.00  0.00    +0.000 A 
ATOM     26  C   UNL     1      10.987  16.145  21.805  0.00  0.00    +0.000 A 
ATOM     27  C   UNL     1       9.992  15.705  22.673  0.00  0.00    +0.000 A 
ATOM     28  C   UNL     1       9.396  14.458  22.475  0.00  0.00    +0.000 A 
ATOM     29  C   UNL     1       9.792  13.631  21.409  0.00  0.00    +0.000 A 
ATOM     30  C   UNL     1       9.208  12.368  21.202  0.00  0.00    +0.000 A 
ENDBRANCH  20  21
ENDBRANCH   3  19
TORSDOF 3
ENDMDL
MODEL 7
REMARK VINA RESULT:      -8.7      1.478      2.066
REMARK  Name = 
REMARK  3 active torsions:
REMARK  status: ('A' for Active; 'I' for Inactive)
REMARK    1  A    between atoms: C_2  and  C_16
REMARK    2  A    between atoms: N_3  and  N_4
REMARK    3  A    between atoms: C_5  and  C_6
REMARK                            x       y       z     vdW  Elec       q    Type
REMARK                         _______ _______ _______ _____ _____    ______ ____
ROOT
ATOM      1  O   UNL     1       7.084   8.982  17.179  0.00  0.00    +0.000 OA
ATOM      2  C   UNL     1       7.449   7.958  17.758  0.00  0.00    +0.000 C 
ATOM      3  N   UNL     1       8.449   7.916  18.721  0.00  0.00    +0.000 N 
ATOM      4  H   UNL     1       8.697   7.032  19.157  0.00  0.00    +0.000 HD
ENDROOT
BRANCH   2   5
ATOM      5  C   UNL     1       6.799   6.653  17.421  0.00  0.00    +0.000 A 
ATOM      6  C   UNL     1       5.560   6.387  17.996  0.00  0.00    +0.000 A 
ATOM      7  C   UNL     1       4.960   5.164  17.683  0.00  0.00    +0.000 A 
ATOM      8  C   UNL     1       5.641   4.293  16.838  0.00  0.00    +0.000 A 
ATOM      9  C   UNL     1       6.880   4.611  16.284  0.00  0.00    +0.000 A 
ATOM     10  N   UNL     1       7.456   5.807  16.577  0.00  0.00    +0.000 NA
ATOM     11  N   UNL     1       4.856   3.166  16.714  0.00  0.00    +0.000 N 
ATOM     12  C   UNL     1       3.685   3.299  17.427  0.00  0.00    +0.000 A 
ATOM     13  C   UNL     1       2.603   2.420  17.573  0.00  0.00    +0.000 A 
ATOM     14  C   UNL     1       1.526   2.839  18.363  0.00  0.00    +0.000 A 
ATOM     15  C   UNL     1       1.534   4.084  18.987  0.00  0.00    +0.000 A 
ATOM     16  C   UNL     1       2.627   4.946  18.839  0.00  0.00    +0.000 A 
ATOM     17  C   UNL     1       3.722   4.548  18.044  0.00  0.00    +0.000 A 
ATOM     18  H   UNL     1       5.096   2.351  16.169  0.00  0.00    +0.000 HD
ENDBRANCH   2   5
BRANCH   3  19
ATOM     19  N   UNL     1       9.061   9.089  19.051  0.00  0.00    +0.000 NA
ATOM     20  C   UNL     1       9.024  10.063  18.205  0.00  0.00    +0.000 C 
BRANCH  20  21
ATOM     21  C   UNL     1       9.686  11.353  18.524  0.00  0.00    +0.000 A 
ATOM     22  C   UNL     1      10.592  11.905  17.618  0.00  0.00    +0.000 A 
ATOM     23  C   UNL     1      11.227  13.114  17.921  0.00  0.00    +0.000 A 
ATOM     24  C   UNL     1      10.971  13.784  19.131  0.00  0.00    +0.000 A 
ATOM     25  C   UNL     1      11.610  14.995  19.452  0.00  0.00    +0.000 A 
ATOM     26  C   UNL     1      11.351  15.642  20.662  0.00  0.00    +0.000 A 
ATOM     27  C   UNL     1      10.448  15.090  21.566  0.00  0.00    +0.000 A 
ATOM     28  C   UNL     1       9.801  13.892  21.260  0.00  0.00    +0.000 A 
ATOM     29  C   UNL     1      10.052  13.225  20.047  0.00  0.00    +0.000 A 
ATOM     30  C   UNL     1       9.414  12.013  19.729  0.00  0.00    +0.000 A 
ENDBRANCH  20  21
ENDBRANCH   3  19
TORSDOF 3
ENDMDL
MODEL 8
REMARK VINA RESULT:      -8.7      1.206      1.440
REMARK  Name = 
REMARK  3 active torsions:
REMARK  status: ('A' for Active; 'I' for Inactive)
REMARK    1  A    between atoms: C_2  and  C_16
REMARK    2  A    between atoms: N_3  and  N_4
REMARK    3  A    between atoms: C_5  and  C_6
REMARK                            x       y       z     vdW  Elec       q    Type
REMARK                         _______ _______ _______ _____ _____    ______ ____
ROOT
ATOM      1  O   UNL     1       8.643   7.622  18.964  0.00  0.00    +0.000 OA
ATOM      2  C   UNL     1       7.779   7.747  18.095  0.00  0.00    +0.000 C 
ATOM      3  N   UNL     1       7.399   8.961  17.535  0.00  0.00    +0.000 N 
ATOM      4  H   UNL     1       6.678   8.985  16.821  0.00  0.00    +0.000 HD
ENDROOT
BRANCH   2   5
ATOM      5  C   UNL     1       7.065   6.532  17.591  0.00  0.00    +0.000 A 
ATOM      6  C   UNL     1       6.052   6.008  18.389  0.00  0.00    +0.000 A 
ATOM      7  C   UNL     1       5.393   4.870  17.917  0.00  0.00    +0.000 A 
ATOM      8  C   UNL     1       5.798   4.331  16.699  0.00  0.00    +0.000 A 
ATOM      9  C   UNL     1       6.817   4.899  15.937  0.00  0.00    +0.000 A 
ATOM     10  N   UNL     1       7.448   6.015  16.390  0.00  0.00    +0.000 NA
ATOM     11  N   UNL     1       5.017   3.216  16.480  0.00  0.00    +0.000 N 
ATOM     12  C   UNL     1       4.108   3.040  17.500  0.00  0.00    +0.000 A 
ATOM     13  C   UNL     1       3.121   2.061  17.683  0.00  0.00    +0.000 A 
ATOM     14  C   UNL     1       2.324   2.147  18.830  0.00  0.00    +0.000 A 
ATOM     15  C   UNL     1       2.510   3.168  19.759  0.00  0.00    +0.000 A 
ATOM     16  C   UNL     1       3.506   4.132  19.567  0.00  0.00    +0.000 A 
ATOM     17  C   UNL     1       4.319   4.069  18.416  0.00  0.00    +0.000 A 
ATOM     18  H   UNL     1       5.089   2.607  15.677  0.00  0.00    +0.000 HD
ENDBRANCH   2   5
BRANCH   3  19
ATOM     19  N   UNL     1       8.032  10.086  17.974  0.00  0.00    +0.000 NA
ATOM     20  C   UNL     1       9.303  10.194  17.780  0.00  0.00    +0.000 C 
BRANCH  20  21
ATOM     21  C   UNL     1      10.029  11.401  18.250  0.00  0.00    +0.000 A 
ATOM     22  C   UNL     1      11.090  11.261  19.145  0.00  0.00    +0.000 A 
ATOM     23  C   UNL     1      11.768  12.398  19.600  0.00  0.00    +0.000 A 
ATOM     24  C   UNL     1      11.395  13.685  19.173  0.00  0.00    +0.000 A 
ATOM     25  C   UNL     1      12.061  14.834  19.630  0.00  0.00    +0.000 A 
ATOM     26  C   UNL     1      11.671  16.106  19.203  0.00  0.00    +0.000 A 
ATOM     27  C   UNL     1      10.612  16.244  18.311  0.00  0.00    +0.000 A 
ATOM     28  C   UNL     1       9.943  15.112  17.843  0.00  0.00    +0.000 A 
ATOM     29  C   UNL     1      10.320  13.825  18.264  0.00  0.00    +0.000 A 
ATOM     30  C   UNL     1       9.651  12.675  17.809  0.00  0.00    +0.000 A 
ENDBRANCH  20  21
ENDBRANCH   3  19
TORSDOF 3
ENDMDL
MODEL 9
REMARK VINA RESULT:      -8.7      1.650      1.988
REMARK  Name = 
REMARK  3 active torsions:
REMARK  status: ('A' for Active; 'I' for Inactive)
REMARK    1  A    between atoms: C_2  and  C_16
REMARK    2  A    between atoms: N_3  and  N_4
REMARK    3  A    between atoms: C_5  and  C_6
REMARK                            x       y       z     vdW  Elec       q    Type
REMARK                         _______ _______ _______ _____ _____    ______ ____
ROOT
ATOM      1  O   UNL     1       7.099   8.700  16.877  0.00  0.00    +0.000 OA
ATOM      2  C   UNL     1       7.513   8.034  17.827  0.00  0.00    +0.000 C 
ATOM      3  N   UNL     1       8.497   8.455  18.712  0.00  0.00    +0.000 N 
ATOM      4  H   UNL     1       8.787   7.850  19.474  0.00  0.00    +0.000 HD
ENDROOT
BRANCH   2   5
ATOM      5  C   UNL     1       6.943   6.671  18.069  0.00  0.00    +0.000 A 
ATOM      6  C   UNL     1       5.564   6.523  17.951  0.00  0.00    +0.000 A 
ATOM      7  C   UNL     1       5.038   5.250  18.186  0.00  0.00    +0.000 A 
ATOM      8  C   UNL     1       5.915   4.227  18.534  0.00  0.00    +0.000 A 
ATOM      9  C   UNL     1       7.290   4.429  18.633  0.00  0.00    +0.000 A 
ATOM     10  N   UNL     1       7.804   5.664  18.391  0.00  0.00    +0.000 NA
ATOM     11  N   UNL     1       5.149   3.097  18.732  0.00  0.00    +0.000 N 
ATOM     12  C   UNL     1       3.816   3.356  18.495  0.00  0.00    +0.000 A 
ATOM     13  C   UNL     1       2.699   2.513  18.560  0.00  0.00    +0.000 A 
ATOM     14  C   UNL     1       1.450   3.062  18.247  0.00  0.00    +0.000 A 
ATOM     15  C   UNL     1       1.323   4.402  17.889  0.00  0.00    +0.000 A 
ATOM     16  C   UNL     1       2.448   5.234  17.839  0.00  0.00    +0.000 A 
ATOM     17  C   UNL     1       3.718   4.702  18.146  0.00  0.00    +0.000 A 
ATOM     18  H   UNL     1       5.508   2.195  19.007  0.00  0.00    +0.000 HD
ENDBRANCH   2   5
BRANCH   3  19
ATOM     19  N   UNL     1       9.036   9.693  18.518  0.00  0.00    +0.000 NA
ATOM     20  C   UNL     1       9.476  10.342  19.543  0.00  0.00    +0.000 C 
BRANCH  20  21
ATOM     21  C   UNL     1      10.062  11.695  19.373  0.00  0.00    +0.000 A 
ATOM     22  C   UNL     1      11.367  11.939  19.799  0.00  0.00    +0.000 A 
ATOM     23  C   UNL     1      11.918  13.218  19.652  0.00  0.00    +0.000 A 
ATOM     24  C   UNL     1      11.174  14.267  19.084  0.00  0.00    +0.000 A 
ATOM     25  C   UNL     1      11.711  15.557  18.940  0.00  0.00    +0.000 A 
ATOM     26  C   UNL     1      10.954  16.590  18.383  0.00  0.00    +0.000 A 
ATOM     27  C   UNL     1       9.651  16.346  17.959  0.00  0.00    +0.000 A 
ATOM     28  C   UNL     1       9.104  15.069  18.090  0.00  0.00    +0.000 A 
ATOM     29  C   UNL     1       9.851  14.018  18.651  0.00  0.00    +0.000 A 
ATOM     30  C   UNL     1       9.310  12.728  18.798  0.00  0.00    +0.000 A 
ENDBRANCH  20  21
ENDBRANCH   3  19
TORSDOF 3
ENDMDL
