MODEL 1
REMARK VINA RESULT:      -7.4      0.000      0.000
REMARK  Name = 
REMARK  2 active torsions:
REMARK  status: ('A' for Active; 'I' for Inactive)
REMARK    1  A    between atoms: C_1  and  C_2
REMARK    2  A    between atoms: C_2  and  C_3
REMARK                            x       y       z     vdW  Elec       q    Type
REMARK                         _______ _______ _______ _____ _____    ______ ____
ROOT
ATOM      1  C   UNL     1       3.097   6.954  18.184  0.00  0.00    +0.000 C 
ATOM      2  C   UNL     1       3.952   5.669  18.254  0.00  0.00    +0.000 C 
ATOM      3  N   UNL     1       5.004   5.926  19.280  0.00  0.00    +0.000 NA
ATOM      4  C   UNL     1       6.049   5.311  18.819  0.00  0.00    +0.000 C 
ATOM      5  N   UNL     1       7.274   5.440  19.421  0.00  0.00    +0.000 N 
ATOM      6  C   UNL     1       5.772   4.479  17.571  0.00  0.00    +0.000 C 
ATOM      7  C   UNL     1       6.902   4.197  16.586  0.00  0.00    +0.000 C 
ATOM      8  C   UNL     1       6.386   4.369  15.162  0.00  0.00    +0.000 C 
ATOM      9  C   UNL     1       5.930   5.816  14.971  0.00  0.00    +0.000 C 
ATOM     10  C   UNL     1       5.137   6.354  16.175  0.00  0.00    +0.000 C 
ATOM     11  N   UNL     1       4.639   5.252  17.009  0.00  0.00    +0.000 NA
ATOM     12  H   UNL     1       7.290   6.227  20.060  0.00  0.00    +0.000 HD
ATOM     13  H   UNL     1       8.081   5.431  18.805  0.00  0.00    +0.000 HD
ENDROOT
BRANCH   2  14
ATOM     14  C   UNL     1       2.947   4.559  18.636  0.00  0.00    +0.000 A 
ATOM     15  C   UNL     1       2.022   4.110  17.666  0.00  0.00    +0.000 A 
ATOM     16  C   UNL     1       0.988   3.251  18.009  0.00  0.00    +0.000 A 
ATOM     17  C   UNL     1       0.867   2.798  19.318  0.00  0.00    +0.000 A 
ATOM     18  C   UNL     1       1.814   3.182  20.269  0.00  0.00    +0.000 A 
ATOM     19 BR   UNL     1       1.650   2.559  22.047  0.00  0.00    +0.000 Br
ATOM     20  C   UNL     1       2.858   4.047  19.936  0.00  0.00    +0.000 A 
ENDBRANCH   2  14
TORSDOF 1
ENDMDL
MODEL 2
REMARK VINA RESULT:      -6.8      2.347      3.913
REMARK  Name = 
REMARK  2 active torsions:
REMARK  status: ('A' for Active; 'I' for Inactive)
REMARK    1  A    between atoms: C_1  and  C_2
REMARK    2  A    between atoms: C_2  and  C_3
REMARK                            x       y       z     vdW  Elec       q    Type
REMARK                         _______ _______ _______ _____ _____    ______ ____
ROOT
ATOM      1  C   UNL     1       3.421   4.609  19.701  0.00  0.00    +0.000 C 
ATOM      2  C   UNL     1       3.907   5.588  18.609  0.00  0.00    +0.000 C 
ATOM      3  N   UNL     1       3.816   4.848  17.317  0.00  0.00    +0.000 NA
ATOM      4  C   UNL     1       4.839   5.271  16.641  0.00  0.00    +0.000 C 
ATOM      5  N   UNL     1       5.181   4.706  15.439  0.00  0.00    +0.000 N 
ATOM      6  C   UNL     1       5.594   6.410  17.316  0.00  0.00    +0.000 C 
ATOM      7  C   UNL     1       7.073   6.621  17.011  0.00  0.00    +0.000 C 
ATOM      8  C   UNL     1       7.821   6.916  18.306  0.00  0.00    +0.000 C 
ATOM      9  C   UNL     1       7.688   5.713  19.241  0.00  0.00    +0.000 C 
ATOM     10  C   UNL     1       6.265   5.127  19.258  0.00  0.00    +0.000 C 
ATOM     11  N   UNL     1       5.293   6.096  18.733  0.00  0.00    +0.000 NA
ATOM     12  H   UNL     1       4.717   3.814  15.306  0.00  0.00    +0.000 HD
ATOM     13  H   UNL     1       6.174   4.655  15.233  0.00  0.00    +0.000 HD
ENDROOT
BRANCH   2  14
ATOM     14  C   UNL     1       2.948   6.795  18.720  0.00  0.00    +0.000 A 
ATOM     15  C   UNL     1       2.820   7.671  17.619  0.00  0.00    +0.000 A 
ATOM     16  C   UNL     1       2.117   8.862  17.731  0.00  0.00    +0.000 A 
ATOM     17  C   UNL     1       1.501   9.194  18.934  0.00  0.00    +0.000 A 
ATOM     18  C   UNL     1       1.566   8.304  20.008  0.00  0.00    +0.000 A 
ATOM     19 BR   UNL     1       0.723   8.755  21.639  0.00  0.00    +0.000 Br
ATOM     20  C   UNL     1       2.271   7.104  19.906  0.00  0.00    +0.000 A 
ENDBRANCH   2  14
TORSDOF 1
ENDMDL
MODEL 3
REMARK VINA RESULT:      -6.7      3.008      5.493
REMARK  Name = 
REMARK  2 active torsions:
REMARK  status: ('A' for Active; 'I' for Inactive)
REMARK    1  A    between atoms: C_1  and  C_2
REMARK    2  A    between atoms: C_2  and  C_3
REMARK                            x       y       z     vdW  Elec       q    Type
REMARK                         _______ _______ _______ _____ _____    ______ ____
ROOT
ATOM      1  C   UNL     1       1.360   3.955  16.976  0.00  0.00    +0.000 C 
ATOM      2  C   UNL     1       2.611   3.648  17.830  0.00  0.00    +0.000 C 
ATOM      3  N   UNL     1       3.039   2.269  17.458  0.00  0.00    +0.000 NA
ATOM      4  C   UNL     1       3.476   1.766  18.571  0.00  0.00    +0.000 C 
ATOM      5  N   UNL     1       3.827   0.443  18.665  0.00  0.00    +0.000 N 
ATOM      6  C   UNL     1       3.533   2.768  19.719  0.00  0.00    +0.000 C 
ATOM      7  C   UNL     1       3.435   2.274  21.158  0.00  0.00    +0.000 C 
ATOM      8  C   UNL     1       2.512   3.195  21.948  0.00  0.00    +0.000 C 
ATOM      9  C   UNL     1       1.116   3.149  21.327  0.00  0.00    +0.000 C 
ATOM     10  C   UNL     1       1.147   3.181  19.789  0.00  0.00    +0.000 C 
ATOM     11  N   UNL     1       2.441   3.679  19.301  0.00  0.00    +0.000 NA
ATOM     12  H   UNL     1       3.471  -0.089  17.879  0.00  0.00    +0.000 HD
ATOM     13  H   UNL     1       3.635  -0.011  19.553  0.00  0.00    +0.000 HD
ENDROOT
BRANCH   2  14
ATOM     14  C   UNL     1       3.619   4.754  17.446  0.00  0.00    +0.000 A 
ATOM     15  C   UNL     1       3.375   6.080  17.868  0.00  0.00    +0.000 A 
ATOM     16  C   UNL     1       4.147   7.133  17.400  0.00  0.00    +0.000 A 
ATOM     17  C   UNL     1       5.199   6.887  16.523  0.00  0.00    +0.000 A 
ATOM     18  C   UNL     1       5.491   5.573  16.152  0.00  0.00    +0.000 A 
ATOM     19 BR   UNL     1       6.924   5.241  14.964  0.00  0.00    +0.000 Br
ATOM     20  C   UNL     1       4.719   4.507  16.615  0.00  0.00    +0.000 A 
ENDBRANCH   2  14
TORSDOF 1
ENDMDL
MODEL 4
REMARK VINA RESULT:      -6.4      3.045      4.909
REMARK  Name = 
REMARK  2 active torsions:
REMARK  status: ('A' for Active; 'I' for Inactive)
REMARK    1  A    between atoms: C_1  and  C_2
REMARK    2  A    between atoms: C_2  and  C_3
REMARK                            x       y       z     vdW  Elec       q    Type
REMARK                         _______ _______ _______ _____ _____    ______ ____
ROOT
ATOM      1  C   UNL     1       4.647   5.628  19.144  0.00  0.00    +0.000 C 
ATOM      2  C   UNL     1       3.190   5.347  19.574  0.00  0.00    +0.000 C 
ATOM      3  N   UNL     1       3.253   4.915  21.000  0.00  0.00    +0.000 NA
ATOM      4  C   UNL     1       2.322   4.017  21.098  0.00  0.00    +0.000 C 
ATOM      5  N   UNL     1       2.168   3.273  22.240  0.00  0.00    +0.000 N 
ATOM      6  C   UNL     1       1.468   3.877  19.843  0.00  0.00    +0.000 C 
ATOM      7  C   UNL     1       0.773   2.553  19.546  0.00  0.00    +0.000 C 
ATOM      8  C   UNL     1       0.923   2.222  18.066  0.00  0.00    +0.000 C 
ATOM      9  C   UNL     1       2.409   2.069  17.740  0.00  0.00    +0.000 C 
ATOM     10  C   UNL     1       3.279   3.150  18.407  0.00  0.00    +0.000 C 
ATOM     11  N   UNL     1       2.461   4.297  18.825  0.00  0.00    +0.000 NA
ATOM     12  H   UNL     1       2.984   3.340  22.836  0.00  0.00    +0.000 HD
ATOM     13  H   UNL     1       1.864   2.313  22.113  0.00  0.00    +0.000 HD
ENDROOT
BRANCH   2  14
ATOM     14  C   UNL     1       2.456   6.687  19.346  0.00  0.00    +0.000 A 
ATOM     15  C   UNL     1       2.465   7.262  18.055  0.00  0.00    +0.000 A 
ATOM     16  C   UNL     1       1.981   8.544  17.839  0.00  0.00    +0.000 A 
ATOM     17  C   UNL     1       1.451   9.273  18.899  0.00  0.00    +0.000 A 
ATOM     18  C   UNL     1       1.376   8.689  20.165  0.00  0.00    +0.000 A 
ATOM     19 BR   UNL     1       0.648   9.681  21.601  0.00  0.00    +0.000 Br
ATOM     20  C   UNL     1       1.861   7.402  20.393  0.00  0.00    +0.000 A 
ENDBRANCH   2  14
TORSDOF 1
ENDMDL
MODEL 5
REMARK VINA RESULT:      -6.3      2.913      5.296
REMARK  Name = 
REMARK  2 active torsions:
REMARK  status: ('A' for Active; 'I' for Inactive)
REMARK    1  A    between atoms: C_1  and  C_2
REMARK    2  A    between atoms: C_2  and  C_3
REMARK                            x       y       z     vdW  Elec       q    Type
REMARK                         _______ _______ _______ _____ _____    ______ ____
ROOT
ATOM      1  C   UNL     1       3.141   3.276  16.600  0.00  0.00    +0.000 C 
ATOM      2  C   UNL     1       3.552   3.642  18.044  0.00  0.00    +0.000 C 
ATOM      3  N   UNL     1       4.645   2.699  18.416  0.00  0.00    +0.000 NA
ATOM      4  C   UNL     1       4.443   2.466  19.676  0.00  0.00    +0.000 C 
ATOM      5  N   UNL     1       5.170   1.518  20.350  0.00  0.00    +0.000 N 
ATOM      6  C   UNL     1       3.339   3.319  20.290  0.00  0.00    +0.000 C 
ATOM      7  C   UNL     1       2.578   2.806  21.508  0.00  0.00    +0.000 C 
ATOM      8  C   UNL     1       1.090   3.089  21.332  0.00  0.00    +0.000 C 
ATOM      9  C   UNL     1       0.586   2.340  20.098  0.00  0.00    +0.000 C 
ATOM     10  C   UNL     1       1.559   2.427  18.909  0.00  0.00    +0.000 C 
ATOM     11  N   UNL     1       2.503   3.539  19.085  0.00  0.00    +0.000 NA
ATOM     12  H   UNL     1       5.654   0.900  19.709  0.00  0.00    +0.000 HD
ATOM     13  H   UNL     1       4.677   1.006  21.076  0.00  0.00    +0.000 HD
ENDROOT
BRANCH   2  14
ATOM     14  C   UNL     1       3.988   5.121  17.956  0.00  0.00    +0.000 A 
ATOM     15  C   UNL     1       2.996   6.125  17.882  0.00  0.00    +0.000 A 
ATOM     16  C   UNL     1       3.333   7.445  17.621  0.00  0.00    +0.000 A 
ATOM     17  C   UNL     1       4.668   7.801  17.454  0.00  0.00    +0.000 A 
ATOM     18  C   UNL     1       5.661   6.829  17.592  0.00  0.00    +0.000 A 
ATOM     19 BR   UNL     1       7.474   7.319  17.371  0.00  0.00    +0.000 Br
ATOM     20  C   UNL     1       5.333   5.499  17.853  0.00  0.00    +0.000 A 
ENDBRANCH   2  14
TORSDOF 1
ENDMDL
MODEL 6
REMARK VINA RESULT:      -6.3      2.789      5.593
REMARK  Name = 
REMARK  2 active torsions:
REMARK  status: ('A' for Active; 'I' for Inactive)
REMARK    1  A    between atoms: C_1  and  C_2
REMARK    2  A    between atoms: C_2  and  C_3
REMARK                            x       y       z     vdW  Elec       q    Type
REMARK                         _______ _______ _______ _____ _____    ______ ____
ROOT
ATOM      1  C   UNL     1       3.427   6.707  18.677  0.00  0.00    +0.000 C 
ATOM      2  C   UNL     1       3.377   5.174  18.488  0.00  0.00    +0.000 C 
ATOM      3  N   UNL     1       2.180   4.898  17.643  0.00  0.00    +0.000 NA
ATOM      4  C   UNL     1       1.719   3.778  18.109  0.00  0.00    +0.000 C 
ATOM      5  N   UNL     1       0.523   3.266  17.677  0.00  0.00    +0.000 N 
ATOM      6  C   UNL     1       2.616   3.135  19.161  0.00  0.00    +0.000 C 
ATOM      7  C   UNL     1       2.007   2.204  20.205  0.00  0.00    +0.000 C 
ATOM      8  C   UNL     1       2.608   2.514  21.571  0.00  0.00    +0.000 C 
ATOM      9  C   UNL     1       2.262   3.955  21.949  0.00  0.00    +0.000 C 
ATOM     10  C   UNL     1       2.416   4.933  20.771  0.00  0.00    +0.000 C 
ATOM     11  N   UNL     1       3.255   4.352  19.714  0.00  0.00    +0.000 NA
ATOM     12  H   UNL     1      -0.021   3.966  17.185  0.00  0.00    +0.000 HD
ATOM     13  H   UNL     1      -0.030   2.769  18.369  0.00  0.00    +0.000 HD
ENDROOT
BRANCH   2  14
ATOM     14  C   UNL     1       4.725   4.827  17.816  0.00  0.00    +0.000 A 
ATOM     15  C   UNL     1       5.912   4.910  18.579  0.00  0.00    +0.000 A 
ATOM     16  C   UNL     1       7.157   4.785  17.980  0.00  0.00    +0.000 A 
ATOM     17  C   UNL     1       7.248   4.547  16.612  0.00  0.00    +0.000 A 
ATOM     18  C   UNL     1       6.081   4.397  15.861  0.00  0.00    +0.000 A 
ATOM     19 BR   UNL     1       6.209   4.067  14.003  0.00  0.00    +0.000 Br
ATOM     20  C   UNL     1       4.824   4.522  16.453  0.00  0.00    +0.000 A 
ENDBRANCH   2  14
TORSDOF 1
ENDMDL
MODEL 7
REMARK VINA RESULT:      -6.2      3.037      5.465
REMARK  Name = 
REMARK  2 active torsions:
REMARK  status: ('A' for Active; 'I' for Inactive)
REMARK    1  A    between atoms: C_1  and  C_2
REMARK    2  A    between atoms: C_2  and  C_3
REMARK                            x       y       z     vdW  Elec       q    Type
REMARK                         _______ _______ _______ _____ _____    ______ ____
ROOT
ATOM      1  C   UNL     1       2.873   2.348  16.659  0.00  0.00    +0.000 C 
ATOM      2  C   UNL     1       3.518   3.168  17.798  0.00  0.00    +0.000 C 
ATOM      3  N   UNL     1       4.381   2.218  18.557  0.00  0.00    +0.000 NA
ATOM      4  C   UNL     1       4.269   2.608  19.789  0.00  0.00    +0.000 C 
ATOM      5  N   UNL     1       4.810   1.881  20.818  0.00  0.00    +0.000 N 
ATOM      6  C   UNL     1       3.482   3.903  19.955  0.00  0.00    +0.000 C 
ATOM      7  C   UNL     1       2.759   4.185  21.268  0.00  0.00    +0.000 C 
ATOM      8  C   UNL     1       1.375   4.754  20.972  0.00  0.00    +0.000 C 
ATOM      9  C   UNL     1       0.569   3.717  20.189  0.00  0.00    +0.000 C 
ATOM     10  C   UNL     1       1.397   3.023  19.093  0.00  0.00    +0.000 C 
ATOM     11  N   UNL     1       2.598   3.805  18.769  0.00  0.00    +0.000 NA
ATOM     12  H   UNL     1       5.055   0.944  20.519  0.00  0.00    +0.000 HD
ATOM     13  H   UNL     1       4.291   1.881  21.691  0.00  0.00    +0.000 HD
ENDROOT
BRANCH   2  14
ATOM     14  C   UNL     1       4.292   4.291  17.072  0.00  0.00    +0.000 A 
ATOM     15  C   UNL     1       4.001   5.638  17.386  0.00  0.00    +0.000 A 
ATOM     16  C   UNL     1       4.533   6.678  16.638  0.00  0.00    +0.000 A 
ATOM     17  C   UNL     1       5.391   6.402  15.578  0.00  0.00    +0.000 A 
ATOM     18  C   UNL     1       5.738   5.078  15.301  0.00  0.00    +0.000 A 
ATOM     19 BR   UNL     1       6.908   4.708  13.862  0.00  0.00    +0.000 Br
ATOM     20  C   UNL     1       5.206   4.025  16.045  0.00  0.00    +0.000 A 
ENDBRANCH   2  14
TORSDOF 1
ENDMDL
MODEL 8
REMARK VINA RESULT:      -6.2      1.313      1.688
REMARK  Name = 
REMARK  2 active torsions:
REMARK  status: ('A' for Active; 'I' for Inactive)
REMARK    1  A    between atoms: C_1  and  C_2
REMARK    2  A    between atoms: C_2  and  C_3
REMARK                            x       y       z     vdW  Elec       q    Type
REMARK                         _______ _______ _______ _____ _____    ______ ____
ROOT
ATOM      1  C   UNL     1       3.583   7.751  17.421  0.00  0.00    +0.000 C 
ATOM      2  C   UNL     1       4.197   6.391  17.825  0.00  0.00    +0.000 C 
ATOM      3  N   UNL     1       5.414   6.707  18.628  0.00  0.00    +0.000 NA
ATOM      4  C   UNL     1       6.256   5.776  18.301  0.00  0.00    +0.000 C 
ATOM      5  N   UNL     1       7.558   5.810  18.729  0.00  0.00    +0.000 N 
ATOM      6  C   UNL     1       5.659   4.693  17.409  0.00  0.00    +0.000 C 
ATOM      7  C   UNL     1       6.566   3.899  16.475  0.00  0.00    +0.000 C 
ATOM      8  C   UNL     1       5.890   3.751  15.116  0.00  0.00    +0.000 C 
ATOM      9  C   UNL     1       5.676   5.140  14.515  0.00  0.00    +0.000 C 
ATOM     10  C   UNL     1       5.174   6.165  15.547  0.00  0.00    +0.000 C 
ATOM     11  N   UNL     1       4.612   5.490  16.725  0.00  0.00    +0.000 NA
ATOM     12  H   UNL     1       7.805   6.728  19.082  0.00  0.00    +0.000 HD
ATOM     13  H   UNL     1       8.254   5.448  18.084  0.00  0.00    +0.000 HD
ENDROOT
BRANCH   2  14
ATOM     14  C   UNL     1       3.076   5.685  18.620  0.00  0.00    +0.000 A 
ATOM     15  C   UNL     1       2.600   6.280  19.810  0.00  0.00    +0.000 A 
ATOM     16  C   UNL     1       1.729   5.601  20.650  0.00  0.00    +0.000 A 
ATOM     17  C   UNL     1       1.290   4.325  20.310  0.00  0.00    +0.000 A 
ATOM     18  C   UNL     1       1.701   3.755  19.104  0.00  0.00    +0.000 A 
ATOM     19 BR   UNL     1       1.097   2.024  18.643  0.00  0.00    +0.000 Br
ATOM     20  C   UNL     1       2.578   4.428  18.253  0.00  0.00    +0.000 A 
ENDBRANCH   2  14
TORSDOF 1
ENDMDL
MODEL 9
REMARK VINA RESULT:      -6.2      2.634      5.196
REMARK  Name = 
REMARK  2 active torsions:
REMARK  status: ('A' for Active; 'I' for Inactive)
REMARK    1  A    between atoms: C_1  and  C_2
REMARK    2  A    between atoms: C_2  and  C_3
REMARK                            x       y       z     vdW  Elec       q    Type
REMARK                         _______ _______ _______ _____ _____    ______ ____
ROOT
ATOM      1  C   UNL     1       2.922   2.815  16.495  0.00  0.00    +0.000 C 
ATOM      2  C   UNL     1       3.403   3.400  17.842  0.00  0.00    +0.000 C 
ATOM      3  N   UNL     1       4.533   2.536  18.290  0.00  0.00    +0.000 NA
ATOM      4  C   UNL     1       4.403   2.495  19.580  0.00  0.00    +0.000 C 
ATOM      5  N   UNL     1       5.182   1.668  20.348  0.00  0.00    +0.000 N 
ATOM      6  C   UNL     1       3.317   3.419  20.119  0.00  0.00    +0.000 C 
ATOM      7  C   UNL     1       2.633   3.090  21.441  0.00  0.00    +0.000 C 
ATOM      8  C   UNL     1       1.133   3.327  21.308  0.00  0.00    +0.000 C 
ATOM      9  C   UNL     1       0.577   2.394  20.232  0.00  0.00    +0.000 C 
ATOM     10  C   UNL     1       1.483   2.310  18.991  0.00  0.00    +0.000 C 
ATOM     11  N   UNL     1       2.414   3.445  18.944  0.00  0.00    +0.000 NA
ATOM     12  H   UNL     1       5.644   0.965  19.781  0.00  0.00    +0.000 HD
ATOM     13  H   UNL     1       4.739   1.267  21.169  0.00  0.00    +0.000 HD
ENDROOT
BRANCH   2  14
ATOM     14  C   UNL     1       3.807   4.854  17.507  0.00  0.00    +0.000 A 
ATOM     15  C   UNL     1       5.114   5.110  17.035  0.00  0.00    +0.000 A 
ATOM     16  C   UNL     1       5.581   6.409  16.894  0.00  0.00    +0.000 A 
ATOM     17  C   UNL     1       4.748   7.483  17.192  0.00  0.00    +0.000 A 
ATOM     18  C   UNL     1       3.433   7.241  17.594  0.00  0.00    +0.000 A 
ATOM     19 BR   UNL     1       2.301   8.703  17.992  0.00  0.00    +0.000 Br
ATOM     20  C   UNL     1       2.953   5.939  17.741  0.00  0.00    +0.000 A 
ENDBRANCH   2  14
TORSDOF 1
ENDMDL
