MODEL 1
REMARK VINA RESULT:      -7.7      0.000      0.000
REMARK  Name = 
REMARK  11 active torsions:
REMARK  status: ('A' for Active; 'I' for Inactive)
REMARK    1  A    between atoms: C_1  and  C_2
REMARK    2  A    between atoms: C_2  and  N_3
REMARK    3  A    between atoms: N_3  and  C_4
REMARK    4  A    between atoms: C_8  and  O_9
REMARK    5  A    between atoms: O_9  and  C_10
REMARK    6  A    between atoms: C_16  and  N_17
REMARK    7  A    between atoms: N_17  and  C_18
REMARK    8  A    between atoms: C_18  and  C_19
REMARK    9  A    between atoms: C_19  and  C_20
REMARK   10  A    between atoms: C_20  and  N_21
REMARK   11  A    between atoms: N_24  and  C_25
REMARK                            x       y       z     vdW  Elec       q    Type
REMARK                         _______ _______ _______ _____ _____    ______ ____
ROOT
ATOM      1  C   UNL     1       6.156   5.568  15.984  0.00  0.00    +0.000 A 
ATOM      2  N   UNL     1       5.077   4.756  16.030  0.00  0.00    +0.000 NA
ATOM      3  C   UNL     1       4.253   4.896  17.087  0.00  0.00    +0.000 A 
ATOM      4  C   UNL     1       3.134   4.084  17.217  0.00  0.00    +0.000 A 
ATOM      5  C   UNL     1       2.211   4.228  18.271  0.00  0.00    +0.000 A 
ATOM      6  C   UNL     1       2.438   5.235  19.214  0.00  0.00    +0.000 A 
ATOM      7 CL   UNL     1       1.410   5.630  20.546  0.00  0.00    +0.000 Cl
ATOM      8  C   UNL     1       3.581   6.030  19.109  0.00  0.00    +0.000 A 
ATOM      9  C   UNL     1       4.491   5.867  18.082  0.00  0.00    +0.000 A 
ATOM     10  N   UNL     1       5.574   6.656  18.068  0.00  0.00    +0.000 NA
ATOM     11  C   UNL     1       6.421   6.490  17.035  0.00  0.00    +0.000 A 
ENDROOT
BRANCH   1  12
ATOM     12  N   UNL     1       7.105   5.445  14.939  0.00  0.00    +0.000 N 
ATOM     13  H   UNL     1       7.312   6.379  14.591  0.00  0.00    +0.000 HD
BRANCH  12  15
ATOM     14  C   UNL     1       7.478   4.825  12.621  0.00  0.00    +0.000 C 
ATOM     15  C   UNL     1       6.744   4.487  13.911  0.00  0.00    +0.000 C 
ENDBRANCH  12  15
ENDBRANCH   1  12
BRANCH   5  16
ATOM     16  O   UNL     1       1.200   3.314  18.173  0.00  0.00    +0.000 OA
ATOM     17  C   UNL     1       1.372   1.997  18.667  0.00  0.00    +0.000 C 
ENDBRANCH   5  16
BRANCH  11  18
ATOM     18  N   UNL     1       7.524   7.353  16.912  0.00  0.00    +0.000 N 
ATOM     19  H   UNL     1       7.215   8.133  16.337  0.00  0.00    +0.000 HD
BRANCH  18  20
ATOM     20  C   UNL     1       8.118   7.804  18.167  0.00  0.00    +0.000 C 
BRANCH  20  21
ATOM     21  C   UNL     1       8.297   9.320  18.075  0.00  0.00    +0.000 C 
BRANCH  21  22
ATOM     22  C   UNL     1       9.148   9.868  19.228  0.00  0.00    +0.000 C 
BRANCH  22  23
ATOM     23  N   UNL     1       9.347  11.321  19.185  0.00  0.00    +0.000 NA
ATOM     24  C   UNL     1       8.908  11.853  17.875  0.00  0.00    +0.000 C 
ATOM     25  C   UNL     1       9.111  13.381  17.768  0.00  0.00    +0.000 C 
ATOM     26  N   UNL     1      10.479  13.855  18.063  0.00  0.00    +0.000 NA
ATOM     27  C   UNL     1      11.401  13.568  16.968  0.00  0.00    +0.000 C 
ATOM     28  C   UNL     1      10.937  13.244  19.326  0.00  0.00    +0.000 C 
ATOM     29  C   UNL     1      10.753  11.713  19.411  0.00  0.00    +0.000 C 
ENDBRANCH  22  23
ENDBRANCH  21  22
ENDBRANCH  20  21
ENDBRANCH  18  20
ENDBRANCH  11  18
TORSDOF 8
ENDMDL
MODEL 2
REMARK VINA RESULT:      -7.7      0.574      1.206
REMARK  Name = 
REMARK  11 active torsions:
REMARK  status: ('A' for Active; 'I' for Inactive)
REMARK    1  A    between atoms: C_1  and  C_2
REMARK    2  A    between atoms: C_2  and  N_3
REMARK    3  A    between atoms: N_3  and  C_4
REMARK    4  A    between atoms: C_8  and  O_9
REMARK    5  A    between atoms: O_9  and  C_10
REMARK    6  A    between atoms: C_16  and  N_17
REMARK    7  A    between atoms: N_17  and  C_18
REMARK    8  A    between atoms: C_18  and  C_19
REMARK    9  A    between atoms: C_19  and  C_20
REMARK   10  A    between atoms: C_20  and  N_21
REMARK   11  A    between atoms: N_24  and  C_25
REMARK                            x       y       z     vdW  Elec       q    Type
REMARK                         _______ _______ _______ _____ _____    ______ ____
ROOT
ATOM      1  C   UNL     1       6.195   5.417  15.855  0.00  0.00    +0.000 A 
ATOM      2  N   UNL     1       5.090   4.639  15.870  0.00  0.00    +0.000 NA
ATOM      3  C   UNL     1       4.288   4.741  16.949  0.00  0.00    +0.000 A 
ATOM      4  C   UNL     1       3.144   3.959  17.049  0.00  0.00    +0.000 A 
ATOM      5  C   UNL     1       2.243   4.068  18.126  0.00  0.00    +0.000 A 
ATOM      6  C   UNL     1       2.519   5.006  19.125  0.00  0.00    +0.000 A 
ATOM      7 CL   UNL     1       1.527   5.351  20.497  0.00  0.00    +0.000 Cl
ATOM      8  C   UNL     1       3.687   5.768  19.049  0.00  0.00    +0.000 A 
ATOM      9  C   UNL     1       4.574   5.638  17.998  0.00  0.00    +0.000 A 
ATOM     10  N   UNL     1       5.684   6.391  18.013  0.00  0.00    +0.000 NA
ATOM     11  C   UNL     1       6.507   6.262  16.957  0.00  0.00    +0.000 A 
ENDROOT
BRANCH   1  12
ATOM     12  N   UNL     1       7.122   5.327  14.788  0.00  0.00    +0.000 N 
ATOM     13  H   UNL     1       7.223   6.255  14.381  0.00  0.00    +0.000 HD
BRANCH  12  15
ATOM     14  C   UNL     1       7.428   4.649  12.477  0.00  0.00    +0.000 C 
ATOM     15  C   UNL     1       6.832   4.278  13.828  0.00  0.00    +0.000 C 
ENDBRANCH  12  15
ENDBRANCH   1  12
BRANCH   5  16
ATOM     16  O   UNL     1       1.200   3.195  17.990  0.00  0.00    +0.000 OA
ATOM     17  C   UNL     1       1.074   2.084  18.860  0.00  0.00    +0.000 C 
ENDBRANCH   5  16
BRANCH  11  18
ATOM     18  N   UNL     1       7.638   7.093  16.867  0.00  0.00    +0.000 N 
ATOM     19  H   UNL     1       7.386   7.852  16.238  0.00  0.00    +0.000 HD
BRANCH  18  20
ATOM     20  C   UNL     1       8.160   7.590  18.137  0.00  0.00    +0.000 C 
BRANCH  20  21
ATOM     21  C   UNL     1       8.330   9.104  18.006  0.00  0.00    +0.000 C 
BRANCH  21  22
ATOM     22  C   UNL     1       9.083   9.702  19.201  0.00  0.00    +0.000 C 
BRANCH  22  23
ATOM     23  N   UNL     1       9.742  10.981  18.912  0.00  0.00    +0.000 NA
ATOM     24  C   UNL     1       9.904  11.759  20.161  0.00  0.00    +0.000 C 
ATOM     25  C   UNL     1      10.580  13.127  19.913  0.00  0.00    +0.000 C 
ATOM     26  N   UNL     1       9.935  13.969  18.884  0.00  0.00    +0.000 NA
ATOM     27  C   UNL     1       8.697  14.570  19.373  0.00  0.00    +0.000 C 
ATOM     28  C   UNL     1       9.695  13.153  17.677  0.00  0.00    +0.000 C 
ATOM     29  C   UNL     1       8.997  11.801  17.934  0.00  0.00    +0.000 C 
ENDBRANCH  22  23
ENDBRANCH  21  22
ENDBRANCH  20  21
ENDBRANCH  18  20
ENDBRANCH  11  18
TORSDOF 8
ENDMDL
MODEL 3
REMARK VINA RESULT:      -7.7      0.954      1.399
REMARK  Name = 
REMARK  11 active torsions:
REMARK  status: ('A' for Active; 'I' for Inactive)
REMARK    1  A    between atoms: C_1  and  C_2
REMARK    2  A    between atoms: C_2  and  N_3
REMARK    3  A    between atoms: N_3  and  C_4
REMARK    4  A    between atoms: C_8  and  O_9
REMARK    5  A    between atoms: O_9  and  C_10
REMARK    6  A    between atoms: C_16  and  N_17
REMARK    7  A    between atoms: N_17  and  C_18
REMARK    8  A    between atoms: C_18  and  C_19
REMARK    9  A    between atoms: C_19  and  C_20
REMARK   10  A    between atoms: C_20  and  N_21
REMARK   11  A    between atoms: N_24  and  C_25
REMARK                            x       y       z     vdW  Elec       q    Type
REMARK                         _______ _______ _______ _____ _____    ______ ____
ROOT
ATOM      1  C   UNL     1       6.374   4.913  16.533  0.00  0.00    +0.000 A 
ATOM      2  N   UNL     1       5.511   3.911  16.816  0.00  0.00    +0.000 NA
ATOM      3  C   UNL     1       4.618   4.137  17.800  0.00  0.00    +0.000 A 
ATOM      4  C   UNL     1       3.711   3.151  18.164  0.00  0.00    +0.000 A 
ATOM      5  C   UNL     1       2.721   3.355  19.145  0.00  0.00    +0.000 A 
ATOM      6  C   UNL     1       2.655   4.606  19.765  0.00  0.00    +0.000 A 
ATOM      7 CL   UNL     1       1.489   5.095  20.943  0.00  0.00    +0.000 Cl
ATOM      8  C   UNL     1       3.588   5.590  19.430  0.00  0.00    +0.000 A 
ATOM      9  C   UNL     1       4.568   5.371  18.481  0.00  0.00    +0.000 A 
ATOM     10  N   UNL     1       5.439   6.360  18.234  0.00  0.00    +0.000 NA
ATOM     11  C   UNL     1       6.358   6.123  17.281  0.00  0.00    +0.000 A 
ENDROOT
BRANCH   1  12
ATOM     12  N   UNL     1       7.384   4.736  15.555  0.00  0.00    +0.000 N 
ATOM     13  H   UNL     1       8.207   5.254  15.856  0.00  0.00    +0.000 HD
BRANCH  12  15
ATOM     14  C   UNL     1       6.184   3.830  13.649  0.00  0.00    +0.000 C 
ATOM     15  C   UNL     1       6.959   5.020  14.197  0.00  0.00    +0.000 C 
ENDBRANCH  12  15
ENDBRANCH   1  12
BRANCH   5  16
ATOM     16  O   UNL     1       1.956   2.236  19.317  0.00  0.00    +0.000 OA
ATOM     17  C   UNL     1       0.640   2.177  18.795  0.00  0.00    +0.000 C 
ENDBRANCH   5  16
BRANCH  11  18
ATOM     18  N   UNL     1       7.238   7.155  16.910  0.00  0.00    +0.000 N 
ATOM     19  H   UNL     1       6.667   7.875  16.472  0.00  0.00    +0.000 HD
BRANCH  18  20
ATOM     20  C   UNL     1       8.067   7.697  17.982  0.00  0.00    +0.000 C 
BRANCH  20  21
ATOM     21  C   UNL     1       8.054   9.221  17.851  0.00  0.00    +0.000 C 
BRANCH  21  22
ATOM     22  C   UNL     1       8.971   9.892  18.882  0.00  0.00    +0.000 C 
BRANCH  22  23
ATOM     23  N   UNL     1       9.813  10.957  18.328  0.00  0.00    +0.000 NA
ATOM     24  C   UNL     1      10.868  11.324  19.299  0.00  0.00    +0.000 C 
ATOM     25  C   UNL     1      11.779  12.457  18.772  0.00  0.00    +0.000 C 
ATOM     26  N   UNL     1      11.071  13.674  18.325  0.00  0.00    +0.000 NA
ATOM     27  C   UNL     1      10.588  14.467  19.453  0.00  0.00    +0.000 C 
ATOM     28  C   UNL     1       9.963  13.285  17.430  0.00  0.00    +0.000 C 
ATOM     29  C   UNL     1       9.046  12.171  17.978  0.00  0.00    +0.000 C 
ENDBRANCH  22  23
ENDBRANCH  21  22
ENDBRANCH  20  21
ENDBRANCH  18  20
ENDBRANCH  11  18
TORSDOF 8
ENDMDL
MODEL 4
REMARK VINA RESULT:      -7.4      1.213      1.298
REMARK  Name = 
REMARK  11 active torsions:
REMARK  status: ('A' for Active; 'I' for Inactive)
REMARK    1  A    between atoms: C_1  and  C_2
REMARK    2  A    between atoms: C_2  and  N_3
REMARK    3  A    between atoms: N_3  and  C_4
REMARK    4  A    between atoms: C_8  and  O_9
REMARK    5  A    between atoms: O_9  and  C_10
REMARK    6  A    between atoms: C_16  and  N_17
REMARK    7  A    between atoms: N_17  and  C_18
REMARK    8  A    between atoms: C_18  and  C_19
REMARK    9  A    between atoms: C_19  and  C_20
REMARK   10  A    between atoms: C_20  and  N_21
REMARK   11  A    between atoms: N_24  and  C_25
REMARK                            x       y       z     vdW  Elec       q    Type
REMARK                         _______ _______ _______ _____ _____    ______ ____
ROOT
ATOM      1  C   UNL     1       6.641   5.381  16.035  0.00  0.00    +0.000 A 
ATOM      2  N   UNL     1       5.695   4.417  16.098  0.00  0.00    +0.000 NA
ATOM      3  C   UNL     1       4.966   4.351  17.229  0.00  0.00    +0.000 A 
ATOM      4  C   UNL     1       3.990   3.376  17.380  0.00  0.00    +0.000 A 
ATOM      5  C   UNL     1       3.162   3.299  18.517  0.00  0.00    +0.000 A 
ATOM      6  C   UNL     1       3.337   4.251  19.525  0.00  0.00    +0.000 A 
ATOM      7 CL   UNL     1       2.398   4.385  20.970  0.00  0.00    +0.000 Cl
ATOM      8  C   UNL     1       4.343   5.212  19.397  0.00  0.00    +0.000 A 
ATOM      9  C   UNL     1       5.162   5.265  18.286  0.00  0.00    +0.000 A 
ATOM     10  N   UNL     1       6.118   6.204  18.252  0.00  0.00    +0.000 NA
ATOM     11  C   UNL     1       6.875   6.246  17.140  0.00  0.00    +0.000 A 
ENDROOT
BRANCH   1  12
ATOM     12  N   UNL     1       7.491   5.480  14.907  0.00  0.00    +0.000 N 
ATOM     13  H   UNL     1       7.632   6.468  14.705  0.00  0.00    +0.000 HD
BRANCH  12  15
ATOM     14  C   UNL     1       7.793   5.173  12.517  0.00  0.00    +0.000 C 
ATOM     15  C   UNL     1       7.070   4.689  13.766  0.00  0.00    +0.000 C 
ENDBRANCH  12  15
ENDBRANCH   1  12
BRANCH   5  16
ATOM     16  O   UNL     1       2.284   2.256  18.422  0.00  0.00    +0.000 OA
ATOM     17  C   UNL     1       0.916   2.438  18.741  0.00  0.00    +0.000 C 
ENDBRANCH   5  16
BRANCH  11  18
ATOM     18  N   UNL     1       7.830   7.269  17.003  0.00  0.00    +0.000 N 
ATOM     19  H   UNL     1       8.044   7.330  16.010  0.00  0.00    +0.000 HD
BRANCH  18  20
ATOM     20  C   UNL     1       7.454   8.565  17.560  0.00  0.00    +0.000 C 
BRANCH  20  21
ATOM     21  C   UNL     1       8.622   9.056  18.417  0.00  0.00    +0.000 C 
BRANCH  21  22
ATOM     22  C   UNL     1       9.074  10.466  18.015  0.00  0.00    +0.000 C 
BRANCH  22  23
ATOM     23  N   UNL     1       9.117  11.419  19.129  0.00  0.00    +0.000 NA
ATOM     24  C   UNL     1       8.956  12.799  18.620  0.00  0.00    +0.000 C 
ATOM     25  C   UNL     1       9.009  13.850  19.752  0.00  0.00    +0.000 C 
ATOM     26  N   UNL     1      10.203  13.778  20.619  0.00  0.00    +0.000 NA
ATOM     27  C   UNL     1      11.391  14.306  19.954  0.00  0.00    +0.000 C 
ATOM     28  C   UNL     1      10.404  12.379  21.045  0.00  0.00    +0.000 C 
ATOM     29  C   UNL     1      10.374  11.341  19.902  0.00  0.00    +0.000 C 
ENDBRANCH  22  23
ENDBRANCH  21  22
ENDBRANCH  20  21
ENDBRANCH  18  20
ENDBRANCH  11  18
TORSDOF 8
ENDMDL
MODEL 5
REMARK VINA RESULT:      -7.3      1.144      1.377
REMARK  Name = 
REMARK  11 active torsions:
REMARK  status: ('A' for Active; 'I' for Inactive)
REMARK    1  A    between atoms: C_1  and  C_2
REMARK    2  A    between atoms: C_2  and  N_3
REMARK    3  A    between atoms: N_3  and  C_4
REMARK    4  A    between atoms: C_8  and  O_9
REMARK    5  A    between atoms: O_9  and  C_10
REMARK    6  A    between atoms: C_16  and  N_17
REMARK    7  A    between atoms: N_17  and  C_18
REMARK    8  A    between atoms: C_18  and  C_19
REMARK    9  A    between atoms: C_19  and  C_20
REMARK   10  A    between atoms: C_20  and  N_21
REMARK   11  A    between atoms: N_24  and  C_25
REMARK                            x       y       z     vdW  Elec       q    Type
REMARK                         _______ _______ _______ _____ _____    ______ ____
ROOT
ATOM      1  C   UNL     1       6.002   5.493  16.184  0.00  0.00    +0.000 A 
ATOM      2  N   UNL     1       4.816   4.849  16.108  0.00  0.00    +0.000 NA
ATOM      3  C   UNL     1       4.114   4.730  17.252  0.00  0.00    +0.000 A 
ATOM      4  C   UNL     1       2.896   4.063  17.262  0.00  0.00    +0.000 A 
ATOM      5  C   UNL     1       2.097   3.959  18.417  0.00  0.00    +0.000 A 
ATOM      6  C   UNL     1       2.556   4.560  19.593  0.00  0.00    +0.000 A 
ATOM      7 CL   UNL     1       1.716   4.612  21.102  0.00  0.00    +0.000 Cl
ATOM      8  C   UNL     1       3.798   5.200  19.599  0.00  0.00    +0.000 A 
ATOM      9  C   UNL     1       4.583   5.277  18.465  0.00  0.00    +0.000 A 
ATOM     10  N   UNL     1       5.772   5.889  18.562  0.00  0.00    +0.000 NA
ATOM     11  C   UNL     1       6.494   5.974  17.429  0.00  0.00    +0.000 A 
ENDROOT
BRANCH   1  12
ATOM     12  N   UNL     1       6.831   5.610  15.040  0.00  0.00    +0.000 N 
ATOM     13  H   UNL     1       6.410   6.295  14.416  0.00  0.00    +0.000 HD
BRANCH  12  15
ATOM     14  C   UNL     1       6.121   4.021  13.347  0.00  0.00    +0.000 C 
ATOM     15  C   UNL     1       7.162   4.346  14.409  0.00  0.00    +0.000 C 
ENDBRANCH  12  15
ENDBRANCH   1  12
BRANCH   5  16
ATOM     16  O   UNL     1       0.950   3.260  18.166  0.00  0.00    +0.000 OA
ATOM     17  C   UNL     1       0.677   2.055  18.859  0.00  0.00    +0.000 C 
ENDBRANCH   5  16
BRANCH  11  18
ATOM     18  N   UNL     1       7.705   6.687  17.445  0.00  0.00    +0.000 N 
ATOM     19  H   UNL     1       8.267   6.315  16.682  0.00  0.00    +0.000 HD
BRANCH  18  20
ATOM     20  C   UNL     1       7.585   8.140  17.372  0.00  0.00    +0.000 C 
BRANCH  20  21
ATOM     21  C   UNL     1       8.539   8.735  18.410  0.00  0.00    +0.000 C 
BRANCH  21  22
ATOM     22  C   UNL     1       8.719  10.247  18.222  0.00  0.00    +0.000 C 
BRANCH  22  23
ATOM     23  N   UNL     1       9.934  10.785  18.845  0.00  0.00    +0.000 NA
ATOM     24  C   UNL     1       9.587  11.504  20.091  0.00  0.00    +0.000 C 
ATOM     25  C   UNL     1      10.830  12.108  20.783  0.00  0.00    +0.000 C 
ATOM     26  N   UNL     1      11.667  12.974  19.927  0.00  0.00    +0.000 NA
ATOM     27  C   UNL     1      11.049  14.278  19.705  0.00  0.00    +0.000 C 
ATOM     28  C   UNL     1      11.928  12.279  18.651  0.00  0.00    +0.000 C 
ATOM     29  C   UNL     1      10.675  11.703  17.956  0.00  0.00    +0.000 C 
ENDBRANCH  22  23
ENDBRANCH  21  22
ENDBRANCH  20  21
ENDBRANCH  18  20
ENDBRANCH  11  18
TORSDOF 8
ENDMDL
MODEL 6
REMARK VINA RESULT:      -7.3      1.287      1.688
REMARK  Name = 
REMARK  11 active torsions:
REMARK  status: ('A' for Active; 'I' for Inactive)
REMARK    1  A    between atoms: C_1  and  C_2
REMARK    2  A    between atoms: C_2  and  N_3
REMARK    3  A    between atoms: N_3  and  C_4
REMARK    4  A    between atoms: C_8  and  O_9
REMARK    5  A    between atoms: O_9  and  C_10
REMARK    6  A    between atoms: C_16  and  N_17
REMARK    7  A    between atoms: N_17  and  C_18
REMARK    8  A    between atoms: C_18  and  C_19
REMARK    9  A    between atoms: C_19  and  C_20
REMARK   10  A    between atoms: C_20  and  N_21
REMARK   11  A    between atoms: N_24  and  C_25
REMARK                            x       y       z     vdW  Elec       q    Type
REMARK                         _______ _______ _______ _____ _____    ______ ____
ROOT
ATOM      1  C   UNL     1       6.621   4.965  16.463  0.00  0.00    +0.000 A 
ATOM      2  N   UNL     1       5.581   4.102  16.439  0.00  0.00    +0.000 NA
ATOM      3  C   UNL     1       4.860   3.986  17.572  0.00  0.00    +0.000 A 
ATOM      4  C   UNL     1       3.788   3.105  17.634  0.00  0.00    +0.000 A 
ATOM      5  C   UNL     1       2.969   2.987  18.774  0.00  0.00    +0.000 A 
ATOM      6  C   UNL     1       3.253   3.796  19.877  0.00  0.00    +0.000 A 
ATOM      7 CL   UNL     1       2.348   3.863  21.348  0.00  0.00    +0.000 Cl
ATOM      8  C   UNL     1       4.352   4.657  19.835  0.00  0.00    +0.000 A 
ATOM      9  C   UNL     1       5.161   4.750  18.719  0.00  0.00    +0.000 A 
ATOM     10  N   UNL     1       6.210   5.583  18.768  0.00  0.00    +0.000 NA
ATOM     11  C   UNL     1       6.956   5.672  17.651  0.00  0.00    +0.000 A 
ENDROOT
BRANCH   1  12
ATOM     12  N   UNL     1       7.466   5.103  15.334  0.00  0.00    +0.000 N 
ATOM     13  H   UNL     1       7.846   6.047  15.339  0.00  0.00    +0.000 HD
BRANCH  12  15
ATOM     14  C   UNL     1       7.699   5.227  12.920  0.00  0.00    +0.000 C 
ATOM     15  C   UNL     1       6.857   4.707  14.077  0.00  0.00    +0.000 C 
ENDBRANCH  12  15
ENDBRANCH   1  12
BRANCH   5  16
ATOM     16  O   UNL     1       1.985   2.057  18.583  0.00  0.00    +0.000 OA
ATOM     17  C   UNL     1       0.621   2.437  18.624  0.00  0.00    +0.000 C 
ENDBRANCH   5  16
BRANCH  11  18
ATOM     18  N   UNL     1       8.012   6.599  17.608  0.00  0.00    +0.000 N 
ATOM     19  H   UNL     1       8.637   6.288  16.868  0.00  0.00    +0.000 HD
BRANCH  18  20
ATOM     20  C   UNL     1       7.621   7.995  17.439  0.00  0.00    +0.000 C 
BRANCH  20  21
ATOM     21  C   UNL     1       8.538   8.842  18.322  0.00  0.00    +0.000 C 
BRANCH  21  22
ATOM     22  C   UNL     1       8.348  10.344  18.072  0.00  0.00    +0.000 C 
BRANCH  22  23
ATOM     23  N   UNL     1       9.477  11.170  18.516  0.00  0.00    +0.000 NA
ATOM     24  C   UNL     1       9.583  11.130  19.992  0.00  0.00    +0.000 C 
ATOM     25  C   UNL     1      10.748  11.998  20.518  0.00  0.00    +0.000 C 
ATOM     26  N   UNL     1      10.740  13.403  20.059  0.00  0.00    +0.000 NA
ATOM     27  C   UNL     1       9.724  14.194  20.749  0.00  0.00    +0.000 C 
ATOM     28  C   UNL     1      10.541  13.430  18.597  0.00  0.00    +0.000 C 
ATOM     29  C   UNL     1       9.359  12.579  18.086  0.00  0.00    +0.000 C 
ENDBRANCH  22  23
ENDBRANCH  21  22
ENDBRANCH  20  21
ENDBRANCH  18  20
ENDBRANCH  11  18
TORSDOF 8
ENDMDL
MODEL 7
REMARK VINA RESULT:      -7.1      6.631     10.242
REMARK  Name = 
REMARK  11 active torsions:
REMARK  status: ('A' for Active; 'I' for Inactive)
REMARK    1  A    between atoms: C_1  and  C_2
REMARK    2  A    between atoms: C_2  and  N_3
REMARK    3  A    between atoms: N_3  and  C_4
REMARK    4  A    between atoms: C_8  and  O_9
REMARK    5  A    between atoms: O_9  and  C_10
REMARK    6  A    between atoms: C_16  and  N_17
REMARK    7  A    between atoms: N_17  and  C_18
REMARK    8  A    between atoms: C_18  and  C_19
REMARK    9  A    between atoms: C_19  and  C_20
REMARK   10  A    between atoms: C_20  and  N_21
REMARK   11  A    between atoms: N_24  and  C_25
REMARK                            x       y       z     vdW  Elec       q    Type
REMARK                         _______ _______ _______ _____ _____    ______ ____
ROOT
ATOM      1  C   UNL     1      -0.444  10.535  19.800  0.00  0.00    +0.000 A 
ATOM      2  N   UNL     1      -1.653  11.109  19.609  0.00  0.00    +0.000 NA
ATOM      3  C   UNL     1      -2.220  10.945  18.398  0.00  0.00    +0.000 A 
ATOM      4  C   UNL     1      -3.452  11.521  18.116  0.00  0.00    +0.000 A 
ATOM      5  C   UNL     1      -4.113  11.333  16.887  0.00  0.00    +0.000 A 
ATOM      6  C   UNL     1      -3.499  10.530  15.923  0.00  0.00    +0.000 A 
ATOM      7 CL   UNL     1      -4.154  10.114  14.378  0.00  0.00    +0.000 Cl
ATOM      8  C   UNL     1      -2.243   9.978  16.185  0.00  0.00    +0.000 A 
ATOM      9  C   UNL     1      -1.594  10.186  17.387  0.00  0.00    +0.000 A 
ATOM     10  N   UNL     1      -0.380   9.640  17.551  0.00  0.00    +0.000 NA
ATOM     11  C   UNL     1       0.207   9.836  18.746  0.00  0.00    +0.000 A 
ENDROOT
BRANCH   1  12
ATOM     12  N   UNL     1       0.249  10.709  21.024  0.00  0.00    +0.000 N 
ATOM     13  H   UNL     1       0.721   9.835  21.245  0.00  0.00    +0.000 HD
BRANCH  12  15
ATOM     14  C   UNL     1      -0.810  10.154  23.137  0.00  0.00    +0.000 C 
ATOM     15  C   UNL     1      -0.563  11.243  22.102  0.00  0.00    +0.000 C 
ENDBRANCH  12  15
ENDBRANCH   1  12
BRANCH   5  16
ATOM     16  O   UNL     1      -5.306  12.000  16.859  0.00  0.00    +0.000 OA
ATOM     17  C   UNL     1      -6.286  11.762  17.855  0.00  0.00    +0.000 C 
ENDBRANCH   5  16
BRANCH  11  18
ATOM     18  N   UNL     1       1.437   9.209  19.012  0.00  0.00    +0.000 N 
ATOM     19  H   UNL     1       1.256   8.519  19.737  0.00  0.00    +0.000 HD
BRANCH  18  20
ATOM     20  C   UNL     1       2.112   8.622  17.859  0.00  0.00    +0.000 C 
BRANCH  20  21
ATOM     21  C   UNL     1       2.787   7.332  18.326  0.00  0.00    +0.000 C 
BRANCH  21  22
ATOM     22  C   UNL     1       2.347   6.934  19.740  0.00  0.00    +0.000 C 
BRANCH  22  23
ATOM     23  N   UNL     1       2.536   5.511  20.046  0.00  0.00    +0.000 NA
ATOM     24  C   UNL     1       2.932   4.780  18.822  0.00  0.00    +0.000 C 
ATOM     25  C   UNL     1       3.130   3.269  19.082  0.00  0.00    +0.000 C 
ATOM     26  N   UNL     1       1.984   2.587  19.718  0.00  0.00    +0.000 NA
ATOM     27  C   UNL     1       0.889   2.371  18.776  0.00  0.00    +0.000 C 
ATOM     28  C   UNL     1       1.541   3.377  20.884  0.00  0.00    +0.000 C 
ATOM     29  C   UNL     1       1.322   4.880  20.605  0.00  0.00    +0.000 C 
ENDBRANCH  22  23
ENDBRANCH  21  22
ENDBRANCH  20  21
ENDBRANCH  18  20
ENDBRANCH  11  18
TORSDOF 8
ENDMDL
MODEL 8
REMARK VINA RESULT:      -6.8      5.235      7.521
REMARK  Name = 
REMARK  11 active torsions:
REMARK  status: ('A' for Active; 'I' for Inactive)
REMARK    1  A    between atoms: C_1  and  C_2
REMARK    2  A    between atoms: C_2  and  N_3
REMARK    3  A    between atoms: N_3  and  C_4
REMARK    4  A    between atoms: C_8  and  O_9
REMARK    5  A    between atoms: O_9  and  C_10
REMARK    6  A    between atoms: C_16  and  N_17
REMARK    7  A    between atoms: N_17  and  C_18
REMARK    8  A    between atoms: C_18  and  C_19
REMARK    9  A    between atoms: C_19  and  C_20
REMARK   10  A    between atoms: C_20  and  N_21
REMARK   11  A    between atoms: N_24  and  C_25
REMARK                            x       y       z     vdW  Elec       q    Type
REMARK                         _______ _______ _______ _____ _____    ______ ____
ROOT
ATOM      1  C   UNL     1       2.011   4.645  19.456  0.00  0.00    +0.000 A 
ATOM      2  N   UNL     1       2.647   3.914  18.514  0.00  0.00    +0.000 NA
ATOM      3  C   UNL     1       3.709   4.488  17.914  0.00  0.00    +0.000 A 
ATOM      4  C   UNL     1       4.404   3.810  16.920  0.00  0.00    +0.000 A 
ATOM      5  C   UNL     1       5.552   4.341  16.301  0.00  0.00    +0.000 A 
ATOM      6  C   UNL     1       6.004   5.597  16.716  0.00  0.00    +0.000 A 
ATOM      7 CL   UNL     1       7.419   6.407  16.143  0.00  0.00    +0.000 Cl
ATOM      8  C   UNL     1       5.288   6.300  17.687  0.00  0.00    +0.000 A 
ATOM      9  C   UNL     1       4.151   5.778  18.273  0.00  0.00    +0.000 A 
ATOM     10  N   UNL     1       3.509   6.527  19.181  0.00  0.00    +0.000 NA
ATOM     11  C   UNL     1       2.424   5.973  19.753  0.00  0.00    +0.000 A 
ENDROOT
BRANCH   1  12
ATOM     12  N   UNL     1       0.850   4.141  20.093  0.00  0.00    +0.000 N 
ATOM     13  H   UNL     1       0.524   4.843  20.755  0.00  0.00    +0.000 HD
BRANCH  12  15
ATOM     14  C   UNL     1       1.976   2.865  21.825  0.00  0.00    +0.000 C 
ATOM     15  C   UNL     1       1.003   2.812  20.656  0.00  0.00    +0.000 C 
ENDBRANCH  12  15
ENDBRANCH   1  12
BRANCH   5  16
ATOM     16  O   UNL     1       6.051   3.482  15.362  0.00  0.00    +0.000 OA
ATOM     17  C   UNL     1       6.153   3.880  14.007  0.00  0.00    +0.000 C 
ENDBRANCH   5  16
BRANCH  11  18
ATOM     18  N   UNL     1       1.765   6.670  20.782  0.00  0.00    +0.000 N 
ATOM     19  H   UNL     1       2.325   6.538  21.622  0.00  0.00    +0.000 HD
BRANCH  18  20
ATOM     20  C   UNL     1       1.500   8.081  20.521  0.00  0.00    +0.000 C 
BRANCH  20  21
ATOM     21  C   UNL     1       1.045   8.716  21.836  0.00  0.00    +0.000 C 
BRANCH  21  22
ATOM     22  C   UNL     1       0.004   9.820  21.609  0.00  0.00    +0.000 C 
BRANCH  22  23
ATOM     23  N   UNL     1       0.220  10.603  20.388  0.00  0.00    +0.000 NA
ATOM     24  C   UNL     1       1.085  11.767  20.680  0.00  0.00    +0.000 C 
ATOM     25  C   UNL     1       1.334  12.640  19.429  0.00  0.00    +0.000 C 
ATOM     26  N   UNL     1       0.115  13.092  18.727  0.00  0.00    +0.000 NA
ATOM     27  C   UNL     1      -0.562  14.166  19.449  0.00  0.00    +0.000 C 
ATOM     28  C   UNL     1      -0.779  11.935  18.524  0.00  0.00    +0.000 C 
ATOM     29  C   UNL     1      -1.041  11.086  19.786  0.00  0.00    +0.000 C 
ENDBRANCH  22  23
ENDBRANCH  21  22
ENDBRANCH  20  21
ENDBRANCH  18  20
ENDBRANCH  11  18
TORSDOF 8
ENDMDL
MODEL 9
REMARK VINA RESULT:      -6.8      4.572      7.753
REMARK  Name = 
REMARK  11 active torsions:
REMARK  status: ('A' for Active; 'I' for Inactive)
REMARK    1  A    between atoms: C_1  and  C_2
REMARK    2  A    between atoms: C_2  and  N_3
REMARK    3  A    between atoms: N_3  and  C_4
REMARK    4  A    between atoms: C_8  and  O_9
REMARK    5  A    between atoms: O_9  and  C_10
REMARK    6  A    between atoms: C_16  and  N_17
REMARK    7  A    between atoms: N_17  and  C_18
REMARK    8  A    between atoms: C_18  and  C_19
REMARK    9  A    between atoms: C_19  and  C_20
REMARK   10  A    between atoms: C_20  and  N_21
REMARK   11  A    between atoms: N_24  and  C_25
REMARK                            x       y       z     vdW  Elec       q    Type
REMARK                         _______ _______ _______ _____ _____    ______ ____
ROOT
ATOM      1  C   UNL     1       1.918   6.981  20.414  0.00  0.00    +0.000 A 
ATOM      2  N   UNL     1       1.117   7.797  21.135  0.00  0.00    +0.000 NA
ATOM      3  C   UNL     1       0.756   8.961  20.559  0.00  0.00    +0.000 A 
ATOM      4  C   UNL     1      -0.049   9.863  21.243  0.00  0.00    +0.000 A 
ATOM      5  C   UNL     1      -0.501  11.065  20.667  0.00  0.00    +0.000 A 
ATOM      6  C   UNL     1      -0.123  11.349  19.351  0.00  0.00    +0.000 A 
ATOM      7 CL   UNL     1      -0.610  12.726  18.428  0.00  0.00    +0.000 Cl
ATOM      8  C   UNL     1       0.716  10.464  18.670  0.00  0.00    +0.000 A 
ATOM      9  C   UNL     1       1.171   9.297  19.254  0.00  0.00    +0.000 A 
ATOM     10  N   UNL     1       1.992   8.513  18.540  0.00  0.00    +0.000 NA
ATOM     11  C   UNL     1       2.388   7.370  19.129  0.00  0.00    +0.000 A 
ENDROOT
BRANCH   1  12
ATOM     12  N   UNL     1       2.393   5.767  20.968  0.00  0.00    +0.000 N 
ATOM     13  H   UNL     1       3.286   5.550  20.531  0.00  0.00    +0.000 HD
BRANCH  12  15
ATOM     14  C   UNL     1       2.052   3.440  21.572  0.00  0.00    +0.000 C 
ATOM     15  C   UNL     1       1.432   4.680  20.943  0.00  0.00    +0.000 C 
ENDBRANCH  12  15
ENDBRANCH   1  12
BRANCH   5  16
ATOM     16  O   UNL     1      -1.277  11.774  21.541  0.00  0.00    +0.000 OA
ATOM     17  C   UNL     1      -1.304  11.434  22.916  0.00  0.00    +0.000 C 
ENDBRANCH   5  16
BRANCH  11  18
ATOM     18  N   UNL     1       3.171   6.461  18.395  0.00  0.00    +0.000 N 
ATOM     19  H   UNL     1       3.882   6.113  19.036  0.00  0.00    +0.000 HD
BRANCH  18  20
ATOM     20  C   UNL     1       2.442   5.375  17.749  0.00  0.00    +0.000 C 
BRANCH  20  21
ATOM     21  C   UNL     1       3.215   4.081  18.009  0.00  0.00    +0.000 C 
BRANCH  21  22
ATOM     22  C   UNL     1       3.858   3.530  16.730  0.00  0.00    +0.000 C 
BRANCH  22  23
ATOM     23  N   UNL     1       5.270   3.895  16.567  0.00  0.00    +0.000 NA
ATOM     24  C   UNL     1       5.859   4.236  17.881  0.00  0.00    +0.000 C 
ATOM     25  C   UNL     1       7.345   4.645  17.767  0.00  0.00    +0.000 C 
ATOM     26  N   UNL     1       7.626   5.727  16.801  0.00  0.00    +0.000 NA
ATOM     27  C   UNL     1       7.216   7.032  17.313  0.00  0.00    +0.000 C 
ATOM     28  C   UNL     1       6.955   5.417  15.523  0.00  0.00    +0.000 C 
ATOM     29  C   UNL     1       5.465   5.035  15.647  0.00  0.00    +0.000 C 
ENDBRANCH  22  23
ENDBRANCH  21  22
ENDBRANCH  20  21
ENDBRANCH  18  20
ENDBRANCH  11  18
TORSDOF 8
ENDMDL
