MODEL 1
REMARK VINA RESULT:      -5.3      0.000      0.000
REMARK  Name = 
REMARK  14 active torsions:
REMARK  status: ('A' for Active; 'I' for Inactive)
REMARK    1  A    between atoms: C_1  and  C_2
REMARK    2  A    between atoms: C_5  and  C_6
REMARK    3  A    between atoms: C_7  and  C_8
REMARK    4  A    between atoms: C_8  and  N_9
REMARK    5  A    between atoms: C_10  and  C_11
REMARK    6  A    between atoms: C_11  and  C_12
REMARK    7  A    between atoms: C_12  and  C_13
REMARK    8  A    between atoms: C_12  and  C_14
REMARK    9  A    between atoms: C_12  and  C_15
REMARK   10  A    between atoms: C_17  and  C_18
REMARK   11  A    between atoms: C_18  and  C_19
REMARK   12  A    between atoms: C_18  and  C_20
REMARK   13  A    between atoms: C_21  and  C_22
REMARK   14  A    between atoms: C_22  and  O_24
REMARK                            x       y       z     vdW  Elec       q    Type
REMARK                         _______ _______ _______ _____ _____    ______ ____
ROOT
ATOM      1  C   UNL     1      -1.901  11.943  19.927  0.00  0.00    +0.000 A 
ATOM      2  C   UNL     1      -1.928  12.859  21.033  0.00  0.00    +0.000 A 
ATOM      3  C   UNL     1      -3.142  13.533  21.294  0.00  0.00    +0.000 A 
ATOM      4  N   UNL     1      -4.282  13.330  20.578  0.00  0.00    +0.000 NA
ATOM      5  C   UNL     1      -4.259  12.503  19.507  0.00  0.00    +0.000 A 
ATOM      6  C   UNL     1      -3.093  11.821  19.153  0.00  0.00    +0.000 A 
ENDROOT
BRANCH   1  11
ATOM      7  C   UNL     1       2.566   8.624  18.123  0.00  0.00    +0.000 C 
ATOM      8  C   UNL     1       1.481   9.493  18.680  0.00  0.00    +0.000 A 
ATOM      9  C   UNL     1       0.613   9.040  19.676  0.00  0.00    +0.000 A 
ATOM     10  C   UNL     1      -0.429   9.864  20.131  0.00  0.00    +0.000 A 
ATOM     11  C   UNL     1      -0.691  11.128  19.554  0.00  0.00    +0.000 A 
ATOM     12  C   UNL     1       0.197  11.546  18.553  0.00  0.00    +0.000 A 
ATOM     13  C   UNL     1       1.291  10.768  18.156  0.00  0.00    +0.000 A 
ENDBRANCH   1  11
BRANCH   5  14
ATOM     14  C   UNL     1      -5.588  12.358  18.760  0.00  0.00    +0.000 C 
ATOM     15  C   UNL     1      -6.445  11.248  19.374  0.00  0.00    +0.000 C 
ATOM     16  C   UNL     1      -6.390  13.667  18.735  0.00  0.00    +0.000 C 
ENDBRANCH   5  14
BRANCH   6  17
ATOM     17  C   UNL     1      -3.115  11.042  17.896  0.00  0.00    +0.000 C 
ATOM     18  O   UNL     1      -3.364   9.858  17.777  0.00  0.00    +0.000 OA
BRANCH  17  19
ATOM     19  O   UNL     1      -2.860  11.837  16.844  0.00  0.00    +0.000 OA
ATOM     20  H   UNL     1      -3.706  12.292  16.659  0.00  0.00    +0.000 HD
ENDBRANCH  17  19
ENDBRANCH   6  17
BRANCH   2  21
ATOM     21  C   UNL     1      -0.701  13.210  21.860  0.00  0.00    +0.000 C 
BRANCH  21  22
ATOM     22  N   UNL     1      -0.391  12.276  22.931  0.00  0.00    +0.000 NA
ATOM     23  H   UNL     1       0.175  11.509  22.571  0.00  0.00    +0.000 HD
ATOM     24  H   UNL     1      -1.258  11.856  23.267  0.00  0.00    +0.000 HD
ENDBRANCH  21  22
ENDBRANCH   2  21
BRANCH   3  25
ATOM     25  C   UNL     1      -3.334  14.528  22.420  0.00  0.00    +0.000 C 
BRANCH  25  26
ATOM     26  C   UNL     1      -3.896  14.000  23.776  0.00  0.00    +0.000 C 
ATOM     27  C   UNL     1      -3.162  14.654  24.964  0.00  0.00    +0.000 C 
ATOM     28  C   UNL     1      -5.396  14.374  23.815  0.00  0.00    +0.000 C 
ATOM     29  C   UNL     1      -3.795  12.472  23.942  0.00  0.00    +0.000 C 
ENDBRANCH  25  26
ENDBRANCH   3  25
TORSDOF 8
ENDMDL
MODEL 2
REMARK VINA RESULT:      -5.3      2.281      4.236
REMARK  Name = 
REMARK  14 active torsions:
REMARK  status: ('A' for Active; 'I' for Inactive)
REMARK    1  A    between atoms: C_1  and  C_2
REMARK    2  A    between atoms: C_5  and  C_6
REMARK    3  A    between atoms: C_7  and  C_8
REMARK    4  A    between atoms: C_8  and  N_9
REMARK    5  A    between atoms: C_10  and  C_11
REMARK    6  A    between atoms: C_11  and  C_12
REMARK    7  A    between atoms: C_12  and  C_13
REMARK    8  A    between atoms: C_12  and  C_14
REMARK    9  A    between atoms: C_12  and  C_15
REMARK   10  A    between atoms: C_17  and  C_18
REMARK   11  A    between atoms: C_18  and  C_19
REMARK   12  A    between atoms: C_18  and  C_20
REMARK   13  A    between atoms: C_21  and  C_22
REMARK   14  A    between atoms: C_22  and  O_24
REMARK                            x       y       z     vdW  Elec       q    Type
REMARK                         _______ _______ _______ _____ _____    ______ ____
ROOT
ATOM      1  C   UNL     1      -2.201  12.110  20.655  0.00  0.00    +0.000 A 
ATOM      2  C   UNL     1      -3.359  12.501  19.900  0.00  0.00    +0.000 A 
ATOM      3  C   UNL     1      -4.434  13.085  20.608  0.00  0.00    +0.000 A 
ATOM      4  N   UNL     1      -4.409  13.323  21.948  0.00  0.00    +0.000 NA
ATOM      5  C   UNL     1      -3.343  12.919  22.678  0.00  0.00    +0.000 A 
ATOM      6  C   UNL     1      -2.248  12.302  22.068  0.00  0.00    +0.000 A 
ENDROOT
BRANCH   1  11
ATOM      7  C   UNL     1       2.392   9.840  17.832  0.00  0.00    +0.000 C 
ATOM      8  C   UNL     1       1.266  10.388  18.652  0.00  0.00    +0.000 A 
ATOM      9  C   UNL     1       0.297   9.557  19.222  0.00  0.00    +0.000 A 
ATOM     10  C   UNL     1      -0.777  10.114  19.934  0.00  0.00    +0.000 A 
ATOM     11  C   UNL     1      -0.968  11.512  20.032  0.00  0.00    +0.000 A 
ATOM     12  C   UNL     1       0.021  12.313  19.443  0.00  0.00    +0.000 A 
ATOM     13  C   UNL     1       1.141  11.765  18.807  0.00  0.00    +0.000 A 
ENDBRANCH   1  11
BRANCH   5  14
ATOM     14  C   UNL     1      -3.422  13.219  24.178  0.00  0.00    +0.000 C 
ATOM     15  C   UNL     1      -3.499  14.726  24.434  0.00  0.00    +0.000 C 
ATOM     16  C   UNL     1      -4.615  12.525  24.850  0.00  0.00    +0.000 C 
ENDBRANCH   5  14
BRANCH   6  17
ATOM     17  C   UNL     1      -1.186  11.774  22.950  0.00  0.00    +0.000 C 
ATOM     18  O   UNL     1      -1.124  10.658  23.428  0.00  0.00    +0.000 OA
BRANCH  17  19
ATOM     19  O   UNL     1      -0.227  12.695  23.138  0.00  0.00    +0.000 OA
ATOM     20  H   UNL     1      -0.399  13.063  24.027  0.00  0.00    +0.000 HD
ENDBRANCH  17  19
ENDBRANCH   6  17
BRANCH   2  21
ATOM     21  C   UNL     1      -3.521  12.228  18.413  0.00  0.00    +0.000 C 
BRANCH  21  22
ATOM     22  N   UNL     1      -3.730  10.832  18.062  0.00  0.00    +0.000 NA
ATOM     23  H   UNL     1      -2.913  10.281  18.324  0.00  0.00    +0.000 HD
ATOM     24  H   UNL     1      -3.812  10.753  17.048  0.00  0.00    +0.000 HD
ENDBRANCH  21  22
ENDBRANCH   2  21
BRANCH   3  25
ATOM     25  C   UNL     1      -5.722  13.550  19.960  0.00  0.00    +0.000 C 
BRANCH  25  26
ATOM     26  C   UNL     1      -6.959  12.603  20.027  0.00  0.00    +0.000 C 
ATOM     27  C   UNL     1      -7.916  13.031  21.158  0.00  0.00    +0.000 C 
ATOM     28  C   UNL     1      -7.678  12.708  18.662  0.00  0.00    +0.000 C 
ATOM     29  C   UNL     1      -6.600  11.121  20.248  0.00  0.00    +0.000 C 
ENDBRANCH  25  26
ENDBRANCH   3  25
TORSDOF 8
ENDMDL
MODEL 3
REMARK VINA RESULT:      -5.2      2.259      4.333
REMARK  Name = 
REMARK  14 active torsions:
REMARK  status: ('A' for Active; 'I' for Inactive)
REMARK    1  A    between atoms: C_1  and  C_2
REMARK    2  A    between atoms: C_5  and  C_6
REMARK    3  A    between atoms: C_7  and  C_8
REMARK    4  A    between atoms: C_8  and  N_9
REMARK    5  A    between atoms: C_10  and  C_11
REMARK    6  A    between atoms: C_11  and  C_12
REMARK    7  A    between atoms: C_12  and  C_13
REMARK    8  A    between atoms: C_12  and  C_14
REMARK    9  A    between atoms: C_12  and  C_15
REMARK   10  A    between atoms: C_17  and  C_18
REMARK   11  A    between atoms: C_18  and  C_19
REMARK   12  A    between atoms: C_18  and  C_20
REMARK   13  A    between atoms: C_21  and  C_22
REMARK   14  A    between atoms: C_22  and  O_24
REMARK                            x       y       z     vdW  Elec       q    Type
REMARK                         _______ _______ _______ _____ _____    ______ ____
ROOT
ATOM      1  C   UNL     1      -1.141  10.934  19.549  0.00  0.00    +0.000 A 
ATOM      2  C   UNL     1      -2.301  10.954  18.701  0.00  0.00    +0.000 A 
ATOM      3  C   UNL     1      -3.327  11.873  19.019  0.00  0.00    +0.000 A 
ATOM      4  N   UNL     1      -3.253  12.752  20.056  0.00  0.00    +0.000 NA
ATOM      5  C   UNL     1      -2.186  12.713  20.888  0.00  0.00    +0.000 A 
ATOM      6  C   UNL     1      -1.140  11.815  20.671  0.00  0.00    +0.000 A 
ENDROOT
BRANCH   1  11
ATOM      7  C   UNL     1       3.198   7.194  18.368  0.00  0.00    +0.000 C 
ATOM      8  C   UNL     1       2.156   8.199  18.747  0.00  0.00    +0.000 A 
ATOM      9  C   UNL     1       1.423   8.090  19.931  0.00  0.00    +0.000 A 
ATOM     10  C   UNL     1       0.413   9.020  20.223  0.00  0.00    +0.000 A 
ATOM     11  C   UNL     1       0.044  10.037  19.311  0.00  0.00    +0.000 A 
ATOM     12  C   UNL     1       0.798  10.112  18.132  0.00  0.00    +0.000 A 
ATOM     13  C   UNL     1       1.865   9.243  17.873  0.00  0.00    +0.000 A 
ENDBRANCH   1  11
BRANCH   5  14
ATOM     14  C   UNL     1      -2.208  13.732  22.031  0.00  0.00    +0.000 C 
ATOM     15  C   UNL     1      -2.577  15.126  21.518  0.00  0.00    +0.000 C 
ATOM     16  C   UNL     1      -3.174  13.329  23.154  0.00  0.00    +0.000 C 
ENDBRANCH   5  14
BRANCH   6  17
ATOM     17  C   UNL     1      -0.078  11.746  21.697  0.00  0.00    +0.000 C 
ATOM     18  O   UNL     1      -0.112  11.121  22.740  0.00  0.00    +0.000 OA
BRANCH  17  19
ATOM     19  O   UNL     1       0.999  12.450  21.311  0.00  0.00    +0.000 OA
ATOM     20  H   UNL     1       0.776  12.784  20.420  0.00  0.00    +0.000 HD
ENDBRANCH  17  19
ENDBRANCH   6  17
BRANCH   2  21
ATOM     21  C   UNL     1      -2.519   9.977  17.556  0.00  0.00    +0.000 C 
BRANCH  21  22
ATOM     22  N   UNL     1      -2.155  10.478  16.240  0.00  0.00    +0.000 NA
ATOM     23  H   UNL     1      -1.713   9.738  15.696  0.00  0.00    +0.000 HD
ATOM     24  H   UNL     1      -1.452  11.210  16.345  0.00  0.00    +0.000 HD
ENDBRANCH  21  22
ENDBRANCH   2  21
BRANCH   3  25
ATOM     25  C   UNL     1      -4.610  12.017  18.226  0.00  0.00    +0.000 C 
BRANCH  25  26
ATOM     26  C   UNL     1      -5.944  11.579  18.907  0.00  0.00    +0.000 C 
ATOM     27  C   UNL     1      -5.988  12.046  20.376  0.00  0.00    +0.000 C 
ATOM     28  C   UNL     1      -7.092  12.243  18.110  0.00  0.00    +0.000 C 
ATOM     29  C   UNL     1      -6.187  10.058  18.887  0.00  0.00    +0.000 C 
ENDBRANCH  25  26
ENDBRANCH   3  25
TORSDOF 8
ENDMDL
MODEL 4
REMARK VINA RESULT:      -5.2      2.466      4.627
REMARK  Name = 
REMARK  14 active torsions:
REMARK  status: ('A' for Active; 'I' for Inactive)
REMARK    1  A    between atoms: C_1  and  C_2
REMARK    2  A    between atoms: C_5  and  C_6
REMARK    3  A    between atoms: C_7  and  C_8
REMARK    4  A    between atoms: C_8  and  N_9
REMARK    5  A    between atoms: C_10  and  C_11
REMARK    6  A    between atoms: C_11  and  C_12
REMARK    7  A    between atoms: C_12  and  C_13
REMARK    8  A    between atoms: C_12  and  C_14
REMARK    9  A    between atoms: C_12  and  C_15
REMARK   10  A    between atoms: C_17  and  C_18
REMARK   11  A    between atoms: C_18  and  C_19
REMARK   12  A    between atoms: C_18  and  C_20
REMARK   13  A    between atoms: C_21  and  C_22
REMARK   14  A    between atoms: C_22  and  O_24
REMARK                            x       y       z     vdW  Elec       q    Type
REMARK                         _______ _______ _______ _____ _____    ______ ____
ROOT
ATOM      1  C   UNL     1      -2.203  12.617  20.519  0.00  0.00    +0.000 A 
ATOM      2  C   UNL     1      -3.462  12.366  19.873  0.00  0.00    +0.000 A 
ATOM      3  C   UNL     1      -4.620  12.355  20.682  0.00  0.00    +0.000 A 
ATOM      4  N   UNL     1      -4.603  12.603  22.021  0.00  0.00    +0.000 NA
ATOM      5  C   UNL     1      -3.420  12.797  22.649  0.00  0.00    +0.000 A 
ATOM      6  C   UNL     1      -2.220  12.791  21.935  0.00  0.00    +0.000 A 
ENDROOT
BRANCH   1  11
ATOM      7  C   UNL     1       3.092  12.928  18.052  0.00  0.00    +0.000 C 
ATOM      8  C   UNL     1       1.692  12.866  18.580  0.00  0.00    +0.000 A 
ATOM      9  C   UNL     1       0.922  14.017  18.762  0.00  0.00    +0.000 A 
ATOM     10  C   UNL     1      -0.365  13.923  19.316  0.00  0.00    +0.000 A 
ATOM     11  C   UNL     1      -0.894  12.696  19.781  0.00  0.00    +0.000 A 
ATOM     12  C   UNL     1      -0.089  11.564  19.586  0.00  0.00    +0.000 A 
ATOM     13  C   UNL     1       1.158  11.637  18.955  0.00  0.00    +0.000 A 
ENDBRANCH   1  11
BRANCH   5  14
ATOM     14  C   UNL     1      -3.511  13.050  24.156  0.00  0.00    +0.000 C 
ATOM     15  C   UNL     1      -3.662  14.544  24.455  0.00  0.00    +0.000 C 
ATOM     16  C   UNL     1      -4.666  12.280  24.810  0.00  0.00    +0.000 C 
ENDBRANCH   5  14
BRANCH   6  17
ATOM     17  C   UNL     1      -0.966  12.878  22.712  0.00  0.00    +0.000 C 
ATOM     18  O   UNL     1      -0.364  13.891  23.014  0.00  0.00    +0.000 OA
BRANCH  17  19
ATOM     19  O   UNL     1      -0.567  11.657  23.104  0.00  0.00    +0.000 OA
ATOM     20  H   UNL     1      -0.932  11.548  24.004  0.00  0.00    +0.000 HD
ENDBRANCH  17  19
ENDBRANCH   6  17
BRANCH   2  21
ATOM     21  C   UNL     1      -3.592  12.016  18.399  0.00  0.00    +0.000 C 
BRANCH  21  22
ATOM     22  N   UNL     1      -3.397  10.611  18.080  0.00  0.00    +0.000 NA
ATOM     23  H   UNL     1      -4.293  10.126  18.080  0.00  0.00    +0.000 HD
ATOM     24  H   UNL     1      -2.839  10.176  18.815  0.00  0.00    +0.000 HD
ENDBRANCH  21  22
ENDBRANCH   2  21
BRANCH   3  25
ATOM     25  C   UNL     1      -6.019  12.106  20.156  0.00  0.00    +0.000 C 
BRANCH  25  26
ATOM     26  C   UNL     1      -6.929  13.343  19.882  0.00  0.00    +0.000 C 
ATOM     27  C   UNL     1      -6.078  14.600  19.614  0.00  0.00    +0.000 C 
ATOM     28  C   UNL     1      -7.777  13.007  18.633  0.00  0.00    +0.000 C 
ATOM     29  C   UNL     1      -7.904  13.669  21.029  0.00  0.00    +0.000 C 
ENDBRANCH  25  26
ENDBRANCH   3  25
TORSDOF 8
ENDMDL
MODEL 5
REMARK VINA RESULT:      -5.2      8.732     11.460
REMARK  Name = 
REMARK  14 active torsions:
REMARK  status: ('A' for Active; 'I' for Inactive)
REMARK    1  A    between atoms: C_1  and  C_2
REMARK    2  A    between atoms: C_5  and  C_6
REMARK    3  A    between atoms: C_7  and  C_8
REMARK    4  A    between atoms: C_8  and  N_9
REMARK    5  A    between atoms: C_10  and  C_11
REMARK    6  A    between atoms: C_11  and  C_12
REMARK    7  A    between atoms: C_12  and  C_13
REMARK    8  A    between atoms: C_12  and  C_14
REMARK    9  A    between atoms: C_12  and  C_15
REMARK   10  A    between atoms: C_17  and  C_18
REMARK   11  A    between atoms: C_18  and  C_19
REMARK   12  A    between atoms: C_18  and  C_20
REMARK   13  A    between atoms: C_21  and  C_22
REMARK   14  A    between atoms: C_22  and  O_24
REMARK                            x       y       z     vdW  Elec       q    Type
REMARK                         _______ _______ _______ _____ _____    ______ ____
ROOT
ATOM      1  C   UNL     1       7.301  13.649  22.090  0.00  0.00    +0.000 A 
ATOM      2  C   UNL     1       8.522  13.416  21.370  0.00  0.00    +0.000 A 
ATOM      3  C   UNL     1       8.651  14.007  20.093  0.00  0.00    +0.000 A 
ATOM      4  N   UNL     1       7.700  14.805  19.535  0.00  0.00    +0.000 NA
ATOM      5  C   UNL     1       6.527  14.997  20.183  0.00  0.00    +0.000 A 
ATOM      6  C   UNL     1       6.297  14.424  21.436  0.00  0.00    +0.000 A 
ENDROOT
BRANCH   1  11
ATOM      7  C   UNL     1       6.705  11.424  27.467  0.00  0.00    +0.000 C 
ATOM      8  C   UNL     1       6.745  12.013  26.091  0.00  0.00    +0.000 A 
ATOM      9  C   UNL     1       6.299  11.304  24.972  0.00  0.00    +0.000 A 
ATOM     10  C   UNL     1       6.409  11.869  23.692  0.00  0.00    +0.000 A 
ATOM     11  C   UNL     1       7.039  13.116  23.473  0.00  0.00    +0.000 A 
ATOM     12  C   UNL     1       7.479  13.795  24.618  0.00  0.00    +0.000 A 
ATOM     13  C   UNL     1       7.294  13.279  25.906  0.00  0.00    +0.000 A 
ENDBRANCH   1  11
BRANCH   5  14
ATOM     14  C   UNL     1       5.519  15.897  19.463  0.00  0.00    +0.000 C 
ATOM     15  C   UNL     1       6.176  17.199  19.000  0.00  0.00    +0.000 C 
ATOM     16  C   UNL     1       4.867  15.199  18.261  0.00  0.00    +0.000 C 
ENDBRANCH   5  14
BRANCH   6  17
ATOM     17  C   UNL     1       4.945  14.573  22.015  0.00  0.00    +0.000 C 
ATOM     18  O   UNL     1       4.008  13.809  21.883  0.00  0.00    +0.000 OA
BRANCH  17  19
ATOM     19  O   UNL     1       4.876  15.678  22.776  0.00  0.00    +0.000 OA
ATOM     20  H   UNL     1       5.774  16.064  22.743  0.00  0.00    +0.000 HD
ENDBRANCH  17  19
ENDBRANCH   6  17
BRANCH   2  21
ATOM     21  C   UNL     1       9.624  12.493  21.867  0.00  0.00    +0.000 C 
BRANCH  21  22
ATOM     22  N   UNL     1       9.357  11.072  21.707  0.00  0.00    +0.000 NA
ATOM     23  H   UNL     1      10.008  10.530  22.275  0.00  0.00    +0.000 HD
ATOM     24  H   UNL     1       9.537  10.806  20.739  0.00  0.00    +0.000 HD
ENDBRANCH  21  22
ENDBRANCH   2  21
BRANCH   3  25
ATOM     25  C   UNL     1       9.873  13.857  19.209  0.00  0.00    +0.000 C 
BRANCH  25  26
ATOM     26  C   UNL     1       9.811  12.823  18.043  0.00  0.00    +0.000 C 
ATOM     27  C   UNL     1       8.371  12.690  17.506  0.00  0.00    +0.000 C 
ATOM     28  C   UNL     1      10.741  13.351  16.926  0.00  0.00    +0.000 C 
ATOM     29  C   UNL     1      10.303  11.415  18.428  0.00  0.00    +0.000 C 
ENDBRANCH  25  26
ENDBRANCH   3  25
TORSDOF 8
ENDMDL
MODEL 6
REMARK VINA RESULT:      -5.2      2.079      4.192
REMARK  Name = 
REMARK  14 active torsions:
REMARK  status: ('A' for Active; 'I' for Inactive)
REMARK    1  A    between atoms: C_1  and  C_2
REMARK    2  A    between atoms: C_5  and  C_6
REMARK    3  A    between atoms: C_7  and  C_8
REMARK    4  A    between atoms: C_8  and  N_9
REMARK    5  A    between atoms: C_10  and  C_11
REMARK    6  A    between atoms: C_11  and  C_12
REMARK    7  A    between atoms: C_12  and  C_13
REMARK    8  A    between atoms: C_12  and  C_14
REMARK    9  A    between atoms: C_12  and  C_15
REMARK   10  A    between atoms: C_17  and  C_18
REMARK   11  A    between atoms: C_18  and  C_19
REMARK   12  A    between atoms: C_18  and  C_20
REMARK   13  A    between atoms: C_21  and  C_22
REMARK   14  A    between atoms: C_22  and  O_24
REMARK                            x       y       z     vdW  Elec       q    Type
REMARK                         _______ _______ _______ _____ _____    ______ ____
ROOT
ATOM      1  C   UNL     1      -1.746  11.798  20.088  0.00  0.00    +0.000 A 
ATOM      2  C   UNL     1      -2.946  11.924  19.308  0.00  0.00    +0.000 A 
ATOM      3  C   UNL     1      -3.979  12.739  19.824  0.00  0.00    +0.000 A 
ATOM      4  N   UNL     1      -3.877  13.430  20.992  0.00  0.00    +0.000 NA
ATOM      5  C   UNL     1      -2.770  13.287  21.758  0.00  0.00    +0.000 A 
ATOM      6  C   UNL     1      -1.713  12.475  21.344  0.00  0.00    +0.000 A 
ENDROOT
BRANCH   1  11
ATOM      7  C   UNL     1       2.670   8.577  18.006  0.00  0.00    +0.000 C 
ATOM      8  C   UNL     1       1.597   9.408  18.637  0.00  0.00    +0.000 A 
ATOM      9  C   UNL     1       0.695   8.871  19.559  0.00  0.00    +0.000 A 
ATOM     10  C   UNL     1      -0.335   9.668  20.084  0.00  0.00    +0.000 A 
ATOM     11  C   UNL     1      -0.551  10.997  19.649  0.00  0.00    +0.000 A 
ATOM     12  C   UNL     1       0.370  11.499  18.719  0.00  0.00    +0.000 A 
ATOM     13  C   UNL     1       1.452  10.739  18.257  0.00  0.00    +0.000 A 
ENDBRANCH   1  11
BRANCH   5  14
ATOM     14  C   UNL     1      -2.763  14.094  23.059  0.00  0.00    +0.000 C 
ATOM     15  C   UNL     1      -3.220  15.535  22.816  0.00  0.00    +0.000 C 
ATOM     16  C   UNL     1      -3.640  13.458  24.147  0.00  0.00    +0.000 C 
ENDBRANCH   5  14
BRANCH   6  17
ATOM     17  C   UNL     1      -0.601  12.268  22.296  0.00  0.00    +0.000 C 
ATOM     18  O   UNL     1      -0.537  11.424  23.171  0.00  0.00    +0.000 OA
BRANCH  17  19
ATOM     19  O   UNL     1       0.400  13.129  22.049  0.00  0.00    +0.000 OA
ATOM     20  H   UNL     1       1.017  13.023  22.799  0.00  0.00    +0.000 HD
ENDBRANCH  17  19
ENDBRANCH   6  17
BRANCH   2  21
ATOM     21  C   UNL     1      -3.194  11.150  18.023  0.00  0.00    +0.000 C 
BRANCH  21  22
ATOM     22  N   UNL     1      -2.704  11.790  16.813  0.00  0.00    +0.000 NA
ATOM     23  H   UNL     1      -2.356  12.724  17.030  0.00  0.00    +0.000 HD
ATOM     24  H   UNL     1      -3.483  11.921  16.167  0.00  0.00    +0.000 HD
ENDBRANCH  21  22
ENDBRANCH   2  21
BRANCH   3  25
ATOM     25  C   UNL     1      -5.303  12.973  19.125  0.00  0.00    +0.000 C 
BRANCH  25  26
ATOM     26  C   UNL     1      -6.568  12.261  19.696  0.00  0.00    +0.000 C 
ATOM     27  C   UNL     1      -7.842  13.069  19.374  0.00  0.00    +0.000 C 
ATOM     28  C   UNL     1      -6.643  10.871  19.022  0.00  0.00    +0.000 C 
ATOM     29  C   UNL     1      -6.525  12.035  21.219  0.00  0.00    +0.000 C 
ENDBRANCH  25  26
ENDBRANCH   3  25
TORSDOF 8
ENDMDL
MODEL 7
REMARK VINA RESULT:      -5.1      1.487      2.296
REMARK  Name = 
REMARK  14 active torsions:
REMARK  status: ('A' for Active; 'I' for Inactive)
REMARK    1  A    between atoms: C_1  and  C_2
REMARK    2  A    between atoms: C_5  and  C_6
REMARK    3  A    between atoms: C_7  and  C_8
REMARK    4  A    between atoms: C_8  and  N_9
REMARK    5  A    between atoms: C_10  and  C_11
REMARK    6  A    between atoms: C_11  and  C_12
REMARK    7  A    between atoms: C_12  and  C_13
REMARK    8  A    between atoms: C_12  and  C_14
REMARK    9  A    between atoms: C_12  and  C_15
REMARK   10  A    between atoms: C_17  and  C_18
REMARK   11  A    between atoms: C_18  and  C_19
REMARK   12  A    between atoms: C_18  and  C_20
REMARK   13  A    between atoms: C_21  and  C_22
REMARK   14  A    between atoms: C_22  and  O_24
REMARK                            x       y       z     vdW  Elec       q    Type
REMARK                         _______ _______ _______ _____ _____    ______ ____
ROOT
ATOM      1  C   UNL     1      -2.993  12.440  20.265  0.00  0.00    +0.000 A 
ATOM      2  C   UNL     1      -3.227  13.043  21.548  0.00  0.00    +0.000 A 
ATOM      3  C   UNL     1      -4.551  13.039  22.040  0.00  0.00    +0.000 A 
ATOM      4  N   UNL     1      -5.595  12.467  21.381  0.00  0.00    +0.000 NA
ATOM      5  C   UNL     1      -5.397  11.934  20.152  0.00  0.00    +0.000 A 
ATOM      6  C   UNL     1      -4.128  11.924  19.571  0.00  0.00    +0.000 A 
ENDROOT
BRANCH   1  11
ATOM      7  C   UNL     1       2.476  12.145  18.210  0.00  0.00    +0.000 C 
ATOM      8  C   UNL     1       1.040  12.212  18.628  0.00  0.00    +0.000 A 
ATOM      9  C   UNL     1       0.276  13.369  18.459  0.00  0.00    +0.000 A 
ATOM     10  C   UNL     1      -1.050  13.411  18.919  0.00  0.00    +0.000 A 
ATOM     11  C   UNL     1      -1.631  12.337  19.633  0.00  0.00    +0.000 A 
ATOM     12  C   UNL     1      -0.832  11.196  19.788  0.00  0.00    +0.000 A 
ATOM     13  C   UNL     1       0.460  11.113  19.256  0.00  0.00    +0.000 A 
ENDBRANCH   1  11
BRANCH   5  14
ATOM     14  C   UNL     1      -6.640  11.331  19.490  0.00  0.00    +0.000 C 
ATOM     15  C   UNL     1      -7.467  10.531  20.498  0.00  0.00    +0.000 C 
ATOM     16  C   UNL     1      -7.528  12.398  18.833  0.00  0.00    +0.000 C 
ENDBRANCH   5  14
BRANCH   6  17
ATOM     17  C   UNL     1      -4.021  11.445  18.177  0.00  0.00    +0.000 C 
ATOM     18  O   UNL     1      -3.732  10.321  17.812  0.00  0.00    +0.000 OA
BRANCH  17  19
ATOM     19  O   UNL     1      -4.337  12.426  17.315  0.00  0.00    +0.000 OA
ATOM     20  H   UNL     1      -3.978  12.132  16.454  0.00  0.00    +0.000 HD
ENDBRANCH  17  19
ENDBRANCH   6  17
BRANCH   2  21
ATOM     21  C   UNL     1      -2.150  13.766  22.342  0.00  0.00    +0.000 C 
BRANCH  21  22
ATOM     22  N   UNL     1      -1.319  12.911  23.175  0.00  0.00    +0.000 NA
ATOM     23  H   UNL     1      -1.011  12.099  22.641  0.00  0.00    +0.000 HD
ATOM     24  H   UNL     1      -1.881  12.548  23.945  0.00  0.00    +0.000 HD
ENDBRANCH  21  22
ENDBRANCH   2  21
BRANCH   3  25
ATOM     25  C   UNL     1      -4.962  13.634  23.372  0.00  0.00    +0.000 C 
BRANCH  25  26
ATOM     26  C   UNL     1      -5.594  15.060  23.374  0.00  0.00    +0.000 C 
ATOM     27  C   UNL     1      -7.064  15.006  23.839  0.00  0.00    +0.000 C 
ATOM     28  C   UNL     1      -4.763  15.917  24.356  0.00  0.00    +0.000 C 
ATOM     29  C   UNL     1      -5.559  15.761  22.002  0.00  0.00    +0.000 C 
ENDBRANCH  25  26
ENDBRANCH   3  25
TORSDOF 8
ENDMDL
MODEL 8
REMARK VINA RESULT:      -5.1      2.379      4.495
REMARK  Name = 
REMARK  14 active torsions:
REMARK  status: ('A' for Active; 'I' for Inactive)
REMARK    1  A    between atoms: C_1  and  C_2
REMARK    2  A    between atoms: C_5  and  C_6
REMARK    3  A    between atoms: C_7  and  C_8
REMARK    4  A    between atoms: C_8  and  N_9
REMARK    5  A    between atoms: C_10  and  C_11
REMARK    6  A    between atoms: C_11  and  C_12
REMARK    7  A    between atoms: C_12  and  C_13
REMARK    8  A    between atoms: C_12  and  C_14
REMARK    9  A    between atoms: C_12  and  C_15
REMARK   10  A    between atoms: C_17  and  C_18
REMARK   11  A    between atoms: C_18  and  C_19
REMARK   12  A    between atoms: C_18  and  C_20
REMARK   13  A    between atoms: C_21  and  C_22
REMARK   14  A    between atoms: C_22  and  O_24
REMARK                            x       y       z     vdW  Elec       q    Type
REMARK                         _______ _______ _______ _____ _____    ______ ____
ROOT
ATOM      1  C   UNL     1      -2.521  12.299  20.531  0.00  0.00    +0.000 A 
ATOM      2  C   UNL     1      -3.817  12.260  19.912  0.00  0.00    +0.000 A 
ATOM      3  C   UNL     1      -4.942  12.475  20.740  0.00  0.00    +0.000 A 
ATOM      4  N   UNL     1      -4.854  12.749  22.070  0.00  0.00    +0.000 NA
ATOM      5  C   UNL     1      -3.643  12.745  22.674  0.00  0.00    +0.000 A 
ATOM      6  C   UNL     1      -2.478  12.509  21.942  0.00  0.00    +0.000 A 
ENDROOT
BRANCH   1  11
ATOM      7  C   UNL     1       2.695  11.615  17.973  0.00  0.00    +0.000 C 
ATOM      8  C   UNL     1       1.317  11.810  18.524  0.00  0.00    +0.000 A 
ATOM      9  C   UNL     1       0.751  13.080  18.662  0.00  0.00    +0.000 A 
ATOM     10  C   UNL     1      -0.520  13.226  19.238  0.00  0.00    +0.000 A 
ATOM     11  C   UNL     1      -1.233  12.126  19.770  0.00  0.00    +0.000 A 
ATOM     12  C   UNL     1      -0.631  10.869  19.619  0.00  0.00    +0.000 A 
ATOM     13  C   UNL     1       0.596  10.705  18.967  0.00  0.00    +0.000 A 
ENDBRANCH   1  11
BRANCH   5  14
ATOM     14  C   UNL     1      -3.657  13.047  24.175  0.00  0.00    +0.000 C 
ATOM     15  C   UNL     1      -3.744  14.554  24.432  0.00  0.00    +0.000 C 
ATOM     16  C   UNL     1      -4.806  12.338  24.904  0.00  0.00    +0.000 C 
ENDBRANCH   5  14
BRANCH   6  17
ATOM     17  C   UNL     1      -1.212  12.391  22.696  0.00  0.00    +0.000 C 
ATOM     18  O   UNL     1      -0.715  11.369  23.131  0.00  0.00    +0.000 OA
BRANCH  17  19
ATOM     19  O   UNL     1      -0.620  13.591  22.816  0.00  0.00    +0.000 OA
ATOM     20  H   UNL     1       0.029  13.481  23.539  0.00  0.00    +0.000 HD
ENDBRANCH  17  19
ENDBRANCH   6  17
BRANCH   2  21
ATOM     21  C   UNL     1      -4.037  11.903  18.451  0.00  0.00    +0.000 C 
BRANCH  21  22
ATOM     22  N   UNL     1      -4.100  10.478  18.167  0.00  0.00    +0.000 NA
ATOM     23  H   UNL     1      -3.678  10.285  17.259  0.00  0.00    +0.000 HD
ATOM     24  H   UNL     1      -5.077  10.196  18.092  0.00  0.00    +0.000 HD
ENDBRANCH  21  22
ENDBRANCH   2  21
BRANCH   3  25
ATOM     25  C   UNL     1      -6.374  12.466  20.242  0.00  0.00    +0.000 C 
BRANCH  25  26
ATOM     26  C   UNL     1      -7.037  13.834  19.896  0.00  0.00    +0.000 C 
ATOM     27  C   UNL     1      -7.913  13.714  18.633  0.00  0.00    +0.000 C 
ATOM     28  C   UNL     1      -7.914  14.226  21.108  0.00  0.00    +0.000 C 
ATOM     29  C   UNL     1      -6.030  14.977  19.665  0.00  0.00    +0.000 C 
ENDBRANCH  25  26
ENDBRANCH   3  25
TORSDOF 8
ENDMDL
MODEL 9
REMARK VINA RESULT:      -5.1     10.220     12.485
REMARK  Name = 
REMARK  14 active torsions:
REMARK  status: ('A' for Active; 'I' for Inactive)
REMARK    1  A    between atoms: C_1  and  C_2
REMARK    2  A    between atoms: C_5  and  C_6
REMARK    3  A    between atoms: C_7  and  C_8
REMARK    4  A    between atoms: C_8  and  N_9
REMARK    5  A    between atoms: C_10  and  C_11
REMARK    6  A    between atoms: C_11  and  C_12
REMARK    7  A    between atoms: C_12  and  C_13
REMARK    8  A    between atoms: C_12  and  C_14
REMARK    9  A    between atoms: C_12  and  C_15
REMARK   10  A    between atoms: C_17  and  C_18
REMARK   11  A    between atoms: C_18  and  C_19
REMARK   12  A    between atoms: C_18  and  C_20
REMARK   13  A    between atoms: C_21  and  C_22
REMARK   14  A    between atoms: C_22  and  O_24
REMARK                            x       y       z     vdW  Elec       q    Type
REMARK                         _______ _______ _______ _____ _____    ______ ____
ROOT
ATOM      1  C   UNL     1       8.290  13.969  21.988  0.00  0.00    +0.000 A 
ATOM      2  C   UNL     1       9.400  13.456  21.232  0.00  0.00    +0.000 A 
ATOM      3  C   UNL     1       9.833  14.207  20.117  0.00  0.00    +0.000 A 
ATOM      4  N   UNL     1       9.279  15.396  19.751  0.00  0.00    +0.000 NA
ATOM      5  C   UNL     1       8.206  15.868  20.426  0.00  0.00    +0.000 A 
ATOM      6  C   UNL     1       7.687  15.175  21.522  0.00  0.00    +0.000 A 
ENDROOT
BRANCH   1  11
ATOM      7  C   UNL     1       6.510  11.067  26.744  0.00  0.00    +0.000 C 
ATOM      8  C   UNL     1       6.868  11.868  25.531  0.00  0.00    +0.000 A 
ATOM      9  C   UNL     1       6.295  11.611  24.283  0.00  0.00    +0.000 A 
ATOM     10  C   UNL     1       6.701  12.345  23.158  0.00  0.00    +0.000 A 
ATOM     11  C   UNL     1       7.744  13.298  23.219  0.00  0.00    +0.000 A 
ATOM     12  C   UNL     1       8.299  13.525  24.487  0.00  0.00    +0.000 A 
ATOM     13  C   UNL     1       7.839  12.860  25.630  0.00  0.00    +0.000 A 
ENDBRANCH   1  11
BRANCH   5  14
ATOM     14  C   UNL     1       7.649  17.203  19.923  0.00  0.00    +0.000 C 
ATOM     15  C   UNL     1       8.779  18.163  19.545  0.00  0.00    +0.000 C 
ATOM     16  C   UNL     1       6.705  17.028  18.725  0.00  0.00    +0.000 C 
ENDBRANCH   5  14
BRANCH   6  17
ATOM     17  C   UNL     1       6.436  15.688  22.121  0.00  0.00    +0.000 C 
ATOM     18  O   UNL     1       5.301  15.392  21.803  0.00  0.00    +0.000 OA
BRANCH  17  19
ATOM     19  O   UNL     1       6.708  16.525  23.136  0.00  0.00    +0.000 OA
ATOM     20  H   UNL     1       5.849  16.930  23.366  0.00  0.00    +0.000 HD
ENDBRANCH  17  19
ENDBRANCH   6  17
BRANCH   2  21
ATOM     21  C   UNL     1      10.053  12.112  21.512  0.00  0.00    +0.000 C 
BRANCH  21  22
ATOM     22  N   UNL     1       9.326  10.957  21.011  0.00  0.00    +0.000 NA
ATOM     23  H   UNL     1       9.581  10.779  20.041  0.00  0.00    +0.000 HD
ATOM     24  H   UNL     1       8.328  11.167  21.008  0.00  0.00    +0.000 HD
ENDBRANCH  21  22
ENDBRANCH   2  21
BRANCH   3  25
ATOM     25  C   UNL     1      10.987  13.804  19.221  0.00  0.00    +0.000 C 
BRANCH  25  26
ATOM     26  C   UNL     1      10.660  12.994  17.928  0.00  0.00    +0.000 C 
ATOM     27  C   UNL     1      11.191  13.722  16.677  0.00  0.00    +0.000 C 
ATOM     28  C   UNL     1      11.358  11.621  18.073  0.00  0.00    +0.000 C 
ATOM     29  C   UNL     1       9.157  12.729  17.718  0.00  0.00    +0.000 C 
ENDBRANCH  25  26
ENDBRANCH   3  25
TORSDOF 8
ENDMDL
