MODEL 1
REMARK VINA RESULT:      -9.2      0.000      0.000
REMARK  Name = 
REMARK  7 active torsions:
REMARK  status: ('A' for Active; 'I' for Inactive)
REMARK    1  A    between atoms: C_1  and  C_2
REMARK    2  A    between atoms: C_5  and  C_6
REMARK    3  A    between atoms: C_6  and  N_7
REMARK    4  A    between atoms: N_7  and  C_8
REMARK    5  A    between atoms: C_15  and  C_16
REMARK    6  A    between atoms: C_17  and  C_18
REMARK    7  A    between atoms: C_21  and  C_22
REMARK                            x       y       z     vdW  Elec       q    Type
REMARK                         _______ _______ _______ _____ _____    ______ ____
ROOT
ATOM      1  C   UNL     1       2.298   5.504  19.919  0.00  0.00    +0.000 A 
ATOM      2  N   UNL     1       1.290   4.956  20.618  0.00  0.00    +0.000 NA
ATOM      3  C   UNL     1       0.996   3.684  20.347  0.00  0.00    +0.000 A 
ATOM      4  N   UNL     1       1.581   2.903  19.430  0.00  0.00    +0.000 NA
ATOM      5  C   UNL     1       2.580   3.448  18.736  0.00  0.00    +0.000 A 
ATOM      6  C   UNL     1       3.213   2.689  17.762  0.00  0.00    +0.000 A 
ATOM      7  C   UNL     1       4.281   3.194  17.019  0.00  0.00    +0.000 A 
ATOM      8  C   UNL     1       4.743   4.492  17.231  0.00  0.00    +0.000 A 
ATOM      9  C   UNL     1       4.094   5.266  18.203  0.00  0.00    +0.000 A 
ATOM     10  C   UNL     1       3.016   4.763  18.961  0.00  0.00    +0.000 A 
ENDROOT
BRANCH   8  11
ATOM     11  C   UNL     1       5.857   5.031  16.471  0.00  0.00    +0.000 A 
ATOM     12  C   UNL     1       6.260   4.842  15.116  0.00  0.00    +0.000 A 
ATOM     13  C   UNL     1       5.643   4.036  14.034  0.00  0.00    +0.000 C 
ATOM     14  N   UNL     1       7.377   5.531  14.842  0.00  0.00    +0.000 NA
ATOM     15  O   UNL     1       7.731   6.163  16.014  0.00  0.00    +0.000 OA
ATOM     16  C   UNL     1       6.834   5.860  16.989  0.00  0.00    +0.000 A 
ATOM     17  C   UNL     1       7.124   6.432  18.325  0.00  0.00    +0.000 C 
ENDBRANCH   8  11
BRANCH   1  18
ATOM     18  N   UNL     1       2.682   6.828  20.229  0.00  0.00    +0.000 N 
ATOM     19  H   UNL     1       2.406   6.993  21.195  0.00  0.00    +0.000 HD
BRANCH  18  20
ATOM     20  C   UNL     1       2.058   7.840  19.364  0.00  0.00    +0.000 C 
BRANCH  20  25
ATOM     21  C   UNL     1      -0.562  10.125  23.187  0.00  0.00    +0.000 C 
ATOM     22  C   UNL     1       0.008   9.923  21.822  0.00  0.00    +0.000 A 
ATOM     23  C   UNL     1      -0.141  10.796  20.764  0.00  0.00    +0.000 A 
ATOM     24  S   UNL     1       0.653  10.262  19.349  0.00  0.00    +0.000 S 
ATOM     25  C   UNL     1       1.206   8.833  20.116  0.00  0.00    +0.000 A 
ATOM     26  C   UNL     1       0.792   8.786  21.434  0.00  0.00    +0.000 A 
ENDBRANCH  20  25
ENDBRANCH  18  20
ENDBRANCH   1  18
TORSDOF 4
ENDMDL
MODEL 2
REMARK VINA RESULT:      -9.0      0.410      1.628
REMARK  Name = 
REMARK  7 active torsions:
REMARK  status: ('A' for Active; 'I' for Inactive)
REMARK    1  A    between atoms: C_1  and  C_2
REMARK    2  A    between atoms: C_5  and  C_6
REMARK    3  A    between atoms: C_6  and  N_7
REMARK    4  A    between atoms: N_7  and  C_8
REMARK    5  A    between atoms: C_15  and  C_16
REMARK    6  A    between atoms: C_17  and  C_18
REMARK    7  A    between atoms: C_21  and  C_22
REMARK                            x       y       z     vdW  Elec       q    Type
REMARK                         _______ _______ _______ _____ _____    ______ ____
ROOT
ATOM      1  C   UNL     1       2.246   5.466  19.929  0.00  0.00    +0.000 A 
ATOM      2  N   UNL     1       1.227   4.912  20.608  0.00  0.00    +0.000 NA
ATOM      3  C   UNL     1       0.940   3.642  20.324  0.00  0.00    +0.000 A 
ATOM      4  N   UNL     1       1.540   2.868  19.412  0.00  0.00    +0.000 NA
ATOM      5  C   UNL     1       2.550   3.418  18.737  0.00  0.00    +0.000 A 
ATOM      6  C   UNL     1       3.199   2.666  17.769  0.00  0.00    +0.000 A 
ATOM      7  C   UNL     1       4.278   3.177  17.046  0.00  0.00    +0.000 A 
ATOM      8  C   UNL     1       4.735   4.474  17.274  0.00  0.00    +0.000 A 
ATOM      9  C   UNL     1       4.070   5.241  18.240  0.00  0.00    +0.000 A 
ATOM     10  C   UNL     1       2.980   4.731  18.978  0.00  0.00    +0.000 A 
ENDROOT
BRANCH   8  11
ATOM     11  C   UNL     1       5.861   5.019  16.536  0.00  0.00    +0.000 A 
ATOM     12  C   UNL     1       6.948   5.849  16.940  0.00  0.00    +0.000 A 
ATOM     13  C   UNL     1       7.284   6.411  18.271  0.00  0.00    +0.000 C 
ATOM     14  N   UNL     1       7.756   6.127  15.908  0.00  0.00    +0.000 NA
ATOM     15  O   UNL     1       7.202   5.500  14.812  0.00  0.00    +0.000 OA
ATOM     16  C   UNL     1       6.069   4.848  15.181  0.00  0.00    +0.000 A 
ATOM     17  C   UNL     1       5.335   4.172  14.084  0.00  0.00    +0.000 C 
ENDBRANCH   8  11
BRANCH   1  18
ATOM     18  N   UNL     1       2.624   6.788  20.253  0.00  0.00    +0.000 N 
ATOM     19  H   UNL     1       2.350   6.940  21.223  0.00  0.00    +0.000 HD
BRANCH  18  20
ATOM     20  C   UNL     1       1.990   7.807  19.405  0.00  0.00    +0.000 C 
BRANCH  20  25
ATOM     21  C   UNL     1      -0.701  10.022  23.219  0.00  0.00    +0.000 C 
ATOM     22  C   UNL     1      -0.050   9.874  21.884  0.00  0.00    +0.000 A 
ATOM     23  C   UNL     1      -0.044  10.836  20.894  0.00  0.00    +0.000 A 
ATOM     24  S   UNL     1       0.805  10.342  19.496  0.00  0.00    +0.000 S 
ATOM     25  C   UNL     1       1.173   8.813  20.178  0.00  0.00    +0.000 A 
ATOM     26  C   UNL     1       0.659   8.703  21.456  0.00  0.00    +0.000 A 
ENDBRANCH  20  25
ENDBRANCH  18  20
ENDBRANCH   1  18
TORSDOF 4
ENDMDL
MODEL 3
REMARK VINA RESULT:      -8.9      1.191      1.593
REMARK  Name = 
REMARK  7 active torsions:
REMARK  status: ('A' for Active; 'I' for Inactive)
REMARK    1  A    between atoms: C_1  and  C_2
REMARK    2  A    between atoms: C_5  and  C_6
REMARK    3  A    between atoms: C_6  and  N_7
REMARK    4  A    between atoms: N_7  and  C_8
REMARK    5  A    between atoms: C_15  and  C_16
REMARK    6  A    between atoms: C_17  and  C_18
REMARK    7  A    between atoms: C_21  and  C_22
REMARK                            x       y       z     vdW  Elec       q    Type
REMARK                         _______ _______ _______ _____ _____    ______ ____
ROOT
ATOM      1  C   UNL     1       2.309   4.963  20.120  0.00  0.00    +0.000 A 
ATOM      2  N   UNL     1       1.341   4.332  20.805  0.00  0.00    +0.000 NA
ATOM      3  C   UNL     1       1.110   3.060  20.482  0.00  0.00    +0.000 A 
ATOM      4  N   UNL     1       1.721   2.352  19.524  0.00  0.00    +0.000 NA
ATOM      5  C   UNL     1       2.681   2.977  18.843  0.00  0.00    +0.000 A 
ATOM      6  C   UNL     1       3.339   2.296  17.829  0.00  0.00    +0.000 A 
ATOM      7  C   UNL     1       4.369   2.889  17.097  0.00  0.00    +0.000 A 
ATOM      8  C   UNL     1       4.766   4.199  17.361  0.00  0.00    +0.000 A 
ATOM      9  C   UNL     1       4.092   4.894  18.374  0.00  0.00    +0.000 A 
ATOM     10  C   UNL     1       3.051   4.302  19.121  0.00  0.00    +0.000 A 
ENDROOT
BRANCH   8  11
ATOM     11  C   UNL     1       5.840   4.827  16.613  0.00  0.00    +0.000 A 
ATOM     12  C   UNL     1       6.157   4.822  15.222  0.00  0.00    +0.000 A 
ATOM     13  C   UNL     1       5.463   4.175  14.082  0.00  0.00    +0.000 C 
ATOM     14  N   UNL     1       7.265   5.534  14.974  0.00  0.00    +0.000 NA
ATOM     15  O   UNL     1       7.700   5.997  16.197  0.00  0.00    +0.000 OA
ATOM     16  C   UNL     1       6.859   5.572  17.176  0.00  0.00    +0.000 A 
ATOM     17  C   UNL     1       7.240   5.954  18.557  0.00  0.00    +0.000 C 
ENDBRANCH   8  11
BRANCH   1  18
ATOM     18  N   UNL     1       2.628   6.290  20.483  0.00  0.00    +0.000 N 
ATOM     19  H   UNL     1       3.133   6.237  21.365  0.00  0.00    +0.000 HD
BRANCH  18  20
ATOM     20  C   UNL     1       1.452   7.155  20.646  0.00  0.00    +0.000 C 
BRANCH  20  25
ATOM     21  C   UNL     1       0.647  11.946  18.886  0.00  0.00    +0.000 C 
ATOM     22  C   UNL     1       1.134  10.535  18.898  0.00  0.00    +0.000 A 
ATOM     23  C   UNL     1       1.863   9.940  17.888  0.00  0.00    +0.000 A 
ATOM     24  S   UNL     1       2.269   8.317  18.233  0.00  0.00    +0.000 S 
ATOM     25  C   UNL     1       1.462   8.365  19.744  0.00  0.00    +0.000 A 
ATOM     26  C   UNL     1       0.907   9.611  19.970  0.00  0.00    +0.000 A 
ENDBRANCH  20  25
ENDBRANCH  18  20
ENDBRANCH   1  18
TORSDOF 4
ENDMDL
MODEL 4
REMARK VINA RESULT:      -8.9      0.910      1.422
REMARK  Name = 
REMARK  7 active torsions:
REMARK  status: ('A' for Active; 'I' for Inactive)
REMARK    1  A    between atoms: C_1  and  C_2
REMARK    2  A    between atoms: C_5  and  C_6
REMARK    3  A    between atoms: C_6  and  N_7
REMARK    4  A    between atoms: N_7  and  C_8
REMARK    5  A    between atoms: C_15  and  C_16
REMARK    6  A    between atoms: C_17  and  C_18
REMARK    7  A    between atoms: C_21  and  C_22
REMARK                            x       y       z     vdW  Elec       q    Type
REMARK                         _______ _______ _______ _____ _____    ______ ____
ROOT
ATOM      1  C   UNL     1       2.275   5.641  19.784  0.00  0.00    +0.000 A 
ATOM      2  N   UNL     1       1.288   5.118  20.530  0.00  0.00    +0.000 NA
ATOM      3  C   UNL     1       1.039   3.819  20.367  0.00  0.00    +0.000 A 
ATOM      4  N   UNL     1       1.650   2.986  19.515  0.00  0.00    +0.000 NA
ATOM      5  C   UNL     1       2.628   3.505  18.773  0.00  0.00    +0.000 A 
ATOM      6  C   UNL     1       3.286   2.692  17.863  0.00  0.00    +0.000 A 
ATOM      7  C   UNL     1       4.334   3.171  17.076  0.00  0.00    +0.000 A 
ATOM      8  C   UNL     1       4.751   4.497  17.178  0.00  0.00    +0.000 A 
ATOM      9  C   UNL     1       4.077   5.325  18.085  0.00  0.00    +0.000 A 
ATOM     10  C   UNL     1       3.018   4.849  18.887  0.00  0.00    +0.000 A 
ENDROOT
BRANCH   8  11
ATOM     11  C   UNL     1       5.844   5.009  16.372  0.00  0.00    +0.000 A 
ATOM     12  C   UNL     1       6.170   4.834  14.994  0.00  0.00    +0.000 A 
ATOM     13  C   UNL     1       5.468   4.074  13.931  0.00  0.00    +0.000 C 
ATOM     14  N   UNL     1       7.296   5.486  14.675  0.00  0.00    +0.000 NA
ATOM     15  O   UNL     1       7.734   6.080  15.839  0.00  0.00    +0.000 OA
ATOM     16  C   UNL     1       6.877   5.791  16.853  0.00  0.00    +0.000 A 
ATOM     17  C   UNL     1       7.257   6.324  18.183  0.00  0.00    +0.000 C 
ENDBRANCH   8  11
BRANCH   1  18
ATOM     18  N   UNL     1       2.613   6.999  19.982  0.00  0.00    +0.000 N 
ATOM     19  H   UNL     1       2.107   7.307  20.810  0.00  0.00    +0.000 HD
BRANCH  18  20
ATOM     20  C   UNL     1       2.262   7.864  18.847  0.00  0.00    +0.000 C 
BRANCH  20  25
ATOM     21  C   UNL     1      -1.137  11.725  18.355  0.00  0.00    +0.000 C 
ATOM     22  C   UNL     1      -0.293  10.696  19.032  0.00  0.00    +0.000 A 
ATOM     23  C   UNL     1      -0.264  10.465  20.392  0.00  0.00    +0.000 A 
ATOM     24  S   UNL     1       0.804   9.204  20.827  0.00  0.00    +0.000 S 
ATOM     25  C   UNL     1       1.269   8.946  19.198  0.00  0.00    +0.000 A 
ATOM     26  C   UNL     1       0.602   9.808  18.348  0.00  0.00    +0.000 A 
ENDBRANCH  20  25
ENDBRANCH  18  20
ENDBRANCH   1  18
TORSDOF 4
ENDMDL
MODEL 5
REMARK VINA RESULT:      -8.8      0.770      1.046
REMARK  Name = 
REMARK  7 active torsions:
REMARK  status: ('A' for Active; 'I' for Inactive)
REMARK    1  A    between atoms: C_1  and  C_2
REMARK    2  A    between atoms: C_5  and  C_6
REMARK    3  A    between atoms: C_6  and  N_7
REMARK    4  A    between atoms: N_7  and  C_8
REMARK    5  A    between atoms: C_15  and  C_16
REMARK    6  A    between atoms: C_17  and  C_18
REMARK    7  A    between atoms: C_21  and  C_22
REMARK                            x       y       z     vdW  Elec       q    Type
REMARK                         _______ _______ _______ _____ _____    ______ ____
ROOT
ATOM      1  C   UNL     1       2.225   5.772  19.722  0.00  0.00    +0.000 A 
ATOM      2  N   UNL     1       1.306   5.248  20.550  0.00  0.00    +0.000 NA
ATOM      3  C   UNL     1       1.265   3.919  20.634  0.00  0.00    +0.000 A 
ATOM      4  N   UNL     1       2.023   3.048  19.956  0.00  0.00    +0.000 NA
ATOM      5  C   UNL     1       2.934   3.567  19.133  0.00  0.00    +0.000 A 
ATOM      6  C   UNL     1       3.739   2.712  18.395  0.00  0.00    +0.000 A 
ATOM      7  C   UNL     1       4.727   3.194  17.535  0.00  0.00    +0.000 A 
ATOM      8  C   UNL     1       4.931   4.565  17.387  0.00  0.00    +0.000 A 
ATOM      9  C   UNL     1       4.109   5.432  18.119  0.00  0.00    +0.000 A 
ATOM     10  C   UNL     1       3.109   4.953  18.993  0.00  0.00    +0.000 A 
ENDROOT
BRANCH   8  11
ATOM     11  C   UNL     1       5.958   5.083  16.502  0.00  0.00    +0.000 A 
ATOM     12  C   UNL     1       6.209   4.874  15.113  0.00  0.00    +0.000 A 
ATOM     13  C   UNL     1       5.470   4.060  14.116  0.00  0.00    +0.000 C 
ATOM     14  N   UNL     1       7.293   5.549  14.708  0.00  0.00    +0.000 NA
ATOM     15  O   UNL     1       7.780   6.192  15.826  0.00  0.00    +0.000 OA
ATOM     16  C   UNL     1       6.993   5.910  16.897  0.00  0.00    +0.000 A 
ATOM     17  C   UNL     1       7.434   6.495  18.185  0.00  0.00    +0.000 C 
ENDBRANCH   8  11
BRANCH   1  18
ATOM     18  N   UNL     1       2.344   7.179  19.660  0.00  0.00    +0.000 N 
ATOM     19  H   UNL     1       3.337   7.391  19.744  0.00  0.00    +0.000 HD
BRANCH  18  20
ATOM     20  C   UNL     1       1.606   7.879  20.720  0.00  0.00    +0.000 C 
BRANCH  20  25
ATOM     21  C   UNL     1      -1.261  12.178  20.718  0.00  0.00    +0.000 C 
ATOM     22  C   UNL     1      -0.363  11.109  20.192  0.00  0.00    +0.000 A 
ATOM     23  C   UNL     1       0.144  11.060  18.909  0.00  0.00    +0.000 A 
ATOM     24  S   UNL     1       1.151   9.705  18.646  0.00  0.00    +0.000 S 
ATOM     25  C   UNL     1       0.920   9.137  20.246  0.00  0.00    +0.000 A 
ATOM     26  C   UNL     1       0.094   9.986  20.959  0.00  0.00    +0.000 A 
ENDBRANCH  20  25
ENDBRANCH  18  20
ENDBRANCH   1  18
TORSDOF 4
ENDMDL
MODEL 6
REMARK VINA RESULT:      -8.7      1.201      2.251
REMARK  Name = 
REMARK  7 active torsions:
REMARK  status: ('A' for Active; 'I' for Inactive)
REMARK    1  A    between atoms: C_1  and  C_2
REMARK    2  A    between atoms: C_5  and  C_6
REMARK    3  A    between atoms: C_6  and  N_7
REMARK    4  A    between atoms: N_7  and  C_8
REMARK    5  A    between atoms: C_15  and  C_16
REMARK    6  A    between atoms: C_17  and  C_18
REMARK    7  A    between atoms: C_21  and  C_22
REMARK                            x       y       z     vdW  Elec       q    Type
REMARK                         _______ _______ _______ _____ _____    ______ ____
ROOT
ATOM      1  C   UNL     1       2.238   5.125  20.060  0.00  0.00    +0.000 A 
ATOM      2  N   UNL     1       1.237   4.504  20.706  0.00  0.00    +0.000 NA
ATOM      3  C   UNL     1       0.982   3.246  20.346  0.00  0.00    +0.000 A 
ATOM      4  N   UNL     1       1.599   2.545  19.386  0.00  0.00    +0.000 NA
ATOM      5  C   UNL     1       2.591   3.162  18.744  0.00  0.00    +0.000 A 
ATOM      6  C   UNL     1       3.257   2.489  17.730  0.00  0.00    +0.000 A 
ATOM      7  C   UNL     1       4.320   3.072  17.038  0.00  0.00    +0.000 A 
ATOM      8  C   UNL     1       4.743   4.365  17.344  0.00  0.00    +0.000 A 
ATOM      9  C   UNL     1       4.061   5.053  18.357  0.00  0.00    +0.000 A 
ATOM     10  C   UNL     1       2.988   4.470  19.064  0.00  0.00    +0.000 A 
ENDROOT
BRANCH   8  11
ATOM     11  C   UNL     1       5.850   4.984  16.638  0.00  0.00    +0.000 A 
ATOM     12  C   UNL     1       6.917   5.816  17.090  0.00  0.00    +0.000 A 
ATOM     13  C   UNL     1       7.243   6.304  18.453  0.00  0.00    +0.000 C 
ATOM     14  N   UNL     1       7.714   6.178  16.075  0.00  0.00    +0.000 NA
ATOM     15  O   UNL     1       7.171   5.606  14.944  0.00  0.00    +0.000 OA
ATOM     16  C   UNL     1       6.058   4.902  15.274  0.00  0.00    +0.000 A 
ATOM     17  C   UNL     1       5.337   4.275  14.140  0.00  0.00    +0.000 C 
ENDBRANCH   8  11
BRANCH   1  18
ATOM     18  N   UNL     1       2.581   6.435  20.464  0.00  0.00    +0.000 N 
ATOM     19  H   UNL     1       3.082   6.346  21.346  0.00  0.00    +0.000 HD
BRANCH  18  20
ATOM     20  C   UNL     1       1.421   7.317  20.650  0.00  0.00    +0.000 C 
BRANCH  20  25
ATOM     21  C   UNL     1       0.695  12.136  18.933  0.00  0.00    +0.000 C 
ATOM     22  C   UNL     1       1.141  10.712  18.923  0.00  0.00    +0.000 A 
ATOM     23  C   UNL     1       1.813  10.099  17.885  0.00  0.00    +0.000 A 
ATOM     24  S   UNL     1       2.183   8.463  18.211  0.00  0.00    +0.000 S 
ATOM     25  C   UNL     1       1.434   8.530  19.751  0.00  0.00    +0.000 A 
ATOM     26  C   UNL     1       0.925   9.790  20.001  0.00  0.00    +0.000 A 
ENDBRANCH  20  25
ENDBRANCH  18  20
ENDBRANCH   1  18
TORSDOF 4
ENDMDL
MODEL 7
REMARK VINA RESULT:      -8.6      0.840      1.937
REMARK  Name = 
REMARK  7 active torsions:
REMARK  status: ('A' for Active; 'I' for Inactive)
REMARK    1  A    between atoms: C_1  and  C_2
REMARK    2  A    between atoms: C_5  and  C_6
REMARK    3  A    between atoms: C_6  and  N_7
REMARK    4  A    between atoms: N_7  and  C_8
REMARK    5  A    between atoms: C_15  and  C_16
REMARK    6  A    between atoms: C_17  and  C_18
REMARK    7  A    between atoms: C_21  and  C_22
REMARK                            x       y       z     vdW  Elec       q    Type
REMARK                         _______ _______ _______ _____ _____    ______ ____
ROOT
ATOM      1  C   UNL     1       2.222   5.679  19.902  0.00  0.00    +0.000 A 
ATOM      2  N   UNL     1       1.194   5.144  20.583  0.00  0.00    +0.000 NA
ATOM      3  C   UNL     1       0.921   3.862  20.344  0.00  0.00    +0.000 A 
ATOM      4  N   UNL     1       1.544   3.057  19.474  0.00  0.00    +0.000 NA
ATOM      5  C   UNL     1       2.563   3.588  18.798  0.00  0.00    +0.000 A 
ATOM      6  C   UNL     1       3.237   2.804  17.872  0.00  0.00    +0.000 A 
ATOM      7  C   UNL     1       4.326   3.295  17.151  0.00  0.00    +0.000 A 
ATOM      8  C   UNL     1       4.770   4.603  17.337  0.00  0.00    +0.000 A 
ATOM      9  C   UNL     1       4.081   5.402  18.259  0.00  0.00    +0.000 A 
ATOM     10  C   UNL     1       2.980   4.913  18.995  0.00  0.00    +0.000 A 
ENDROOT
BRANCH   8  11
ATOM     11  C   UNL     1       5.905   5.127  16.600  0.00  0.00    +0.000 A 
ATOM     12  C   UNL     1       7.009   5.936  17.005  0.00  0.00    +0.000 A 
ATOM     13  C   UNL     1       7.355   6.488  18.338  0.00  0.00    +0.000 C 
ATOM     14  N   UNL     1       7.822   6.199  15.973  0.00  0.00    +0.000 NA
ATOM     15  O   UNL     1       7.256   5.585  14.877  0.00  0.00    +0.000 OA
ATOM     16  C   UNL     1       6.110   4.954  15.244  0.00  0.00    +0.000 A 
ATOM     17  C   UNL     1       5.364   4.294  14.146  0.00  0.00    +0.000 C 
ENDBRANCH   8  11
BRANCH   1  18
ATOM     18  N   UNL     1       2.584   7.016  20.182  0.00  0.00    +0.000 N 
ATOM     19  H   UNL     1       2.379   7.173  21.166  0.00  0.00    +0.000 HD
BRANCH  18  20
ATOM     20  C   UNL     1       1.860   8.004  19.370  0.00  0.00    +0.000 C 
BRANCH  20  25
ATOM     21  C   UNL     1      -1.287  11.908  20.617  0.00  0.00    +0.000 C 
ATOM     22  C   UNL     1      -0.351  10.762  20.815  0.00  0.00    +0.000 A 
ATOM     23  C   UNL     1       0.051  10.270  22.040  0.00  0.00    +0.000 A 
ATOM     24  S   UNL     1       1.117   8.941  21.902  0.00  0.00    +0.000 S 
ATOM     25  C   UNL     1       1.079   9.002  20.189  0.00  0.00    +0.000 A 
ATOM     26  C   UNL     1       0.253  10.018  19.747  0.00  0.00    +0.000 A 
ENDBRANCH  20  25
ENDBRANCH  18  20
ENDBRANCH   1  18
TORSDOF 4
ENDMDL
MODEL 8
REMARK VINA RESULT:      -8.4      1.316      1.821
REMARK  Name = 
REMARK  7 active torsions:
REMARK  status: ('A' for Active; 'I' for Inactive)
REMARK    1  A    between atoms: C_1  and  C_2
REMARK    2  A    between atoms: C_5  and  C_6
REMARK    3  A    between atoms: C_6  and  N_7
REMARK    4  A    between atoms: N_7  and  C_8
REMARK    5  A    between atoms: C_15  and  C_16
REMARK    6  A    between atoms: C_17  and  C_18
REMARK    7  A    between atoms: C_21  and  C_22
REMARK                            x       y       z     vdW  Elec       q    Type
REMARK                         _______ _______ _______ _____ _____    ______ ____
ROOT
ATOM      1  C   UNL     1       2.247   5.998  19.620  0.00  0.00    +0.000 A 
ATOM      2  N   UNL     1       1.287   5.534  20.439  0.00  0.00    +0.000 NA
ATOM      3  C   UNL     1       1.135   4.211  20.492  0.00  0.00    +0.000 A 
ATOM      4  N   UNL     1       1.818   3.295  19.793  0.00  0.00    +0.000 NA
ATOM      5  C   UNL     1       2.768   3.756  18.980  0.00  0.00    +0.000 A 
ATOM      6  C   UNL     1       3.498   2.853  18.221  0.00  0.00    +0.000 A 
ATOM      7  C   UNL     1       4.523   3.271  17.370  0.00  0.00    +0.000 A 
ATOM      8  C   UNL     1       4.841   4.623  17.252  0.00  0.00    +0.000 A 
ATOM      9  C   UNL     1       4.094   5.538  18.006  0.00  0.00    +0.000 A 
ATOM     10  C   UNL     1       3.059   5.125  18.871  0.00  0.00    +0.000 A 
ENDROOT
BRANCH   8  11
ATOM     11  C   UNL     1       5.908   5.074  16.377  0.00  0.00    +0.000 A 
ATOM     12  C   UNL     1       6.175   4.823  14.998  0.00  0.00    +0.000 A 
ATOM     13  C   UNL     1       5.418   4.021  14.005  0.00  0.00    +0.000 C 
ATOM     14  N   UNL     1       7.297   5.438  14.601  0.00  0.00    +0.000 NA
ATOM     15  O   UNL     1       7.791   6.083  15.714  0.00  0.00    +0.000 OA
ATOM     16  C   UNL     1       6.972   5.861  16.775  0.00  0.00    +0.000 A 
ATOM     17  C   UNL     1       7.415   6.455  18.059  0.00  0.00    +0.000 C 
ENDBRANCH   8  11
BRANCH   1  18
ATOM     18  N   UNL     1       2.483   7.391  19.591  0.00  0.00    +0.000 N 
ATOM     19  H   UNL     1       2.181   7.756  20.492  0.00  0.00    +0.000 HD
BRANCH  18  20
ATOM     20  C   UNL     1       1.761   8.088  18.517  0.00  0.00    +0.000 C 
BRANCH  20  25
ATOM     21  C   UNL     1       2.014  13.239  18.204  0.00  0.00    +0.000 C 
ATOM     22  C   UNL     1       1.585  11.898  18.700  0.00  0.00    +0.000 A 
ATOM     23  C   UNL     1       0.673  11.682  19.713  0.00  0.00    +0.000 A 
ATOM     24  S   UNL     1       0.402  10.023  20.017  0.00  0.00    +0.000 S 
ATOM     25  C   UNL     1       1.517   9.549  18.805  0.00  0.00    +0.000 A 
ATOM     26  C   UNL     1       2.069  10.652  18.180  0.00  0.00    +0.000 A 
ENDBRANCH  20  25
ENDBRANCH  18  20
ENDBRANCH   1  18
TORSDOF 4
ENDMDL
MODEL 9
REMARK VINA RESULT:      -8.3      1.204      1.880
REMARK  Name = 
REMARK  7 active torsions:
REMARK  status: ('A' for Active; 'I' for Inactive)
REMARK    1  A    between atoms: C_1  and  C_2
REMARK    2  A    between atoms: C_5  and  C_6
REMARK    3  A    between atoms: C_6  and  N_7
REMARK    4  A    between atoms: N_7  and  C_8
REMARK    5  A    between atoms: C_15  and  C_16
REMARK    6  A    between atoms: C_17  and  C_18
REMARK    7  A    between atoms: C_21  and  C_22
REMARK                            x       y       z     vdW  Elec       q    Type
REMARK                         _______ _______ _______ _____ _____    ______ ____
ROOT
ATOM      1  C   UNL     1       1.870   4.872  20.323  0.00  0.00    +0.000 A 
ATOM      2  N   UNL     1       0.852   4.059  20.650  0.00  0.00    +0.000 NA
ATOM      3  C   UNL     1       0.824   2.866  20.056  0.00  0.00    +0.000 A 
ATOM      4  N   UNL     1       1.689   2.404  19.144  0.00  0.00    +0.000 NA
ATOM      5  C   UNL     1       2.699   3.211  18.818  0.00  0.00    +0.000 A 
ATOM      6  C   UNL     1       3.617   2.790  17.868  0.00  0.00    +0.000 A 
ATOM      7  C   UNL     1       4.709   3.579  17.503  0.00  0.00    +0.000 A 
ATOM      8  C   UNL     1       4.906   4.831  18.085  0.00  0.00    +0.000 A 
ATOM      9  C   UNL     1       3.971   5.266  19.033  0.00  0.00    +0.000 A 
ATOM     10  C   UNL     1       2.865   4.473  19.410  0.00  0.00    +0.000 A 
ENDROOT
BRANCH   8  11
ATOM     11  C   UNL     1       6.040   5.661  17.721  0.00  0.00    +0.000 A 
ATOM     12  C   UNL     1       7.239   5.989  18.421  0.00  0.00    +0.000 A 
ATOM     13  C   UNL     1       7.719   5.559  19.757  0.00  0.00    +0.000 C 
ATOM     14  N   UNL     1       8.010   6.817  17.702  0.00  0.00    +0.000 NA
ATOM     15  O   UNL     1       7.320   7.058  16.533  0.00  0.00    +0.000 OA
ATOM     16  C   UNL     1       6.143   6.380  16.545  0.00  0.00    +0.000 A 
ATOM     17  C   UNL     1       5.270   6.593  15.366  0.00  0.00    +0.000 C 
ENDBRANCH   8  11
BRANCH   1  18
ATOM     18  N   UNL     1       1.970   6.116  20.986  0.00  0.00    +0.000 N 
ATOM     19  H   UNL     1       1.163   6.182  21.604  0.00  0.00    +0.000 HD
BRANCH  18  20
ATOM     20  C   UNL     1       1.980   7.269  20.075  0.00  0.00    +0.000 C 
BRANCH  20  25
ATOM     21  C   UNL     1      -0.870  10.288  23.150  0.00  0.00    +0.000 C 
ATOM     22  C   UNL     1      -0.141   9.851  21.924  0.00  0.00    +0.000 A 
ATOM     23  C   UNL     1      -0.038  10.584  20.759  0.00  0.00    +0.000 A 
ATOM     24  S   UNL     1       0.880   9.791  19.556  0.00  0.00    +0.000 S 
ATOM     25  C   UNL     1       1.151   8.432  20.564  0.00  0.00    +0.000 A 
ATOM     26  C   UNL     1       0.553   8.602  21.798  0.00  0.00    +0.000 A 
ENDBRANCH  20  25
ENDBRANCH  18  20
ENDBRANCH   1  18
TORSDOF 4
ENDMDL
