MODEL 1
REMARK VINA RESULT:      -7.5      0.000      0.000
REMARK  Name = 
REMARK  6 active torsions:
REMARK  status: ('A' for Active; 'I' for Inactive)
REMARK    1  A    between atoms: C_1  and  C_2
REMARK    2  A    between atoms: C_4  and  N_5
REMARK    3  A    between atoms: C_10  and  N_11
REMARK    4  A    between atoms: C_12  and  C_14
REMARK    5  A    between atoms: C_14  and  C_15
REMARK    6  A    between atoms: C_14  and  N_16
REMARK                            x       y       z     vdW  Elec       q    Type
REMARK                         _______ _______ _______ _____ _____    ______ ____
ROOT
ATOM      1  N   UNL     1       4.632   5.087  17.991  0.00  0.00    +0.000 N 
ATOM      2  C   UNL     1       3.713   6.070  18.299  0.00  0.00    +0.000 C 
ATOM      3  O   UNL     1       3.455   7.054  17.606  0.00  0.00    +0.000 OA
ATOM      4  H   UNL     1       4.626   4.229  18.546  0.00  0.00    +0.000 HD
ENDROOT
BRANCH   1  11
ATOM      5  C   UNL     1       7.354   6.215  17.971  0.00  0.00    +0.000 C 
ATOM      6  C   UNL     1       6.707   5.574  16.774  0.00  0.00    +0.000 A 
ATOM      7  C   UNL     1       7.436   5.540  15.567  0.00  0.00    +0.000 A 
ATOM      8  C   UNL     1       6.880   4.964  14.411  0.00  0.00    +0.000 A 
ATOM      9  C   UNL     1       5.623   4.379  14.458  0.00  0.00    +0.000 A 
ATOM     10  C   UNL     1       4.904   4.404  15.651  0.00  0.00    +0.000 A 
ATOM     11  C   UNL     1       5.405   5.015  16.803  0.00  0.00    +0.000 A 
BRANCH   8  12
ATOM     12  N   UNL     1       7.614   4.986  13.143  0.00  0.00    +0.000 N 
ATOM     13  O   UNL     1       7.215   4.239  12.234  0.00  0.00    +0.000 OA
ATOM     14  O   UNL     1       8.593   5.733  13.054  0.00  0.00    +0.000 OA
ENDBRANCH   8  12
ENDBRANCH   1  11
BRANCH   2  15
ATOM     15  C   UNL     1       3.121   6.016  19.702  0.00  0.00    +0.000 C 
ATOM     16  C   UNL     1       2.165   7.212  19.855  0.00  0.00    +0.000 C 
BRANCH  15  17
ATOM     17  N   UNL     1       2.344   4.765  19.970  0.00  0.00    +0.000 N 
ATOM     18  C   UNL     1       1.677   4.179  18.947  0.00  0.00    +0.000 A 
ATOM     19  C   UNL     1       0.993   2.982  19.131  0.00  0.00    +0.000 A 
ATOM     20  C   UNL     1       0.984   2.384  20.381  0.00  0.00    +0.000 A 
ATOM     21  C   UNL     1       1.641   3.007  21.432  0.00  0.00    +0.000 A 
ATOM     22  C   UNL     1       2.308   4.206  21.206  0.00  0.00    +0.000 A 
ENDBRANCH  15  17
ENDBRANCH   2  15
TORSDOF 4
ENDMDL
MODEL 2
REMARK VINA RESULT:      -7.5      0.120      1.239
REMARK  Name = 
REMARK  6 active torsions:
REMARK  status: ('A' for Active; 'I' for Inactive)
REMARK    1  A    between atoms: C_1  and  C_2
REMARK    2  A    between atoms: C_4  and  N_5
REMARK    3  A    between atoms: C_10  and  N_11
REMARK    4  A    between atoms: C_12  and  C_14
REMARK    5  A    between atoms: C_14  and  C_15
REMARK    6  A    between atoms: C_14  and  N_16
REMARK                            x       y       z     vdW  Elec       q    Type
REMARK                         _______ _______ _______ _____ _____    ______ ____
ROOT
ATOM      1  N   UNL     1       4.627   5.118  17.982  0.00  0.00    +0.000 N 
ATOM      2  C   UNL     1       3.705   6.101  18.282  0.00  0.00    +0.000 C 
ATOM      3  O   UNL     1       3.441   7.075  17.580  0.00  0.00    +0.000 OA
ATOM      4  H   UNL     1       4.626   4.266  18.547  0.00  0.00    +0.000 HD
ENDROOT
BRANCH   1  11
ATOM      5  C   UNL     1       7.381   6.165  17.968  0.00  0.00    +0.000 C 
ATOM      6  C   UNL     1       6.713   5.555  16.765  0.00  0.00    +0.000 A 
ATOM      7  C   UNL     1       7.439   5.512  15.557  0.00  0.00    +0.000 A 
ATOM      8  C   UNL     1       6.863   4.964  14.396  0.00  0.00    +0.000 A 
ATOM      9  C   UNL     1       5.589   4.416  14.440  0.00  0.00    +0.000 A 
ATOM     10  C   UNL     1       4.874   4.451  15.635  0.00  0.00    +0.000 A 
ATOM     11  C   UNL     1       5.396   5.035  16.792  0.00  0.00    +0.000 A 
BRANCH   8  12
ATOM     12  N   UNL     1       7.595   4.978  13.127  0.00  0.00    +0.000 N 
ATOM     13  O   UNL     1       8.569   5.744  13.032  0.00  0.00    +0.000 OA
ATOM     14  O   UNL     1       7.196   4.241  12.221  0.00  0.00    +0.000 OA
ENDBRANCH   8  12
ENDBRANCH   1  11
BRANCH   2  15
ATOM     15  C   UNL     1       3.119   6.061  19.689  0.00  0.00    +0.000 C 
ATOM     16  C   UNL     1       2.109   7.214  19.810  0.00  0.00    +0.000 C 
BRANCH  15  17
ATOM     17  N   UNL     1       2.403   4.783  19.997  0.00  0.00    +0.000 N 
ATOM     18  C   UNL     1       2.507   4.260  21.242  0.00  0.00    +0.000 A 
ATOM     19  C   UNL     1       1.811   3.109  21.594  0.00  0.00    +0.000 A 
ATOM     20  C   UNL     1       1.006   2.480  20.657  0.00  0.00    +0.000 A 
ATOM     21  C   UNL     1       0.931   3.003  19.374  0.00  0.00    +0.000 A 
ATOM     22  C   UNL     1       1.648   4.153  19.061  0.00  0.00    +0.000 A 
ENDBRANCH  15  17
ENDBRANCH   2  15
TORSDOF 4
ENDMDL
MODEL 3
REMARK VINA RESULT:      -7.1      3.429      7.440
REMARK  Name = 
REMARK  6 active torsions:
REMARK  status: ('A' for Active; 'I' for Inactive)
REMARK    1  A    between atoms: C_1  and  C_2
REMARK    2  A    between atoms: C_4  and  N_5
REMARK    3  A    between atoms: C_10  and  N_11
REMARK    4  A    between atoms: C_12  and  C_14
REMARK    5  A    between atoms: C_14  and  C_15
REMARK    6  A    between atoms: C_14  and  N_16
REMARK                            x       y       z     vdW  Elec       q    Type
REMARK                         _______ _______ _______ _____ _____    ______ ____
ROOT
ATOM      1  N   UNL     1       3.072   6.334  19.753  0.00  0.00    +0.000 N 
ATOM      2  C   UNL     1       2.806   5.101  19.192  0.00  0.00    +0.000 C 
ATOM      3  O   UNL     1       1.705   4.713  18.801  0.00  0.00    +0.000 OA
ATOM      4  H   UNL     1       4.049   6.612  19.865  0.00  0.00    +0.000 HD
ENDROOT
BRANCH   1  11
ATOM      5  C   UNL     1       2.713   8.328  17.614  0.00  0.00    +0.000 C 
ATOM      6  C   UNL     1       1.970   8.363  18.922  0.00  0.00    +0.000 A 
ATOM      7  C   UNL     1       1.073   9.428  19.145  0.00  0.00    +0.000 A 
ATOM      8  C   UNL     1       0.358   9.521  20.352  0.00  0.00    +0.000 A 
ATOM      9  C   UNL     1       0.492   8.536  21.319  0.00  0.00    +0.000 A 
ATOM     10  C   UNL     1       1.371   7.478  21.098  0.00  0.00    +0.000 A 
ATOM     11  C   UNL     1       2.136   7.385  19.933  0.00  0.00    +0.000 A 
BRANCH   8  12
ATOM     12  N   UNL     1      -0.524  10.662  20.607  0.00  0.00    +0.000 N 
ATOM     13  O   UNL     1      -1.087  11.185  19.630  0.00  0.00    +0.000 OA
ATOM     14  O   UNL     1      -0.648  11.049  21.772  0.00  0.00    +0.000 OA
ENDBRANCH   8  12
ENDBRANCH   1  11
BRANCH   2  15
ATOM     15  C   UNL     1       3.938   4.082  19.248  0.00  0.00    +0.000 C 
ATOM     16  C   UNL     1       3.315   2.680  19.130  0.00  0.00    +0.000 C 
BRANCH  15  17
ATOM     17  N   UNL     1       4.935   4.242  18.143  0.00  0.00    +0.000 N 
ATOM     18  C   UNL     1       6.186   4.662  18.448  0.00  0.00    +0.000 A 
ATOM     19  C   UNL     1       7.165   4.765  17.466  0.00  0.00    +0.000 A 
ATOM     20  C   UNL     1       6.855   4.445  16.153  0.00  0.00    +0.000 A 
ATOM     21  C   UNL     1       5.562   4.048  15.843  0.00  0.00    +0.000 A 
ATOM     22  C   UNL     1       4.612   3.963  16.855  0.00  0.00    +0.000 A 
ENDBRANCH  15  17
ENDBRANCH   2  15
TORSDOF 4
ENDMDL
MODEL 4
REMARK VINA RESULT:      -7.0      3.431      7.341
REMARK  Name = 
REMARK  6 active torsions:
REMARK  status: ('A' for Active; 'I' for Inactive)
REMARK    1  A    between atoms: C_1  and  C_2
REMARK    2  A    between atoms: C_4  and  N_5
REMARK    3  A    between atoms: C_10  and  N_11
REMARK    4  A    between atoms: C_12  and  C_14
REMARK    5  A    between atoms: C_14  and  C_15
REMARK    6  A    between atoms: C_14  and  N_16
REMARK                            x       y       z     vdW  Elec       q    Type
REMARK                         _______ _______ _______ _____ _____    ______ ____
ROOT
ATOM      1  N   UNL     1       3.115   6.283  19.738  0.00  0.00    +0.000 N 
ATOM      2  C   UNL     1       2.838   5.039  19.205  0.00  0.00    +0.000 C 
ATOM      3  O   UNL     1       1.734   4.650  18.828  0.00  0.00    +0.000 OA
ATOM      4  H   UNL     1       4.094   6.557  19.840  0.00  0.00    +0.000 HD
ENDROOT
BRANCH   1  11
ATOM      5  C   UNL     1       2.778   8.249  17.570  0.00  0.00    +0.000 C 
ATOM      6  C   UNL     1       2.030   8.307  18.875  0.00  0.00    +0.000 A 
ATOM      7  C   UNL     1       1.141   9.383  19.080  0.00  0.00    +0.000 A 
ATOM      8  C   UNL     1       0.422   9.497  20.283  0.00  0.00    +0.000 A 
ATOM      9  C   UNL     1       0.546   8.525  21.265  0.00  0.00    +0.000 A 
ATOM     10  C   UNL     1       1.417   7.458  21.061  0.00  0.00    +0.000 A 
ATOM     11  C   UNL     1       2.186   7.342  19.900  0.00  0.00    +0.000 A 
BRANCH   8  12
ATOM     12  N   UNL     1      -0.452  10.648  20.519  0.00  0.00    +0.000 N 
ATOM     13  O   UNL     1      -0.715  10.941  21.698  0.00  0.00    +0.000 OA
ATOM     14  O   UNL     1      -0.891  11.254  19.536  0.00  0.00    +0.000 OA
ENDBRANCH   8  12
ENDBRANCH   1  11
BRANCH   2  15
ATOM     15  C   UNL     1       3.965   4.015  19.278  0.00  0.00    +0.000 C 
ATOM     16  C   UNL     1       3.336   2.616  19.155  0.00  0.00    +0.000 C 
BRANCH  15  17
ATOM     17  N   UNL     1       4.976   4.167  18.184  0.00  0.00    +0.000 N 
ATOM     18  C   UNL     1       4.616   3.855  16.916  0.00  0.00    +0.000 A 
ATOM     19  C   UNL     1       5.499   4.039  15.857  0.00  0.00    +0.000 A 
ATOM     20  C   UNL     1       6.769   4.538  16.102  0.00  0.00    +0.000 A 
ATOM     21  C   UNL     1       7.141   4.822  17.408  0.00  0.00    +0.000 A 
ATOM     22  C   UNL     1       6.230   4.619  18.438  0.00  0.00    +0.000 A 
ENDBRANCH  15  17
ENDBRANCH   2  15
TORSDOF 4
ENDMDL
MODEL 5
REMARK VINA RESULT:      -6.9      3.667      7.724
REMARK  Name = 
REMARK  6 active torsions:
REMARK  status: ('A' for Active; 'I' for Inactive)
REMARK    1  A    between atoms: C_1  and  C_2
REMARK    2  A    between atoms: C_4  and  N_5
REMARK    3  A    between atoms: C_10  and  N_11
REMARK    4  A    between atoms: C_12  and  C_14
REMARK    5  A    between atoms: C_14  and  C_15
REMARK    6  A    between atoms: C_14  and  N_16
REMARK                            x       y       z     vdW  Elec       q    Type
REMARK                         _______ _______ _______ _____ _____    ______ ____
ROOT
ATOM      1  N   UNL     1       2.957   6.867  19.804  0.00  0.00    +0.000 N 
ATOM      2  C   UNL     1       2.796   5.648  19.175  0.00  0.00    +0.000 C 
ATOM      3  O   UNL     1       1.735   5.199  18.742  0.00  0.00    +0.000 OA
ATOM      4  H   UNL     1       3.908   7.211  19.952  0.00  0.00    +0.000 HD
ENDROOT
BRANCH   1  11
ATOM      5  C   UNL     1       2.324   8.792  17.667  0.00  0.00    +0.000 C 
ATOM      6  C   UNL     1       1.641   8.778  19.007  0.00  0.00    +0.000 A 
ATOM      7  C   UNL     1       0.664   9.763  19.262  0.00  0.00    +0.000 A 
ATOM      8  C   UNL     1      -0.001   9.807  20.500  0.00  0.00    +0.000 A 
ATOM      9  C   UNL     1       0.265   8.851  21.469  0.00  0.00    +0.000 A 
ATOM     10  C   UNL     1       1.223   7.873  21.217  0.00  0.00    +0.000 A 
ATOM     11  C   UNL     1       1.940   7.832  20.018  0.00  0.00    +0.000 A 
BRANCH   8  12
ATOM     12  N   UNL     1      -0.969  10.869  20.785  0.00  0.00    +0.000 N 
ATOM     13  O   UNL     1      -1.541  11.402  19.819  0.00  0.00    +0.000 OA
ATOM     14  O   UNL     1      -1.152  11.185  21.965  0.00  0.00    +0.000 OA
ENDBRANCH   8  12
ENDBRANCH   1  11
BRANCH   2  15
ATOM     15  C   UNL     1       4.002   4.716  19.203  0.00  0.00    +0.000 C 
ATOM     16  C   UNL     1       3.664   3.485  18.345  0.00  0.00    +0.000 C 
BRANCH  15  17
ATOM     17  N   UNL     1       5.245   5.340  18.651  0.00  0.00    +0.000 N 
ATOM     18  C   UNL     1       5.189   5.945  17.440  0.00  0.00    +0.000 A 
ATOM     19  C   UNL     1       6.301   6.593  16.913  0.00  0.00    +0.000 A 
ATOM     20  C   UNL     1       7.488   6.611  17.629  0.00  0.00    +0.000 A 
ATOM     21  C   UNL     1       7.547   5.959  18.852  0.00  0.00    +0.000 A 
ATOM     22  C   UNL     1       6.413   5.319  19.341  0.00  0.00    +0.000 A 
ENDBRANCH  15  17
ENDBRANCH   2  15
TORSDOF 4
ENDMDL
MODEL 6
REMARK VINA RESULT:      -6.8      3.727      7.854
REMARK  Name = 
REMARK  6 active torsions:
REMARK  status: ('A' for Active; 'I' for Inactive)
REMARK    1  A    between atoms: C_1  and  C_2
REMARK    2  A    between atoms: C_4  and  N_5
REMARK    3  A    between atoms: C_10  and  N_11
REMARK    4  A    between atoms: C_12  and  C_14
REMARK    5  A    between atoms: C_14  and  C_15
REMARK    6  A    between atoms: C_14  and  N_16
REMARK                            x       y       z     vdW  Elec       q    Type
REMARK                         _______ _______ _______ _____ _____    ______ ____
ROOT
ATOM      1  N   UNL     1       2.886   7.011  19.857  0.00  0.00    +0.000 N 
ATOM      2  C   UNL     1       2.741   5.784  19.239  0.00  0.00    +0.000 C 
ATOM      3  O   UNL     1       1.688   5.321  18.803  0.00  0.00    +0.000 OA
ATOM      4  H   UNL     1       3.832   7.367  20.008  0.00  0.00    +0.000 HD
ENDROOT
BRANCH   1  11
ATOM      5  C   UNL     1       2.240   8.902  17.692  0.00  0.00    +0.000 C 
ATOM      6  C   UNL     1       1.552   8.897  19.030  0.00  0.00    +0.000 A 
ATOM      7  C   UNL     1       0.564   9.875  19.268  0.00  0.00    +0.000 A 
ATOM      8  C   UNL     1      -0.106   9.929  20.503  0.00  0.00    +0.000 A 
ATOM      9  C   UNL     1       0.166   8.988  21.486  0.00  0.00    +0.000 A 
ATOM     10  C   UNL     1       1.136   8.017  21.250  0.00  0.00    +0.000 A 
ATOM     11  C   UNL     1       1.857   7.968  20.054  0.00  0.00    +0.000 A 
BRANCH   8  12
ATOM     12  N   UNL     1      -1.086  10.984  20.771  0.00  0.00    +0.000 N 
ATOM     13  O   UNL     1      -1.695  11.465  19.800  0.00  0.00    +0.000 OA
ATOM     14  O   UNL     1      -1.243  11.345  21.941  0.00  0.00    +0.000 OA
ENDBRANCH   8  12
ENDBRANCH   1  11
BRANCH   2  15
ATOM     15  C   UNL     1       3.956   4.866  19.285  0.00  0.00    +0.000 C 
ATOM     16  C   UNL     1       3.633   3.619  18.443  0.00  0.00    +0.000 C 
BRANCH  15  17
ATOM     17  N   UNL     1       5.195   5.493  18.726  0.00  0.00    +0.000 N 
ATOM     18  C   UNL     1       6.362   5.344  19.398  0.00  0.00    +0.000 A 
ATOM     19  C   UNL     1       7.551   5.854  18.889  0.00  0.00    +0.000 A 
ATOM     20  C   UNL     1       7.543   6.536  17.681  0.00  0.00    +0.000 A 
ATOM     21  C   UNL     1       6.338   6.714  17.017  0.00  0.00    +0.000 A 
ATOM     22  C   UNL     1       5.171   6.192  17.563  0.00  0.00    +0.000 A 
ENDBRANCH  15  17
ENDBRANCH   2  15
TORSDOF 4
ENDMDL
MODEL 7
REMARK VINA RESULT:      -6.8      3.331      7.046
REMARK  Name = 
REMARK  6 active torsions:
REMARK  status: ('A' for Active; 'I' for Inactive)
REMARK    1  A    between atoms: C_1  and  C_2
REMARK    2  A    between atoms: C_4  and  N_5
REMARK    3  A    between atoms: C_10  and  N_11
REMARK    4  A    between atoms: C_12  and  C_14
REMARK    5  A    between atoms: C_14  and  C_15
REMARK    6  A    between atoms: C_14  and  N_16
REMARK                            x       y       z     vdW  Elec       q    Type
REMARK                         _______ _______ _______ _____ _____    ______ ____
ROOT
ATOM      1  N   UNL     1       3.204   6.382  18.568  0.00  0.00    +0.000 N 
ATOM      2  C   UNL     1       2.698   5.204  18.053  0.00  0.00    +0.000 C 
ATOM      3  O   UNL     1       1.531   5.011  17.717  0.00  0.00    +0.000 OA
ATOM      4  H   UNL     1       4.219   6.483  18.634  0.00  0.00    +0.000 HD
ENDROOT
BRANCH   1  11
ATOM      5  C   UNL     1       1.697   6.781  21.068  0.00  0.00    +0.000 C 
ATOM      6  C   UNL     1       1.730   7.780  19.944  0.00  0.00    +0.000 A 
ATOM      7  C   UNL     1       0.971   8.960  20.086  0.00  0.00    +0.000 A 
ATOM      8  C   UNL     1       0.952   9.926  19.065  0.00  0.00    +0.000 A 
ATOM      9  C   UNL     1       1.721   9.750  17.923  0.00  0.00    +0.000 A 
ATOM     10  C   UNL     1       2.477   8.589  17.784  0.00  0.00    +0.000 A 
ATOM     11  C   UNL     1       2.477   7.585  18.756  0.00  0.00    +0.000 A 
BRANCH   8  12
ATOM     12  N   UNL     1       0.113  11.121  19.188  0.00  0.00    +0.000 N 
ATOM     13  O   UNL     1      -0.849  11.071  19.972  0.00  0.00    +0.000 OA
ATOM     14  O   UNL     1       0.399  12.103  18.496  0.00  0.00    +0.000 OA
ENDBRANCH   8  12
ENDBRANCH   1  11
BRANCH   2  15
ATOM     15  C   UNL     1       3.634   4.002  18.092  0.00  0.00    +0.000 C 
ATOM     16  C   UNL     1       2.881   2.802  17.492  0.00  0.00    +0.000 C 
BRANCH  15  17
ATOM     17  N   UNL     1       4.891   4.202  17.303  0.00  0.00    +0.000 N 
ATOM     18  C   UNL     1       4.820   4.197  15.951  0.00  0.00    +0.000 A 
ATOM     19  C   UNL     1       5.948   4.441  15.175  0.00  0.00    +0.000 A 
ATOM     20  C   UNL     1       7.165   4.683  15.792  0.00  0.00    +0.000 A 
ATOM     21  C   UNL     1       7.236   4.653  17.177  0.00  0.00    +0.000 A 
ATOM     22  C   UNL     1       6.085   4.400  17.916  0.00  0.00    +0.000 A 
ENDBRANCH  15  17
ENDBRANCH   2  15
TORSDOF 4
ENDMDL
MODEL 8
REMARK VINA RESULT:      -6.8      3.345      7.114
REMARK  Name = 
REMARK  6 active torsions:
REMARK  status: ('A' for Active; 'I' for Inactive)
REMARK    1  A    between atoms: C_1  and  C_2
REMARK    2  A    between atoms: C_4  and  N_5
REMARK    3  A    between atoms: C_10  and  N_11
REMARK    4  A    between atoms: C_12  and  C_14
REMARK    5  A    between atoms: C_14  and  C_15
REMARK    6  A    between atoms: C_14  and  N_16
REMARK                            x       y       z     vdW  Elec       q    Type
REMARK                         _______ _______ _______ _____ _____    ______ ____
ROOT
ATOM      1  N   UNL     1       3.195   6.417  18.559  0.00  0.00    +0.000 N 
ATOM      2  C   UNL     1       2.702   5.224  18.070  0.00  0.00    +0.000 C 
ATOM      3  O   UNL     1       1.534   5.009  17.748  0.00  0.00    +0.000 OA
ATOM      4  H   UNL     1       4.209   6.534  18.614  0.00  0.00    +0.000 HD
ENDROOT
BRANCH   1  11
ATOM      5  C   UNL     1       1.717   6.847  21.070  0.00  0.00    +0.000 C 
ATOM      6  C   UNL     1       1.720   7.823  19.926  0.00  0.00    +0.000 A 
ATOM      7  C   UNL     1       0.946   8.996  20.054  0.00  0.00    +0.000 A 
ATOM      8  C   UNL     1       0.900   9.940  19.013  0.00  0.00    +0.000 A 
ATOM      9  C   UNL     1       1.655   9.750  17.865  0.00  0.00    +0.000 A 
ATOM     10  C   UNL     1       2.427   8.598  17.740  0.00  0.00    +0.000 A 
ATOM     11  C   UNL     1       2.453   7.614  18.732  0.00  0.00    +0.000 A 
BRANCH   8  12
ATOM     12  N   UNL     1       0.045  11.124  19.122  0.00  0.00    +0.000 N 
ATOM     13  O   UNL     1      -1.097  10.970  19.586  0.00  0.00    +0.000 OA
ATOM     14  O   UNL     1       0.501  12.205  18.735  0.00  0.00    +0.000 OA
ENDBRANCH   8  12
ENDBRANCH   1  11
BRANCH   2  15
ATOM     15  C   UNL     1       3.654   4.035  18.122  0.00  0.00    +0.000 C 
ATOM     16  C   UNL     1       2.921   2.820  17.530  0.00  0.00    +0.000 C 
BRANCH  15  17
ATOM     17  N   UNL     1       4.911   4.247  17.337  0.00  0.00    +0.000 N 
ATOM     18  C   UNL     1       6.060   4.512  18.003  0.00  0.00    +0.000 A 
ATOM     19  C   UNL     1       7.264   4.654  17.323  0.00  0.00    +0.000 A 
ATOM     20  C   UNL     1       7.290   4.534  15.942  0.00  0.00    +0.000 A 
ATOM     21  C   UNL     1       6.103   4.296  15.264  0.00  0.00    +0.000 A 
ATOM     22  C   UNL     1       4.920   4.165  15.982  0.00  0.00    +0.000 A 
ENDBRANCH  15  17
ENDBRANCH   2  15
TORSDOF 4
ENDMDL
MODEL 9
REMARK VINA RESULT:      -6.8      0.994      1.202
REMARK  Name = 
REMARK  6 active torsions:
REMARK  status: ('A' for Active; 'I' for Inactive)
REMARK    1  A    between atoms: C_1  and  C_2
REMARK    2  A    between atoms: C_4  and  N_5
REMARK    3  A    between atoms: C_10  and  N_11
REMARK    4  A    between atoms: C_12  and  C_14
REMARK    5  A    between atoms: C_14  and  C_15
REMARK    6  A    between atoms: C_14  and  N_16
REMARK                            x       y       z     vdW  Elec       q    Type
REMARK                         _______ _______ _______ _____ _____    ______ ____
ROOT
ATOM      1  N   UNL     1       4.503   5.783  17.730  0.00  0.00    +0.000 N 
ATOM      2  C   UNL     1       4.606   5.162  18.959  0.00  0.00    +0.000 C 
ATOM      3  O   UNL     1       5.411   4.280  19.252  0.00  0.00    +0.000 OA
ATOM      4  H   UNL     1       3.928   6.625  17.661  0.00  0.00    +0.000 HD
ENDROOT
BRANCH   1  11
ATOM      5  C   UNL     1       7.187   6.995  17.646  0.00  0.00    +0.000 C 
ATOM      6  C   UNL     1       6.622   6.140  16.544  0.00  0.00    +0.000 A 
ATOM      7  C   UNL     1       7.412   5.935  15.394  0.00  0.00    +0.000 A 
ATOM      8  C   UNL     1       6.933   5.156  14.326  0.00  0.00    +0.000 A 
ATOM      9  C   UNL     1       5.693   4.540  14.413  0.00  0.00    +0.000 A 
ATOM     10  C   UNL     1       4.914   4.735  15.551  0.00  0.00    +0.000 A 
ATOM     11  C   UNL     1       5.338   5.546  16.607  0.00  0.00    +0.000 A 
BRANCH   8  12
ATOM     12  N   UNL     1       7.729   4.996  13.107  0.00  0.00    +0.000 N 
ATOM     13  O   UNL     1       8.767   5.672  13.005  0.00  0.00    +0.000 OA
ATOM     14  O   UNL     1       7.319   4.213  12.246  0.00  0.00    +0.000 OA
ENDBRANCH   8  12
ENDBRANCH   1  11
BRANCH   2  15
ATOM     15  C   UNL     1       3.498   5.472  19.959  0.00  0.00    +0.000 C 
ATOM     16  C   UNL     1       2.746   6.716  19.456  0.00  0.00    +0.000 C 
BRANCH  15  17
ATOM     17  N   UNL     1       2.506   4.360  20.108  0.00  0.00    +0.000 N 
ATOM     18  C   UNL     1       1.863   3.908  19.006  0.00  0.00    +0.000 A 
ATOM     19  C   UNL     1       0.980   2.836  19.083  0.00  0.00    +0.000 A 
ATOM     20  C   UNL     1       0.746   2.228  20.307  0.00  0.00    +0.000 A 
ATOM     21  C   UNL     1       1.383   2.719  21.437  0.00  0.00    +0.000 A 
ATOM     22  C   UNL     1       2.254   3.796  21.316  0.00  0.00    +0.000 A 
ENDBRANCH  15  17
ENDBRANCH   2  15
TORSDOF 4
ENDMDL
