MODEL 1
REMARK VINA RESULT:      -8.5      0.000      0.000
REMARK  Name = 
REMARK  1 active torsions:
REMARK  status: ('A' for Active; 'I' for Inactive)
REMARK    1  A    between atoms: C_6  and  N_7
REMARK                            x       y       z     vdW  Elec       q    Type
REMARK                         _______ _______ _______ _____ _____    ______ ____
ROOT
ATOM      1  N   UNL     1       2.861   6.278  18.813  0.00  0.00    +0.000 N 
ATOM      2  C   UNL     1       2.342   7.571  18.772  0.00  0.00    +0.000 A 
ATOM      3  N   UNL     1       2.654   8.308  17.703  0.00  0.00    +0.000 NA
ATOM      4  C   UNL     1       2.179   9.566  17.687  0.00  0.00    +0.000 A 
ATOM      5  C   UNL     1       1.431  10.139  18.700  0.00  0.00    +0.000 A 
ATOM      6  C   UNL     1       1.165   9.314  19.768  0.00  0.00    +0.000 A 
ATOM      7  N   UNL     1       1.611   8.035  19.795  0.00  0.00    +0.000 NA
ATOM      8  C   UNL     1       0.404   9.740  20.951  0.00  0.00    +0.000 A 
ATOM      9  C   UNL     1       0.147   8.850  22.015  0.00  0.00    +0.000 A 
ATOM     10  C   UNL     1      -0.554   9.256  23.145  0.00  0.00    +0.000 A 
ATOM     11  C   UNL     1      -0.998  10.559  23.191  0.00  0.00    +0.000 A 
ATOM     12  N   UNL     1      -0.781  11.447  22.203  0.00  0.00    +0.000 NA
ATOM     13  C   UNL     1      -0.086  11.037  21.106  0.00  0.00    +0.000 A 
ATOM     14  S   UNL     1       0.157  12.350  19.939  0.00  0.00    +0.000 S 
ATOM     15  C   UNL     1       0.960  11.541  18.550  0.00  0.00    +0.000 C 
ATOM     16  H   UNL     1       3.337   6.091  17.942  0.00  0.00    +0.000 HD
ENDROOT
BRANCH   1  22
ATOM     17  F   UNL     1       0.273   2.218  18.658  0.00  0.00    +0.000 F 
ATOM     18  C   UNL     1       0.998   3.105  19.355  0.00  0.00    +0.000 A 
ATOM     19  C   UNL     1       1.202   2.898  20.713  0.00  0.00    +0.000 A 
ATOM     20  C   UNL     1       1.973   3.809  21.431  0.00  0.00    +0.000 A 
ATOM     21  C   UNL     1       2.527   4.917  20.782  0.00  0.00    +0.000 A 
ATOM     22  C   UNL     1       2.295   5.145  19.419  0.00  0.00    +0.000 A 
ATOM     23  C   UNL     1       1.531   4.214  18.707  0.00  0.00    +0.000 A 
ENDBRANCH   1  22
TORSDOF 1
ENDMDL
MODEL 2
REMARK VINA RESULT:      -8.3      0.946      1.393
REMARK  Name = 
REMARK  1 active torsions:
REMARK  status: ('A' for Active; 'I' for Inactive)
REMARK    1  A    between atoms: C_6  and  N_7
REMARK                            x       y       z     vdW  Elec       q    Type
REMARK                         _______ _______ _______ _____ _____    ______ ____
ROOT
ATOM      1  N   UNL     1       2.877   6.460  18.573  0.00  0.00    +0.000 N 
ATOM      2  C   UNL     1       2.338   7.746  18.604  0.00  0.00    +0.000 A 
ATOM      3  N   UNL     1       2.620   8.538  17.568  0.00  0.00    +0.000 NA
ATOM      4  C   UNL     1       2.126   9.788  17.621  0.00  0.00    +0.000 A 
ATOM      5  C   UNL     1       1.387  10.298  18.674  0.00  0.00    +0.000 A 
ATOM      6  C   UNL     1       1.151   9.418  19.704  0.00  0.00    +0.000 A 
ATOM      7  N   UNL     1       1.617   8.147  19.661  0.00  0.00    +0.000 NA
ATOM      8  C   UNL     1       0.405   9.774  20.918  0.00  0.00    +0.000 A 
ATOM      9  C   UNL     1       0.180   8.829  21.942  0.00  0.00    +0.000 A 
ATOM     10  C   UNL     1      -0.508   9.168  23.102  0.00  0.00    +0.000 A 
ATOM     11  C   UNL     1      -0.970  10.459  23.219  0.00  0.00    +0.000 A 
ATOM     12  N   UNL     1      -0.785  11.398  22.272  0.00  0.00    +0.000 NA
ATOM     13  C   UNL     1      -0.102  11.053  21.146  0.00  0.00    +0.000 A 
ATOM     14  S   UNL     1       0.101  12.426  20.041  0.00  0.00    +0.000 S 
ATOM     15  C   UNL     1       0.892  11.698  18.600  0.00  0.00    +0.000 C 
ATOM     16  H   UNL     1       3.341   6.324  17.686  0.00  0.00    +0.000 HD
ENDROOT
BRANCH   1  22
ATOM     17  F   UNL     1       2.049   3.515  22.293  0.00  0.00    +0.000 F 
ATOM     18  C   UNL     1       1.916   3.802  20.991  0.00  0.00    +0.000 A 
ATOM     19  C   UNL     1       1.223   2.924  20.168  0.00  0.00    +0.000 A 
ATOM     20  C   UNL     1       1.068   3.235  18.819  0.00  0.00    +0.000 A 
ATOM     21  C   UNL     1       1.611   4.418  18.310  0.00  0.00    +0.000 A 
ATOM     22  C   UNL     1       2.339   5.290  19.131  0.00  0.00    +0.000 A 
ATOM     23  C   UNL     1       2.474   4.972  20.487  0.00  0.00    +0.000 A 
ENDBRANCH   1  22
TORSDOF 1
ENDMDL
MODEL 3
REMARK VINA RESULT:      -7.7      3.451      6.424
REMARK  Name = 
REMARK  1 active torsions:
REMARK  status: ('A' for Active; 'I' for Inactive)
REMARK    1  A    between atoms: C_6  and  N_7
REMARK                            x       y       z     vdW  Elec       q    Type
REMARK                         _______ _______ _______ _____ _____    ______ ____
ROOT
ATOM      1  N   UNL     1       0.894   9.474  19.154  0.00  0.00    +0.000 N 
ATOM      2  C   UNL     1       1.849   8.537  18.763  0.00  0.00    +0.000 A 
ATOM      3  N   UNL     1       2.607   8.858  17.712  0.00  0.00    +0.000 NA
ATOM      4  C   UNL     1       3.502   7.935  17.318  0.00  0.00    +0.000 A 
ATOM      5  C   UNL     1       3.661   6.691  17.903  0.00  0.00    +0.000 A 
ATOM      6  C   UNL     1       2.834   6.439  18.973  0.00  0.00    +0.000 A 
ATOM      7  N   UNL     1       1.942   7.363  19.403  0.00  0.00    +0.000 NA
ATOM      8  C   UNL     1       2.835   5.171  19.715  0.00  0.00    +0.000 A 
ATOM      9  C   UNL     1       1.974   4.967  20.815  0.00  0.00    +0.000 A 
ATOM     10  C   UNL     1       1.957   3.761  21.507  0.00  0.00    +0.000 A 
ATOM     11  C   UNL     1       2.816   2.769  21.088  0.00  0.00    +0.000 A 
ATOM     12  N   UNL     1       3.658   2.913  20.047  0.00  0.00    +0.000 NA
ATOM     13  C   UNL     1       3.656   4.097  19.375  0.00  0.00    +0.000 A 
ATOM     14  S   UNL     1       4.779   4.086  18.000  0.00  0.00    +0.000 S 
ATOM     15  C   UNL     1       4.698   5.768  17.373  0.00  0.00    +0.000 C 
ATOM     16  H   UNL     1       1.007  10.306  18.594  0.00  0.00    +0.000 HD
ENDROOT
BRANCH   1  22
ATOM     17  F   UNL     1      -0.521  12.412  22.700  0.00  0.00    +0.000 F 
ATOM     18  C   UNL     1      -0.312  11.171  22.236  0.00  0.00    +0.000 A 
ATOM     19  C   UNL     1      -0.595  10.084  23.052  0.00  0.00    +0.000 A 
ATOM     20  C   UNL     1      -0.398   8.795  22.562  0.00  0.00    +0.000 A 
ATOM     21  C   UNL     1       0.084   8.611  21.261  0.00  0.00    +0.000 A 
ATOM     22  C   UNL     1       0.401   9.708  20.448  0.00  0.00    +0.000 A 
ATOM     23  C   UNL     1       0.183  10.996  20.949  0.00  0.00    +0.000 A 
ENDBRANCH   1  22
TORSDOF 1
ENDMDL
MODEL 4
REMARK VINA RESULT:      -7.4      1.150      1.292
REMARK  Name = 
REMARK  1 active torsions:
REMARK  status: ('A' for Active; 'I' for Inactive)
REMARK    1  A    between atoms: C_6  and  N_7
REMARK                            x       y       z     vdW  Elec       q    Type
REMARK                         _______ _______ _______ _____ _____    ______ ____
ROOT
ATOM      1  N   UNL     1       3.175   6.379  18.870  0.00  0.00    +0.000 N 
ATOM      2  C   UNL     1       2.497   7.595  18.793  0.00  0.00    +0.000 A 
ATOM      3  N   UNL     1       2.655   8.297  17.669  0.00  0.00    +0.000 NA
ATOM      4  C   UNL     1       2.027   9.485  17.615  0.00  0.00    +0.000 A 
ATOM      5  C   UNL     1       1.270  10.023  18.640  0.00  0.00    +0.000 A 
ATOM      6  C   UNL     1       1.167   9.238  19.765  0.00  0.00    +0.000 A 
ATOM      7  N   UNL     1       1.770   8.027  19.833  0.00  0.00    +0.000 NA
ATOM      8  C   UNL     1       0.425   9.639  20.968  0.00  0.00    +0.000 A 
ATOM      9  C   UNL     1       0.340   8.791  22.092  0.00  0.00    +0.000 A 
ATOM     10  C   UNL     1      -0.344   9.176  23.240  0.00  0.00    +0.000 A 
ATOM     11  C   UNL     1      -0.943  10.415  23.243  0.00  0.00    +0.000 A 
ATOM     12  N   UNL     1      -0.894  11.262  22.198  0.00  0.00    +0.000 NA
ATOM     13  C   UNL     1      -0.214  10.874  21.084  0.00  0.00    +0.000 A 
ATOM     14  S   UNL     1      -0.200  12.134  19.836  0.00  0.00    +0.000 S 
ATOM     15  C   UNL     1       0.620  11.345  18.445  0.00  0.00    +0.000 C 
ATOM     16  H   UNL     1       3.622   6.199  17.983  0.00  0.00    +0.000 HD
ENDROOT
BRANCH   1  22
ATOM     17  F   UNL     1       4.112   2.076  20.823  0.00  0.00    +0.000 F 
ATOM     18  C   UNL     1       3.246   3.062  20.554  0.00  0.00    +0.000 A 
ATOM     19  C   UNL     1       1.930   2.947  20.982  0.00  0.00    +0.000 A 
ATOM     20  C   UNL     1       1.036   3.983  20.720  0.00  0.00    +0.000 A 
ATOM     21  C   UNL     1       1.469   5.119  20.031  0.00  0.00    +0.000 A 
ATOM     22  C   UNL     1       2.789   5.224  19.569  0.00  0.00    +0.000 A 
ATOM     23  C   UNL     1       3.679   4.182  19.852  0.00  0.00    +0.000 A 
ENDBRANCH   1  22
TORSDOF 1
ENDMDL
MODEL 5
REMARK VINA RESULT:      -7.4      3.239      6.383
REMARK  Name = 
REMARK  1 active torsions:
REMARK  status: ('A' for Active; 'I' for Inactive)
REMARK    1  A    between atoms: C_6  and  N_7
REMARK                            x       y       z     vdW  Elec       q    Type
REMARK                         _______ _______ _______ _____ _____    ______ ____
ROOT
ATOM      1  N   UNL     1       1.357   9.191  18.483  0.00  0.00    +0.000 N 
ATOM      2  C   UNL     1       2.274   8.155  18.312  0.00  0.00    +0.000 A 
ATOM      3  N   UNL     1       3.162   8.299  17.326  0.00  0.00    +0.000 NA
ATOM      4  C   UNL     1       4.021   7.281  17.143  0.00  0.00    +0.000 A 
ATOM      5  C   UNL     1       4.021   6.108  17.878  0.00  0.00    +0.000 A 
ATOM      6  C   UNL     1       3.067   6.039  18.868  0.00  0.00    +0.000 A 
ATOM      7  N   UNL     1       2.208   7.063  19.087  0.00  0.00    +0.000 NA
ATOM      8  C   UNL     1       2.892   4.872  19.743  0.00  0.00    +0.000 A 
ATOM      9  C   UNL     1       1.906   4.857  20.752  0.00  0.00    +0.000 A 
ATOM     10  C   UNL     1       1.723   3.746  21.569  0.00  0.00    +0.000 A 
ATOM     11  C   UNL     1       2.542   2.658  21.365  0.00  0.00    +0.000 A 
ATOM     12  N   UNL     1       3.499   2.622  20.418  0.00  0.00    +0.000 NA
ATOM     13  C   UNL     1       3.660   3.714  19.621  0.00  0.00    +0.000 A 
ATOM     14  S   UNL     1       4.918   3.467  18.395  0.00  0.00    +0.000 S 
ATOM     15  C   UNL     1       5.034   5.064  17.578  0.00  0.00    +0.000 C 
ATOM     16  H   UNL     1       1.593   9.942  17.851  0.00  0.00    +0.000 HD
ENDROOT
BRANCH   1  22
ATOM     17  F   UNL     1       0.858   9.067  23.273  0.00  0.00    +0.000 F 
ATOM     18  C   UNL     1       0.487   9.557  22.082  0.00  0.00    +0.000 A 
ATOM     19  C   UNL     1      -0.522  10.509  22.021  0.00  0.00    +0.000 A 
ATOM     20  C   UNL     1      -0.891  11.032  20.784  0.00  0.00    +0.000 A 
ATOM     21  C   UNL     1      -0.248  10.594  19.623  0.00  0.00    +0.000 A 
ATOM     22  C   UNL     1       0.748   9.610  19.678  0.00  0.00    +0.000 A 
ATOM     23  C   UNL     1       1.119   9.104  20.929  0.00  0.00    +0.000 A 
ENDBRANCH   1  22
TORSDOF 1
ENDMDL
MODEL 6
REMARK VINA RESULT:      -7.2      5.517      7.641
REMARK  Name = 
REMARK  1 active torsions:
REMARK  status: ('A' for Active; 'I' for Inactive)
REMARK    1  A    between atoms: C_6  and  N_7
REMARK                            x       y       z     vdW  Elec       q    Type
REMARK                         _______ _______ _______ _____ _____    ______ ____
ROOT
ATOM      1  N   UNL     1       6.556   5.213  14.492  0.00  0.00    +0.000 N 
ATOM      2  C   UNL     1       5.754   5.618  15.558  0.00  0.00    +0.000 A 
ATOM      3  N   UNL     1       5.945   6.857  16.015  0.00  0.00    +0.000 NA
ATOM      4  C   UNL     1       5.194   7.229  17.065  0.00  0.00    +0.000 A 
ATOM      5  C   UNL     1       4.277   6.413  17.705  0.00  0.00    +0.000 A 
ATOM      6  C   UNL     1       4.149   5.150  17.177  0.00  0.00    +0.000 A 
ATOM      7  N   UNL     1       4.878   4.761  16.104  0.00  0.00    +0.000 NA
ATOM      8  C   UNL     1       3.245   4.130  17.726  0.00  0.00    +0.000 A 
ATOM      9  C   UNL     1       3.142   2.852  17.138  0.00  0.00    +0.000 A 
ATOM     10  C   UNL     1       2.303   1.877  17.668  0.00  0.00    +0.000 A 
ATOM     11  C   UNL     1       1.567   2.202  18.785  0.00  0.00    +0.000 A 
ATOM     12  N   UNL     1       1.627   3.407  19.383  0.00  0.00    +0.000 NA
ATOM     13  C   UNL     1       2.459   4.348  18.857  0.00  0.00    +0.000 A 
ATOM     14  S   UNL     1       2.456   5.847  19.806  0.00  0.00    +0.000 S 
ATOM     15  C   UNL     1       3.502   6.955  18.853  0.00  0.00    +0.000 C 
ATOM     16  H   UNL     1       7.110   6.000  14.186  0.00  0.00    +0.000 HD
ENDROOT
BRANCH   1  22
ATOM     17  F   UNL     1       7.787   2.070  11.055  0.00  0.00    +0.000 F 
ATOM     18  C   UNL     1       6.840   2.719  11.747  0.00  0.00    +0.000 A 
ATOM     19  C   UNL     1       5.502   2.480  11.458  0.00  0.00    +0.000 A 
ATOM     20  C   UNL     1       4.519   3.139  12.192  0.00  0.00    +0.000 A 
ATOM     21  C   UNL     1       4.887   4.031  13.204  0.00  0.00    +0.000 A 
ATOM     22  C   UNL     1       6.235   4.299  13.475  0.00  0.00    +0.000 A 
ATOM     23  C   UNL     1       7.212   3.619  12.740  0.00  0.00    +0.000 A 
ENDBRANCH   1  22
TORSDOF 1
ENDMDL
MODEL 7
REMARK VINA RESULT:      -7.1      3.944      7.558
REMARK  Name = 
REMARK  1 active torsions:
REMARK  status: ('A' for Active; 'I' for Inactive)
REMARK    1  A    between atoms: C_6  and  N_7
REMARK                            x       y       z     vdW  Elec       q    Type
REMARK                         _______ _______ _______ _____ _____    ______ ____
ROOT
ATOM      1  N   UNL     1       1.529   7.486  20.901  0.00  0.00    +0.000 N 
ATOM      2  C   UNL     1       1.846   6.248  20.343  0.00  0.00    +0.000 A 
ATOM      3  N   UNL     1       1.354   5.171  20.959  0.00  0.00    +0.000 NA
ATOM      4  C   UNL     1       1.692   3.979  20.437  0.00  0.00    +0.000 A 
ATOM      5  C   UNL     1       2.524   3.805  19.345  0.00  0.00    +0.000 A 
ATOM      6  C   UNL     1       2.994   4.967  18.777  0.00  0.00    +0.000 A 
ATOM      7  N   UNL     1       2.647   6.179  19.270  0.00  0.00    +0.000 NA
ATOM      8  C   UNL     1       3.904   4.994  17.624  0.00  0.00    +0.000 A 
ATOM      9  C   UNL     1       4.348   6.213  17.071  0.00  0.00    +0.000 A 
ATOM     10  C   UNL     1       5.226   6.243  15.993  0.00  0.00    +0.000 A 
ATOM     11  C   UNL     1       5.645   5.038  15.474  0.00  0.00    +0.000 A 
ATOM     12  N   UNL     1       5.251   3.847  15.963  0.00  0.00    +0.000 NA
ATOM     13  C   UNL     1       4.398   3.835  17.024  0.00  0.00    +0.000 A 
ATOM     14  S   UNL     1       4.036   2.187  17.572  0.00  0.00    +0.000 S 
ATOM     15  C   UNL     1       2.810   2.428  18.863  0.00  0.00    +0.000 C 
ATOM     16  H   UNL     1       0.882   7.343  21.663  0.00  0.00    +0.000 HD
ENDROOT
BRANCH   1  22
ATOM     17  F   UNL     1       0.409  12.171  20.821  0.00  0.00    +0.000 F 
ATOM     18  C   UNL     1       0.820  11.066  20.182  0.00  0.00    +0.000 A 
ATOM     19  C   UNL     1       1.113  11.134  18.826  0.00  0.00    +0.000 A 
ATOM     20  C   UNL     1       1.560   9.990  18.168  0.00  0.00    +0.000 A 
ATOM     21  C   UNL     1       1.705   8.793  18.875  0.00  0.00    +0.000 A 
ATOM     22  C   UNL     1       1.379   8.714  20.236  0.00  0.00    +0.000 A 
ATOM     23  C   UNL     1       0.945   9.874  20.887  0.00  0.00    +0.000 A 
ENDBRANCH   1  22
TORSDOF 1
ENDMDL
MODEL 8
REMARK VINA RESULT:      -7.1      3.733      7.364
REMARK  Name = 
REMARK  1 active torsions:
REMARK  status: ('A' for Active; 'I' for Inactive)
REMARK    1  A    between atoms: C_6  and  N_7
REMARK                            x       y       z     vdW  Elec       q    Type
REMARK                         _______ _______ _______ _____ _____    ______ ____
ROOT
ATOM      1  N   UNL     1       1.505   7.189  21.129  0.00  0.00    +0.000 N 
ATOM      2  C   UNL     1       1.831   6.004  20.470  0.00  0.00    +0.000 A 
ATOM      3  N   UNL     1       1.363   4.875  21.005  0.00  0.00    +0.000 NA
ATOM      4  C   UNL     1       1.710   3.733  20.385  0.00  0.00    +0.000 A 
ATOM      5  C   UNL     1       2.528   3.659  19.271  0.00  0.00    +0.000 A 
ATOM      6  C   UNL     1       2.973   4.868  18.792  0.00  0.00    +0.000 A 
ATOM      7  N   UNL     1       2.617   6.033  19.384  0.00  0.00    +0.000 NA
ATOM      8  C   UNL     1       3.866   5.000  17.632  0.00  0.00    +0.000 A 
ATOM      9  C   UNL     1       4.285   6.266  17.172  0.00  0.00    +0.000 A 
ATOM     10  C   UNL     1       5.147   6.394  16.088  0.00  0.00    +0.000 A 
ATOM     11  C   UNL     1       5.576   5.241  15.470  0.00  0.00    +0.000 A 
ATOM     12  N   UNL     1       5.205   4.009  15.868  0.00  0.00    +0.000 NA
ATOM     13  C   UNL     1       4.368   3.900  16.936  0.00  0.00    +0.000 A 
ATOM     14  S   UNL     1       4.037   2.209  17.356  0.00  0.00    +0.000 S 
ATOM     15  C   UNL     1       2.825   2.329  18.678  0.00  0.00    +0.000 C 
ATOM     16  H   UNL     1       0.871   6.977  21.885  0.00  0.00    +0.000 HD
ENDROOT
BRANCH   1  22
ATOM     17  F   UNL     1       1.746  10.280  17.442  0.00  0.00    +0.000 F 
ATOM     18  C   UNL     1       1.445  10.026  18.723  0.00  0.00    +0.000 A 
ATOM     19  C   UNL     1       0.938  11.046  19.518  0.00  0.00    +0.000 A 
ATOM     20  C   UNL     1       0.606  10.774  20.843  0.00  0.00    +0.000 A 
ATOM     21  C   UNL     1       0.787   9.486  21.357  0.00  0.00    +0.000 A 
ATOM     22  C   UNL     1       1.328   8.464  20.565  0.00  0.00    +0.000 A 
ATOM     23  C   UNL     1       1.644   8.747  19.232  0.00  0.00    +0.000 A 
ENDBRANCH   1  22
TORSDOF 1
ENDMDL
MODEL 9
REMARK VINA RESULT:      -7.0      5.327      7.504
REMARK  Name = 
REMARK  1 active torsions:
REMARK  status: ('A' for Active; 'I' for Inactive)
REMARK    1  A    between atoms: C_6  and  N_7
REMARK                            x       y       z     vdW  Elec       q    Type
REMARK                         _______ _______ _______ _____ _____    ______ ____
ROOT
ATOM      1  N   UNL     1       6.504   5.179  14.439  0.00  0.00    +0.000 N 
ATOM      2  C   UNL     1       5.707   5.584  15.509  0.00  0.00    +0.000 A 
ATOM      3  N   UNL     1       5.897   6.826  15.960  0.00  0.00    +0.000 NA
ATOM      4  C   UNL     1       5.150   7.198  17.014  0.00  0.00    +0.000 A 
ATOM      5  C   UNL     1       4.240   6.381  17.663  0.00  0.00    +0.000 A 
ATOM      6  C   UNL     1       4.114   5.116  17.139  0.00  0.00    +0.000 A 
ATOM      7  N   UNL     1       4.838   4.726  16.062  0.00  0.00    +0.000 NA
ATOM      8  C   UNL     1       3.217   4.094  17.697  0.00  0.00    +0.000 A 
ATOM      9  C   UNL     1       3.115   2.814  17.114  0.00  0.00    +0.000 A 
ATOM     10  C   UNL     1       2.283   1.837  17.651  0.00  0.00    +0.000 A 
ATOM     11  C   UNL     1       1.552   2.164  18.772  0.00  0.00    +0.000 A 
ATOM     12  N   UNL     1       1.611   3.371  19.366  0.00  0.00    +0.000 NA
ATOM     13  C   UNL     1       2.437   4.313  18.832  0.00  0.00    +0.000 A 
ATOM     14  S   UNL     1       2.434   5.815  19.776  0.00  0.00    +0.000 S 
ATOM     15  C   UNL     1       3.470   6.923  18.813  0.00  0.00    +0.000 C 
ATOM     16  H   UNL     1       7.054   5.967  14.127  0.00  0.00    +0.000 HD
ENDROOT
BRANCH   1  22
ATOM     17  F   UNL     1       3.340   2.948  11.573  0.00  0.00    +0.000 F 
ATOM     18  C   UNL     1       4.602   3.133  11.983  0.00  0.00    +0.000 A 
ATOM     19  C   UNL     1       5.624   2.403  11.388  0.00  0.00    +0.000 A 
ATOM     20  C   UNL     1       6.938   2.612  11.800  0.00  0.00    +0.000 A 
ATOM     21  C   UNL     1       7.213   3.547  12.804  0.00  0.00    +0.000 A 
ATOM     22  C   UNL     1       6.181   4.261  13.427  0.00  0.00    +0.000 A 
ATOM     23  C   UNL     1       4.867   4.051  12.993  0.00  0.00    +0.000 A 
ENDBRANCH   1  22
TORSDOF 1
ENDMDL
