MODEL 1
REMARK VINA RESULT:      -7.8      0.000      0.000
REMARK  Name = 
REMARK  10 active torsions:
REMARK  status: ('A' for Active; 'I' for Inactive)
REMARK    1  A    between atoms: C_1  and  C_2
REMARK    2  A    between atoms: C_2  and  C_3
REMARK    3  A    between atoms: C_3  and  N_4
REMARK    4  A    between atoms: C_5  and  C_7
REMARK    5  A    between atoms: C_7  and  C_8
REMARK    6  A    between atoms: C_8  and  N_9
REMARK    7  A    between atoms: C_8  and  C_20
REMARK    8  A    between atoms: C_10  and  C_12
REMARK    9  A    between atoms: C_13  and  C_14
REMARK   10  A    between atoms: C_20  and  O_22
REMARK                            x       y       z     vdW  Elec       q    Type
REMARK                         _______ _______ _______ _____ _____    ______ ____
ROOT
ATOM      1  C   UNK A   1       6.416   5.453  17.967  0.00  0.00    +0.000 C 
ENDROOT
BRANCH   1   2
ATOM      2  N   UNK A   1       7.321   6.452  18.550  0.00  0.00    +0.000 N 
ATOM      3  C   UNK A   0       7.637   7.602  17.881  0.00  0.00    +0.000 C 
ATOM      4  O   UNK A   0       7.234   7.809  16.742  0.00  0.00    +0.000 OA
ATOM      5  H   UNK A   1       7.703   6.275  19.473  0.00  0.00    +0.000 HD
BRANCH   3   6
ATOM      6  C   UNK A   0       8.609   8.474  18.576  0.00  0.00    +0.000 C 
ATOM      7  C   UNK A   0       8.637   9.784  18.282  0.00  0.00    +0.000 C 
BRANCH   7   8
ATOM      8  C   UNK A   0       9.649  10.713  18.802  0.00  0.00    +0.000 A 
ATOM      9  C   UNK A   0      10.520  11.402  17.949  0.00  0.00    +0.000 A 
ATOM     10  C   UNK A   0      11.437  12.326  18.456  0.00  0.00    +0.000 A 
ATOM     11  C   UNK A   0      11.482  12.578  19.824  0.00  0.00    +0.000 A 
ATOM     12  C   UNK A   0      10.605  11.919  20.684  0.00  0.00    +0.000 A 
ATOM     13  C   UNK A   0       9.686  10.993  20.174  0.00  0.00    +0.000 A 
ENDBRANCH   7   8
ENDBRANCH   3   6
ENDBRANCH   1   2
BRANCH   1  14
ATOM     14  C   UNK A   1       7.211   4.450  17.110  0.00  0.00    +0.000 C 
ATOM     15  O   UNK A   1       6.915   4.136  15.965  0.00  0.00    +0.000 OA
BRANCH  14  16
ATOM     16  O   UNK A   1       8.343   3.994  17.698  0.00  0.00    +0.000 OA
ATOM     17  H   UNK A   1       8.518   3.039  17.515  0.00  0.00    +0.000 HD
ENDBRANCH  14  16
ENDBRANCH   1  14
BRANCH   1  18
ATOM     18  C   UNK A   1       5.610   4.698  19.021  0.00  0.00    +0.000 C 
BRANCH  18  20
ATOM     19  N   UNK A   1       3.366   3.844  19.378  0.00  0.00    +0.000 N 
ATOM     20  C   UNK A   1       4.139   4.758  18.702  0.00  0.00    +0.000 C 
ATOM     21  O   UNK A   1       3.700   5.540  17.862  0.00  0.00    +0.000 OA
ATOM     22  H   UNK A   1       3.795   3.198  20.028  0.00  0.00    +0.000 HD
BRANCH  19  23
ATOM     23  C   UNK A   1       1.942   3.714  19.137  0.00  0.00    +0.000 C 
BRANCH  23  25
ATOM     24  C   UNK A   1       2.032   3.309  21.641  0.00  0.00    +0.000 C 
ATOM     25  C   UNK A   1       1.143   3.557  20.429  0.00  0.00    +0.000 C 
ENDBRANCH  23  25
ENDBRANCH  19  23
ENDBRANCH  18  20
ENDBRANCH   1  18
TORSDOF 9
ENDMDL
MODEL 2
REMARK VINA RESULT:      -7.6      0.742      1.107
REMARK  Name = 
REMARK  10 active torsions:
REMARK  status: ('A' for Active; 'I' for Inactive)
REMARK    1  A    between atoms: C_1  and  C_2
REMARK    2  A    between atoms: C_2  and  C_3
REMARK    3  A    between atoms: C_3  and  N_4
REMARK    4  A    between atoms: C_5  and  C_7
REMARK    5  A    between atoms: C_7  and  C_8
REMARK    6  A    between atoms: C_8  and  N_9
REMARK    7  A    between atoms: C_8  and  C_20
REMARK    8  A    between atoms: C_10  and  C_12
REMARK    9  A    between atoms: C_13  and  C_14
REMARK   10  A    between atoms: C_20  and  O_22
REMARK                            x       y       z     vdW  Elec       q    Type
REMARK                         _______ _______ _______ _____ _____    ______ ____
ROOT
ATOM      1  C   UNK A   1       6.501   5.549  18.103  0.00  0.00    +0.000 C 
ENDROOT
BRANCH   1   2
ATOM      2  N   UNK A   1       7.428   6.558  18.631  0.00  0.00    +0.000 N 
ATOM      3  C   UNK A   0       7.714   7.698  17.932  0.00  0.00    +0.000 C 
ATOM      4  O   UNK A   0       7.262   7.887  16.808  0.00  0.00    +0.000 OA
ATOM      5  H   UNK A   1       7.850   6.395  19.540  0.00  0.00    +0.000 HD
BRANCH   3   6
ATOM      6  C   UNK A   0       8.713   8.580  18.572  0.00  0.00    +0.000 C 
ATOM      7  C   UNK A   0       8.709   9.891  18.278  0.00  0.00    +0.000 C 
BRANCH   7   8
ATOM      8  C   UNK A   0       9.737  10.832  18.740  0.00  0.00    +0.000 A 
ATOM      9  C   UNK A   0      10.581  11.495  17.842  0.00  0.00    +0.000 A 
ATOM     10  C   UNK A   0      11.515  12.432  18.294  0.00  0.00    +0.000 A 
ATOM     11  C   UNK A   0      11.603  12.721  19.653  0.00  0.00    +0.000 A 
ATOM     12  C   UNK A   0      10.752  12.088  20.557  0.00  0.00    +0.000 A 
ATOM     13  C   UNK A   0       9.817  11.149  20.102  0.00  0.00    +0.000 A 
ENDBRANCH   7   8
ENDBRANCH   3   6
ENDBRANCH   1   2
BRANCH   1  14
ATOM     14  C   UNK A   1       7.280   4.442  17.368  0.00  0.00    +0.000 C 
ATOM     15  O   UNK A   1       8.407   4.075  17.672  0.00  0.00    +0.000 OA
BRANCH  14  16
ATOM     16  O   UNK A   1       6.575   3.824  16.390  0.00  0.00    +0.000 OA
ATOM     17  H   UNK A   1       6.456   2.855  16.551  0.00  0.00    +0.000 HD
ENDBRANCH  14  16
ENDBRANCH   1  14
BRANCH   1  18
ATOM     18  C   UNK A   1       5.626   4.924  19.187  0.00  0.00    +0.000 C 
BRANCH  18  20
ATOM     19  N   UNK A   1       3.284   4.494  19.661  0.00  0.00    +0.000 N 
ATOM     20  C   UNK A   1       4.177   5.265  18.955  0.00  0.00    +0.000 C 
ATOM     21  O   UNK A   1       3.847   6.136  18.154  0.00  0.00    +0.000 OA
ATOM     22  H   UNK A   1       3.620   3.763  20.276  0.00  0.00    +0.000 HD
BRANCH  19  23
ATOM     23  C   UNK A   1       1.850   4.638  19.502  0.00  0.00    +0.000 C 
BRANCH  23  25
ATOM     24  C   UNK A   1       1.396   2.260  18.739  0.00  0.00    +0.000 C 
ATOM     25  C   UNK A   1       1.293   3.740  18.399  0.00  0.00    +0.000 C 
ENDBRANCH  23  25
ENDBRANCH  19  23
ENDBRANCH  18  20
ENDBRANCH   1  18
TORSDOF 9
ENDMDL
MODEL 3
REMARK VINA RESULT:      -7.5      2.782      4.387
REMARK  Name = 
REMARK  10 active torsions:
REMARK  status: ('A' for Active; 'I' for Inactive)
REMARK    1  A    between atoms: C_1  and  C_2
REMARK    2  A    between atoms: C_2  and  C_3
REMARK    3  A    between atoms: C_3  and  N_4
REMARK    4  A    between atoms: C_5  and  C_7
REMARK    5  A    between atoms: C_7  and  C_8
REMARK    6  A    between atoms: C_8  and  N_9
REMARK    7  A    between atoms: C_8  and  C_20
REMARK    8  A    between atoms: C_10  and  C_12
REMARK    9  A    between atoms: C_13  and  C_14
REMARK   10  A    between atoms: C_20  and  O_22
REMARK                            x       y       z     vdW  Elec       q    Type
REMARK                         _______ _______ _______ _____ _____    ______ ____
ROOT
ATOM      1  C   UNK A   1       6.336   5.431  17.057  0.00  0.00    +0.000 C 
ENDROOT
BRANCH   1   2
ATOM      2  N   UNK A   1       6.912   6.782  17.065  0.00  0.00    +0.000 N 
ATOM      3  C   UNK A   0       7.774   7.184  18.049  0.00  0.00    +0.000 C 
ATOM      4  O   UNK A   0       8.042   6.455  18.998  0.00  0.00    +0.000 OA
ATOM      5  H   UNK A   1       6.663   7.416  16.313  0.00  0.00    +0.000 HD
BRANCH   3   6
ATOM      6  C   UNK A   0       8.215   8.591  17.948  0.00  0.00    +0.000 C 
ATOM      7  C   UNK A   0       8.943   9.120  18.945  0.00  0.00    +0.000 C 
BRANCH   7   8
ATOM      8  C   UNK A   0       9.312  10.540  19.018  0.00  0.00    +0.000 A 
ATOM      9  C   UNK A   0       9.436  11.326  17.867  0.00  0.00    +0.000 A 
ATOM     10  C   UNK A   0       9.731  12.689  17.959  0.00  0.00    +0.000 A 
ATOM     11  C   UNK A   0       9.894  13.279  19.210  0.00  0.00    +0.000 A 
ATOM     12  C   UNK A   0       9.749  12.515  20.366  0.00  0.00    +0.000 A 
ATOM     13  C   UNK A   0       9.453  11.149  20.272  0.00  0.00    +0.000 A 
ENDBRANCH   7   8
ENDBRANCH   3   6
ENDBRANCH   1   2
BRANCH   1  14
ATOM     14  C   UNK A   1       4.927   5.457  16.436  0.00  0.00    +0.000 C 
ATOM     15  O   UNK A   1       4.165   4.501  16.419  0.00  0.00    +0.000 OA
BRANCH  14  16
ATOM     16  O   UNK A   1       4.547   6.673  15.975  0.00  0.00    +0.000 OA
ATOM     17  H   UNK A   1       4.623   7.386  16.655  0.00  0.00    +0.000 HD
ENDBRANCH  14  16
ENDBRANCH   1  14
BRANCH   1  18
ATOM     18  C   UNK A   1       7.206   4.422  16.311  0.00  0.00    +0.000 C 
BRANCH  18  20
ATOM     19  N   UNK A   1       6.417   3.785  14.105  0.00  0.00    +0.000 N 
ATOM     20  C   UNK A   1       7.163   4.686  14.828  0.00  0.00    +0.000 C 
ATOM     21  O   UNK A   1       7.796   5.612  14.327  0.00  0.00    +0.000 OA
ATOM     22  H   UNK A   1       5.953   3.019  14.574  0.00  0.00    +0.000 HD
BRANCH  19  23
ATOM     23  C   UNK A   1       6.329   3.847  12.659  0.00  0.00    +0.000 C 
BRANCH  23  25
ATOM     24  C   UNK A   1       4.257   3.226  11.331  0.00  0.00    +0.000 C 
ATOM     25  C   UNK A   1       5.481   2.717  12.078  0.00  0.00    +0.000 C 
ENDBRANCH  23  25
ENDBRANCH  19  23
ENDBRANCH  18  20
ENDBRANCH   1  18
TORSDOF 9
ENDMDL
MODEL 4
REMARK VINA RESULT:      -7.5      1.712      2.174
REMARK  Name = 
REMARK  10 active torsions:
REMARK  status: ('A' for Active; 'I' for Inactive)
REMARK    1  A    between atoms: C_1  and  C_2
REMARK    2  A    between atoms: C_2  and  C_3
REMARK    3  A    between atoms: C_3  and  N_4
REMARK    4  A    between atoms: C_5  and  C_7
REMARK    5  A    between atoms: C_7  and  C_8
REMARK    6  A    between atoms: C_8  and  N_9
REMARK    7  A    between atoms: C_8  and  C_20
REMARK    8  A    between atoms: C_10  and  C_12
REMARK    9  A    between atoms: C_13  and  C_14
REMARK   10  A    between atoms: C_20  and  O_22
REMARK                            x       y       z     vdW  Elec       q    Type
REMARK                         _______ _______ _______ _____ _____    ______ ____
ROOT
ATOM      1  C   UNK A   1       6.803   5.483  16.446  0.00  0.00    +0.000 C 
ENDROOT
BRANCH   1   2
ATOM      2  N   UNK A   1       7.675   6.636  16.703  0.00  0.00    +0.000 N 
ATOM      3  C   UNK A   0       7.234   7.720  17.412  0.00  0.00    +0.000 C 
ATOM      4  O   UNK A   0       6.072   7.799  17.797  0.00  0.00    +0.000 OA
ATOM      5  H   UNK A   1       8.626   6.610  16.349  0.00  0.00    +0.000 HD
BRANCH   3   6
ATOM      6  C   UNK A   0       8.212   8.822  17.529  0.00  0.00    +0.000 C 
ATOM      7  C   UNK A   0       8.567   9.251  18.751  0.00  0.00    +0.000 C 
BRANCH   7   8
ATOM      8  C   UNK A   0       9.416  10.427  18.986  0.00  0.00    +0.000 A 
ATOM      9  C   UNK A   0       9.730  10.858  20.280  0.00  0.00    +0.000 A 
ATOM     10  C   UNK A   0      10.586  11.943  20.486  0.00  0.00    +0.000 A 
ATOM     11  C   UNK A   0      11.147  12.599  19.393  0.00  0.00    +0.000 A 
ATOM     12  C   UNK A   0      10.864  12.166  18.100  0.00  0.00    +0.000 A 
ATOM     13  C   UNK A   0      10.005  11.079  17.895  0.00  0.00    +0.000 A 
ENDBRANCH   7   8
ENDBRANCH   3   6
ENDBRANCH   1   2
BRANCH   1  14
ATOM     14  C   UNK A   1       7.087   4.902  15.048  0.00  0.00    +0.000 C 
ATOM     15  O   UNK A   1       6.515   3.928  14.578  0.00  0.00    +0.000 OA
BRANCH  14  16
ATOM     16  O   UNK A   1       7.977   5.619  14.320  0.00  0.00    +0.000 OA
ATOM     17  H   UNK A   1       8.904   5.282  14.400  0.00  0.00    +0.000 HD
ENDBRANCH  14  16
ENDBRANCH   1  14
BRANCH   1  18
ATOM     18  C   UNK A   1       6.950   4.385  17.496  0.00  0.00    +0.000 C 
BRANCH  18  20
ATOM     19  N   UNK A   1       4.856   3.176  17.719  0.00  0.00    +0.000 N 
ATOM     20  C   UNK A   1       5.648   4.178  18.226  0.00  0.00    +0.000 C 
ATOM     21  O   UNK A   1       5.325   4.897  19.169  0.00  0.00    +0.000 OA
ATOM     22  H   UNK A   1       5.163   2.646  16.913  0.00  0.00    +0.000 HD
BRANCH  19  23
ATOM     23  C   UNK A   1       3.539   2.891  18.255  0.00  0.00    +0.000 C 
BRANCH  23  25
ATOM     24  C   UNK A   1       1.958   4.843  17.890  0.00  0.00    +0.000 C 
ATOM     25  C   UNK A   1       2.420   3.479  17.397  0.00  0.00    +0.000 C 
ENDBRANCH  23  25
ENDBRANCH  19  23
ENDBRANCH  18  20
ENDBRANCH   1  18
TORSDOF 9
ENDMDL
MODEL 5
REMARK VINA RESULT:      -7.4      1.139      1.815
REMARK  Name = 
REMARK  10 active torsions:
REMARK  status: ('A' for Active; 'I' for Inactive)
REMARK    1  A    between atoms: C_1  and  C_2
REMARK    2  A    between atoms: C_2  and  C_3
REMARK    3  A    between atoms: C_3  and  N_4
REMARK    4  A    between atoms: C_5  and  C_7
REMARK    5  A    between atoms: C_7  and  C_8
REMARK    6  A    between atoms: C_8  and  N_9
REMARK    7  A    between atoms: C_8  and  C_20
REMARK    8  A    between atoms: C_10  and  C_12
REMARK    9  A    between atoms: C_13  and  C_14
REMARK   10  A    between atoms: C_20  and  O_22
REMARK                            x       y       z     vdW  Elec       q    Type
REMARK                         _______ _______ _______ _____ _____    ______ ____
ROOT
ATOM      1  C   UNK A   1       6.629   5.715  17.656  0.00  0.00    +0.000 C 
ENDROOT
BRANCH   1   2
ATOM      2  N   UNK A   1       7.614   6.655  18.204  0.00  0.00    +0.000 N 
ATOM      3  C   UNK A   0       7.640   7.966  17.817  0.00  0.00    +0.000 C 
ATOM      4  O   UNK A   0       6.888   8.389  16.946  0.00  0.00    +0.000 OA
ATOM      5  H   UNK A   1       8.277   6.311  18.892  0.00  0.00    +0.000 HD
BRANCH   3   6
ATOM      6  C   UNK A   0       8.731   8.765  18.414  0.00  0.00    +0.000 C 
ATOM      7  C   UNK A   0       8.697  10.103  18.303  0.00  0.00    +0.000 C 
BRANCH   7   8
ATOM      8  C   UNK A   0       9.792  10.985  18.729  0.00  0.00    +0.000 A 
ATOM      9  C   UNK A   0      10.044  11.239  20.082  0.00  0.00    +0.000 A 
ATOM     10  C   UNK A   0      11.126  12.033  20.472  0.00  0.00    +0.000 A 
ATOM     11  C   UNK A   0      11.973  12.571  19.507  0.00  0.00    +0.000 A 
ATOM     12  C   UNK A   0      11.750  12.307  18.158  0.00  0.00    +0.000 A 
ATOM     13  C   UNK A   0      10.665  11.511  17.768  0.00  0.00    +0.000 A 
ENDBRANCH   7   8
ENDBRANCH   3   6
ENDBRANCH   1   2
BRANCH   1  14
ATOM     14  C   UNK A   1       6.963   5.389  16.188  0.00  0.00    +0.000 C 
ATOM     15  O   UNK A   1       7.823   4.592  15.839  0.00  0.00    +0.000 OA
BRANCH  14  16
ATOM     16  O   UNK A   1       6.153   5.996  15.287  0.00  0.00    +0.000 OA
ATOM     17  H   UNK A   1       5.390   6.464  15.706  0.00  0.00    +0.000 HD
ENDBRANCH  14  16
ENDBRANCH   1  14
BRANCH   1  18
ATOM     18  C   UNK A   1       6.536   4.419  18.459  0.00  0.00    +0.000 C 
BRANCH  18  20
ATOM     19  N   UNK A   1       4.850   2.946  19.396  0.00  0.00    +0.000 N 
ATOM     20  C   UNK A   1       5.138   4.226  18.987  0.00  0.00    +0.000 C 
ATOM     21  O   UNK A   1       4.326   5.147  18.992  0.00  0.00    +0.000 OA
ATOM     22  H   UNK A   1       5.553   2.220  19.327  0.00  0.00    +0.000 HD
BRANCH  19  23
ATOM     23  C   UNK A   1       3.530   2.567  19.863  0.00  0.00    +0.000 C 
BRANCH  23  25
ATOM     24  C   UNK A   1       1.247   2.400  18.765  0.00  0.00    +0.000 C 
ATOM     25  C   UNK A   1       2.690   1.913  18.767  0.00  0.00    +0.000 C 
ENDBRANCH  23  25
ENDBRANCH  19  23
ENDBRANCH  18  20
ENDBRANCH   1  18
TORSDOF 9
ENDMDL
MODEL 6
REMARK VINA RESULT:      -7.4      5.097      6.228
REMARK  Name = 
REMARK  10 active torsions:
REMARK  status: ('A' for Active; 'I' for Inactive)
REMARK    1  A    between atoms: C_1  and  C_2
REMARK    2  A    between atoms: C_2  and  C_3
REMARK    3  A    between atoms: C_3  and  N_4
REMARK    4  A    between atoms: C_5  and  C_7
REMARK    5  A    between atoms: C_7  and  C_8
REMARK    6  A    between atoms: C_8  and  N_9
REMARK    7  A    between atoms: C_8  and  C_20
REMARK    8  A    between atoms: C_10  and  C_12
REMARK    9  A    between atoms: C_13  and  C_14
REMARK   10  A    between atoms: C_20  and  O_22
REMARK                            x       y       z     vdW  Elec       q    Type
REMARK                         _______ _______ _______ _____ _____    ______ ____
ROOT
ATOM      1  C   UNK A   1       4.494   4.545  17.447  0.00  0.00    +0.000 C 
ENDROOT
BRANCH   1   2
ATOM      2  N   UNK A   1       3.703   5.650  18.002  0.00  0.00    +0.000 N 
ATOM      3  C   UNK A   0       3.746   6.903  17.456  0.00  0.00    +0.000 C 
ATOM      4  O   UNK A   0       4.500   7.167  16.526  0.00  0.00    +0.000 OA
ATOM      5  H   UNK A   1       3.109   5.462  18.804  0.00  0.00    +0.000 HD
BRANCH   3   6
ATOM      6  C   UNK A   0       2.941   7.917  18.169  0.00  0.00    +0.000 C 
ATOM      7  C   UNK A   0       2.321   7.574  19.311  0.00  0.00    +0.000 C 
BRANCH   7   8
ATOM      8  C   UNK A   0       1.385   8.452  20.025  0.00  0.00    +0.000 A 
ATOM      9  C   UNK A   0       1.050   8.230  21.366  0.00  0.00    +0.000 A 
ATOM     10  C   UNK A   0       0.203   9.109  22.047  0.00  0.00    +0.000 A 
ATOM     11  C   UNK A   0      -0.308  10.226  21.391  0.00  0.00    +0.000 A 
ATOM     12  C   UNK A   0       0.037  10.474  20.064  0.00  0.00    +0.000 A 
ATOM     13  C   UNK A   0       0.886   9.592  19.383  0.00  0.00    +0.000 A 
ENDBRANCH   7   8
ENDBRANCH   3   6
ENDBRANCH   1   2
BRANCH   1  14
ATOM     14  C   UNK A   1       5.529   4.060  18.479  0.00  0.00    +0.000 C 
ATOM     15  O   UNK A   1       5.244   3.571  19.563  0.00  0.00    +0.000 OA
BRANCH  14  16
ATOM     16  O   UNK A   1       6.813   4.133  18.052  0.00  0.00    +0.000 OA
ATOM     17  H   UNK A   1       7.352   3.344  18.308  0.00  0.00    +0.000 HD
ENDBRANCH  14  16
ENDBRANCH   1  14
BRANCH   1  18
ATOM     18  C   UNK A   1       3.632   3.368  16.996  0.00  0.00    +0.000 C 
BRANCH  18  20
ATOM     19  N   UNK A   1       2.323   2.629  18.903  0.00  0.00    +0.000 N 
ATOM     20  C   UNK A   1       2.321   3.361  17.740  0.00  0.00    +0.000 C 
ATOM     21  O   UNK A   1       1.331   3.934  17.291  0.00  0.00    +0.000 OA
ATOM     22  H   UNK A   1       3.162   2.146  19.197  0.00  0.00    +0.000 HD
BRANCH  19  23
ATOM     23  C   UNK A   1       1.126   2.455  19.703  0.00  0.00    +0.000 C 
BRANCH  23  25
ATOM     24  C   UNK A   1       2.057   4.344  21.121  0.00  0.00    +0.000 C 
ATOM     25  C   UNK A   1       1.275   3.038  21.108  0.00  0.00    +0.000 C 
ENDBRANCH  23  25
ENDBRANCH  19  23
ENDBRANCH  18  20
ENDBRANCH   1  18
TORSDOF 9
ENDMDL
MODEL 7
REMARK VINA RESULT:      -7.4      1.568      2.176
REMARK  Name = 
REMARK  10 active torsions:
REMARK  status: ('A' for Active; 'I' for Inactive)
REMARK    1  A    between atoms: C_1  and  C_2
REMARK    2  A    between atoms: C_2  and  C_3
REMARK    3  A    between atoms: C_3  and  N_4
REMARK    4  A    between atoms: C_5  and  C_7
REMARK    5  A    between atoms: C_7  and  C_8
REMARK    6  A    between atoms: C_8  and  N_9
REMARK    7  A    between atoms: C_8  and  C_20
REMARK    8  A    between atoms: C_10  and  C_12
REMARK    9  A    between atoms: C_13  and  C_14
REMARK   10  A    between atoms: C_20  and  O_22
REMARK                            x       y       z     vdW  Elec       q    Type
REMARK                         _______ _______ _______ _____ _____    ______ ____
ROOT
ATOM      1  C   UNK A   1       6.802   5.507  16.382  0.00  0.00    +0.000 C 
ENDROOT
BRANCH   1   2
ATOM      2  N   UNK A   1       7.690   6.639  16.674  0.00  0.00    +0.000 N 
ATOM      3  C   UNK A   0       7.244   7.736  17.358  0.00  0.00    +0.000 C 
ATOM      4  O   UNK A   0       6.069   7.845  17.692  0.00  0.00    +0.000 OA
ATOM      5  H   UNK A   1       8.654   6.588  16.362  0.00  0.00    +0.000 HD
BRANCH   3   6
ATOM      6  C   UNK A   0       8.243   8.815  17.515  0.00  0.00    +0.000 C 
ATOM      7  C   UNK A   0       8.527   9.267  18.748  0.00  0.00    +0.000 C 
BRANCH   7   8
ATOM      8  C   UNK A   0       9.391  10.425  19.011  0.00  0.00    +0.000 A 
ATOM      9  C   UNK A   0       9.682  10.842  20.315  0.00  0.00    +0.000 A 
ATOM     10  C   UNK A   0      10.552  11.910  20.549  0.00  0.00    +0.000 A 
ATOM     11  C   UNK A   0      11.150  12.563  19.474  0.00  0.00    +0.000 A 
ATOM     12  C   UNK A   0      10.891  12.144  18.171  0.00  0.00    +0.000 A 
ATOM     13  C   UNK A   0      10.017  11.074  17.939  0.00  0.00    +0.000 A 
ENDBRANCH   7   8
ENDBRANCH   3   6
ENDBRANCH   1   2
BRANCH   1  14
ATOM     14  C   UNK A   1       7.103   4.941  14.982  0.00  0.00    +0.000 C 
ATOM     15  O   UNK A   1       7.840   5.478  14.166  0.00  0.00    +0.000 OA
BRANCH  14  16
ATOM     16  O   UNK A   1       6.551   3.726  14.744  0.00  0.00    +0.000 OA
ATOM     17  H   UNK A   1       7.208   2.988  14.778  0.00  0.00    +0.000 HD
ENDBRANCH  14  16
ENDBRANCH   1  14
BRANCH   1  18
ATOM     18  C   UNK A   1       6.908   4.390  17.418  0.00  0.00    +0.000 C 
BRANCH  18  20
ATOM     19  N   UNK A   1       4.606   4.605  18.160  0.00  0.00    +0.000 N 
ATOM     20  C   UNK A   1       5.927   4.618  18.539  0.00  0.00    +0.000 C 
ATOM     21  O   UNK A   1       6.310   4.844  19.684  0.00  0.00    +0.000 OA
ATOM     22  H   UNK A   1       4.358   4.454  17.190  0.00  0.00    +0.000 HD
BRANCH  19  23
ATOM     23  C   UNK A   1       3.534   4.880  19.097  0.00  0.00    +0.000 C 
BRANCH  23  25
ATOM     24  C   UNK A   1       1.432   3.864  18.104  0.00  0.00    +0.000 C 
ATOM     25  C   UNK A   1       2.202   5.143  18.399  0.00  0.00    +0.000 C 
ENDBRANCH  23  25
ENDBRANCH  19  23
ENDBRANCH  18  20
ENDBRANCH   1  18
TORSDOF 9
ENDMDL
MODEL 8
REMARK VINA RESULT:      -7.3      0.853      1.389
REMARK  Name = 
REMARK  10 active torsions:
REMARK  status: ('A' for Active; 'I' for Inactive)
REMARK    1  A    between atoms: C_1  and  C_2
REMARK    2  A    between atoms: C_2  and  C_3
REMARK    3  A    between atoms: C_3  and  N_4
REMARK    4  A    between atoms: C_5  and  C_7
REMARK    5  A    between atoms: C_7  and  C_8
REMARK    6  A    between atoms: C_8  and  N_9
REMARK    7  A    between atoms: C_8  and  C_20
REMARK    8  A    between atoms: C_10  and  C_12
REMARK    9  A    between atoms: C_13  and  C_14
REMARK   10  A    between atoms: C_20  and  O_22
REMARK                            x       y       z     vdW  Elec       q    Type
REMARK                         _______ _______ _______ _____ _____    ______ ____
ROOT
ATOM      1  C   UNK A   1       6.848   5.782  18.037  0.00  0.00    +0.000 C 
ENDROOT
BRANCH   1   2
ATOM      2  N   UNK A   1       7.773   6.804  18.543  0.00  0.00    +0.000 N 
ATOM      3  C   UNK A   0       7.814   8.059  18.000  0.00  0.00    +0.000 C 
ATOM      4  O   UNK A   0       7.130   8.355  17.026  0.00  0.00    +0.000 OA
ATOM      5  H   UNK A   1       8.382   6.562  19.318  0.00  0.00    +0.000 HD
BRANCH   3   6
ATOM      6  C   UNK A   0       8.842   8.950  18.580  0.00  0.00    +0.000 C 
ATOM      7  C   UNK A   0       8.900  10.229  18.176  0.00  0.00    +0.000 C 
BRANCH   7   8
ATOM      8  C   UNK A   0       9.962  11.162  18.574  0.00  0.00    +0.000 A 
ATOM      9  C   UNK A   0      10.319  11.338  19.916  0.00  0.00    +0.000 A 
ATOM     10  C   UNK A   0      11.372  12.185  20.272  0.00  0.00    +0.000 A 
ATOM     11  C   UNK A   0      12.086  12.856  19.282  0.00  0.00    +0.000 A 
ATOM     12  C   UNK A   0      11.759  12.672  17.940  0.00  0.00    +0.000 A 
ATOM     13  C   UNK A   0      10.703  11.823  17.585  0.00  0.00    +0.000 A 
ENDBRANCH   7   8
ENDBRANCH   3   6
ENDBRANCH   1   2
BRANCH   1  14
ATOM     14  C   UNK A   1       7.576   4.842  17.058  0.00  0.00    +0.000 C 
ATOM     15  O   UNK A   1       7.513   4.935  15.840  0.00  0.00    +0.000 OA
BRANCH  14  16
ATOM     16  O   UNK A   1       8.384   3.935  17.658  0.00  0.00    +0.000 OA
ATOM     17  H   UNK A   1       8.448   3.084  17.160  0.00  0.00    +0.000 HD
ENDBRANCH  14  16
ENDBRANCH   1  14
BRANCH   1  18
ATOM     18  C   UNK A   1       6.207   4.961  19.153  0.00  0.00    +0.000 C 
BRANCH  18  20
ATOM     19  N   UNK A   1       3.849   5.131  19.707  0.00  0.00    +0.000 N 
ATOM     20  C   UNK A   1       4.774   4.641  18.815  0.00  0.00    +0.000 C 
ATOM     21  O   UNK A   1       4.488   3.953  17.839  0.00  0.00    +0.000 OA
ATOM     22  H   UNK A   1       4.154   5.657  20.516  0.00  0.00    +0.000 HD
BRANCH  19  23
ATOM     23  C   UNK A   1       2.432   4.855  19.574  0.00  0.00    +0.000 C 
BRANCH  23  25
ATOM     24  C   UNK A   1       0.545   3.251  20.131  0.00  0.00    +0.000 C 
ATOM     25  C   UNK A   1       2.049   3.487  20.137  0.00  0.00    +0.000 C 
ENDBRANCH  23  25
ENDBRANCH  19  23
ENDBRANCH  18  20
ENDBRANCH   1  18
TORSDOF 9
ENDMDL
MODEL 9
REMARK VINA RESULT:      -7.3      1.179      1.425
REMARK  Name = 
REMARK  10 active torsions:
REMARK  status: ('A' for Active; 'I' for Inactive)
REMARK    1  A    between atoms: C_1  and  C_2
REMARK    2  A    between atoms: C_2  and  C_3
REMARK    3  A    between atoms: C_3  and  N_4
REMARK    4  A    between atoms: C_5  and  C_7
REMARK    5  A    between atoms: C_7  and  C_8
REMARK    6  A    between atoms: C_8  and  N_9
REMARK    7  A    between atoms: C_8  and  C_20
REMARK    8  A    between atoms: C_10  and  C_12
REMARK    9  A    between atoms: C_13  and  C_14
REMARK   10  A    between atoms: C_20  and  O_22
REMARK                            x       y       z     vdW  Elec       q    Type
REMARK                         _______ _______ _______ _____ _____    ______ ____
ROOT
ATOM      1  C   UNK A   1       6.851   5.794  17.927  0.00  0.00    +0.000 C 
ENDROOT
BRANCH   1   2
ATOM      2  N   UNK A   1       7.795   6.786  18.457  0.00  0.00    +0.000 N 
ATOM      3  C   UNK A   0       7.763   8.090  18.047  0.00  0.00    +0.000 C 
ATOM      4  O   UNK A   0       6.991   8.464  17.171  0.00  0.00    +0.000 OA
ATOM      5  H   UNK A   1       8.474   6.483  19.148  0.00  0.00    +0.000 HD
BRANCH   3   6
ATOM      6  C   UNK A   0       8.819   8.947  18.628  0.00  0.00    +0.000 C 
ATOM      7  C   UNK A   0       8.953  10.208  18.185  0.00  0.00    +0.000 C 
BRANCH   7   8
ATOM      8  C   UNK A   0      10.051  11.098  18.584  0.00  0.00    +0.000 A 
ATOM      9  C   UNK A   0      10.803  11.804  17.638  0.00  0.00    +0.000 A 
ATOM     10  C   UNK A   0      11.806  12.692  18.039  0.00  0.00    +0.000 A 
ATOM     11  C   UNK A   0      12.055  12.889  19.394  0.00  0.00    +0.000 A 
ATOM     12  C   UNK A   0      11.297  12.213  20.348  0.00  0.00    +0.000 A 
ATOM     13  C   UNK A   0      10.294  11.323  19.945  0.00  0.00    +0.000 A 
ENDBRANCH   7   8
ENDBRANCH   3   6
ENDBRANCH   1   2
BRANCH   1  14
ATOM     14  C   UNK A   1       7.388   5.197  16.612  0.00  0.00    +0.000 C 
ATOM     15  O   UNK A   1       7.330   5.758  15.527  0.00  0.00    +0.000 OA
BRANCH  14  16
ATOM     16  O   UNK A   1       8.027   4.012  16.762  0.00  0.00    +0.000 OA
ATOM     17  H   UNK A   1       8.649   3.810  16.021  0.00  0.00    +0.000 HD
ENDBRANCH  14  16
ENDBRANCH   1  14
BRANCH   1  18
ATOM     18  C   UNK A   1       6.557   4.669  18.916  0.00  0.00    +0.000 C 
BRANCH  18  20
ATOM     19  N   UNK A   1       4.573   3.274  19.012  0.00  0.00    +0.000 N 
ATOM     20  C   UNK A   1       5.074   4.546  19.149  0.00  0.00    +0.000 C 
ATOM     21  O   UNK A   1       4.384   5.533  19.393  0.00  0.00    +0.000 OA
ATOM     22  H   UNK A   1       5.190   2.509  18.769  0.00  0.00    +0.000 HD
BRANCH  19  23
ATOM     23  C   UNK A   1       3.156   2.989  19.130  0.00  0.00    +0.000 C 
BRANCH  23  25
ATOM     24  C   UNK A   1       1.568   4.315  17.659  0.00  0.00    +0.000 C 
ATOM     25  C   UNK A   1       2.432   3.068  17.787  0.00  0.00    +0.000 C 
ENDBRANCH  23  25
ENDBRANCH  19  23
ENDBRANCH  18  20
ENDBRANCH   1  18
TORSDOF 9
ENDMDL
