MODEL 1
REMARK VINA RESULT:      -7.6      0.000      0.000
REMARK  Name = 
REMARK  4 active torsions:
REMARK  status: ('A' for Active; 'I' for Inactive)
REMARK    1  A    between atoms: C_1  and  C_2
REMARK    2  A    between atoms: N_4  and  C_5
REMARK    3  A    between atoms: C_13  and  O_14
REMARK    4  A    between atoms: C_16  and  C_17
REMARK                            x       y       z     vdW  Elec       q    Type
REMARK                         _______ _______ _______ _____ _____    ______ ____
ROOT
ATOM      1  C   UNL     1       3.442   1.618  18.148  0.00  0.00    +0.000 C 
ATOM      2  C   UNL     1       3.701   3.042  18.480  0.00  0.00    +0.000 A 
ATOM      3  N   UNL     1       4.839   3.613  18.075  0.00  0.00    +0.000 NA
ATOM      4  N   UNL     1       4.800   4.888  18.566  0.00  0.00    +0.000 N 
ATOM      5  C   UNL     1       3.607   5.127  19.247  0.00  0.00    +0.000 A 
ATOM      6  N   UNL     1       3.209   6.279  19.837  0.00  0.00    +0.000 NA
ATOM      7  C   UNL     1       2.004   6.200  20.408  0.00  0.00    +0.000 A 
ATOM      8  C   UNL     1       1.177   5.100  20.437  0.00  0.00    +0.000 A 
ATOM      9  C   UNL     1       1.600   3.914  19.815  0.00  0.00    +0.000 A 
ATOM     10  C   UNL     1       2.875   3.943  19.199  0.00  0.00    +0.000 A 
ENDROOT
BRANCH   4  11
ATOM     11  C   UNL     1       5.897   5.775  18.331  0.00  0.00    +0.000 A 
ATOM     12  C   UNL     1       5.785   6.767  17.342  0.00  0.00    +0.000 A 
ATOM     13  C   UNL     1       6.837   7.659  17.113  0.00  0.00    +0.000 A 
ATOM     14  C   UNL     1       8.010   7.565  17.858  0.00  0.00    +0.000 A 
ATOM     15  C   UNL     1       8.136   6.575  18.830  0.00  0.00    +0.000 A 
ATOM     16  C   UNL     1       7.087   5.685  19.067  0.00  0.00    +0.000 A 
ENDBRANCH   4  11
BRANCH   9  17
ATOM     17  C   UNL     1       0.706   2.707  19.814  0.00  0.00    +0.000 C 
ATOM     18  F   UNL     1       0.361   2.318  18.556  0.00  0.00    +0.000 F 
ATOM     19  F   UNL     1       1.268   1.612  20.398  0.00  0.00    +0.000 F 
ENDBRANCH   9  17
BRANCH   7  20
ATOM     20  O   UNL     1       1.604   7.357  20.994  0.00  0.00    +0.000 OA
ATOM     21  H   UNL     1       0.689   7.126  21.238  0.00  0.00    +0.000 HD
ENDBRANCH   7  20
TORSDOF 3
ENDMDL
MODEL 2
REMARK VINA RESULT:      -7.5      0.047      1.080
REMARK  Name = 
REMARK  4 active torsions:
REMARK  status: ('A' for Active; 'I' for Inactive)
REMARK    1  A    between atoms: C_1  and  C_2
REMARK    2  A    between atoms: N_4  and  C_5
REMARK    3  A    between atoms: C_13  and  O_14
REMARK    4  A    between atoms: C_16  and  C_17
REMARK                            x       y       z     vdW  Elec       q    Type
REMARK                         _______ _______ _______ _____ _____    ______ ____
ROOT
ATOM      1  C   UNL     1       3.447   1.609  18.195  0.00  0.00    +0.000 C 
ATOM      2  C   UNL     1       3.696   3.038  18.517  0.00  0.00    +0.000 A 
ATOM      3  N   UNL     1       4.831   3.613  18.110  0.00  0.00    +0.000 NA
ATOM      4  N   UNL     1       4.783   4.891  18.590  0.00  0.00    +0.000 N 
ATOM      5  C   UNL     1       3.587   5.127  19.267  0.00  0.00    +0.000 A 
ATOM      6  N   UNL     1       3.179   6.282  19.846  0.00  0.00    +0.000 NA
ATOM      7  C   UNL     1       1.973   6.200  20.415  0.00  0.00    +0.000 A 
ATOM      8  C   UNL     1       1.153   5.094  20.450  0.00  0.00    +0.000 A 
ATOM      9  C   UNL     1       1.586   3.906  19.839  0.00  0.00    +0.000 A 
ATOM     10  C   UNL     1       2.862   3.939  19.227  0.00  0.00    +0.000 A 
ENDROOT
BRANCH   4  11
ATOM     11  C   UNL     1       5.874   5.784  18.352  0.00  0.00    +0.000 A 
ATOM     12  C   UNL     1       7.048   5.660  19.114  0.00  0.00    +0.000 A 
ATOM     13  C   UNL     1       8.135   6.508  18.881  0.00  0.00    +0.000 A 
ATOM     14  C   UNL     1       8.059   7.490  17.896  0.00  0.00    +0.000 A 
ATOM     15  C   UNL     1       6.894   7.629  17.145  0.00  0.00    +0.000 A 
ATOM     16  C   UNL     1       5.807   6.783  17.370  0.00  0.00    +0.000 A 
ENDBRANCH   4  11
BRANCH   9  17
ATOM     17  C   UNL     1       0.700   2.693  19.845  0.00  0.00    +0.000 C 
ATOM     18  F   UNL     1       0.343   2.305  18.591  0.00  0.00    +0.000 F 
ATOM     19  F   UNL     1       1.275   1.601  20.420  0.00  0.00    +0.000 F 
ENDBRANCH   9  17
BRANCH   7  20
ATOM     20  O   UNL     1       1.563   7.358  20.991  0.00  0.00    +0.000 OA
ATOM     21  H   UNL     1       1.333   7.878  20.200  0.00  0.00    +0.000 HD
ENDBRANCH   7  20
TORSDOF 3
ENDMDL
MODEL 3
REMARK VINA RESULT:      -7.4      2.862      3.847
REMARK  Name = 
REMARK  4 active torsions:
REMARK  status: ('A' for Active; 'I' for Inactive)
REMARK    1  A    between atoms: C_1  and  C_2
REMARK    2  A    between atoms: N_4  and  C_5
REMARK    3  A    between atoms: C_13  and  O_14
REMARK    4  A    between atoms: C_16  and  C_17
REMARK                            x       y       z     vdW  Elec       q    Type
REMARK                         _______ _______ _______ _____ _____    ______ ____
ROOT
ATOM      1  C   UNL     1       2.489   7.010  19.133  0.00  0.00    +0.000 C 
ATOM      2  C   UNL     1       3.202   5.890  18.467  0.00  0.00    +0.000 A 
ATOM      3  N   UNL     1       4.015   6.151  17.439  0.00  0.00    +0.000 NA
ATOM      4  N   UNL     1       4.475   4.933  17.024  0.00  0.00    +0.000 N 
ATOM      5  C   UNL     1       3.978   3.908  17.828  0.00  0.00    +0.000 A 
ATOM      6  N   UNL     1       4.242   2.583  17.735  0.00  0.00    +0.000 NA
ATOM      7  C   UNL     1       3.619   1.846  18.658  0.00  0.00    +0.000 A 
ATOM      8  C   UNL     1       2.779   2.305  19.649  0.00  0.00    +0.000 A 
ATOM      9  C   UNL     1       2.520   3.682  19.737  0.00  0.00    +0.000 A 
ATOM     10  C   UNL     1       3.153   4.508  18.776  0.00  0.00    +0.000 A 
ENDROOT
BRANCH   4  11
ATOM     11  C   UNL     1       5.362   4.851  15.905  0.00  0.00    +0.000 A 
ATOM     12  C   UNL     1       6.646   5.412  15.997  0.00  0.00    +0.000 A 
ATOM     13  C   UNL     1       7.536   5.323  14.922  0.00  0.00    +0.000 A 
ATOM     14  C   UNL     1       7.152   4.683  13.746  0.00  0.00    +0.000 A 
ATOM     15  C   UNL     1       5.875   4.137  13.640  0.00  0.00    +0.000 A 
ATOM     16  C   UNL     1       4.984   4.219  14.712  0.00  0.00    +0.000 A 
ENDBRANCH   4  11
BRANCH   9  17
ATOM     17  C   UNL     1       1.626   4.209  20.823  0.00  0.00    +0.000 C 
ATOM     18  F   UNL     1       0.359   4.443  20.384  0.00  0.00    +0.000 F 
ATOM     19  F   UNL     1       1.500   3.362  21.883  0.00  0.00    +0.000 F 
ENDBRANCH   9  17
BRANCH   7  20
ATOM     20  O   UNL     1       3.888   0.519  18.567  0.00  0.00    +0.000 OA
ATOM     21  H   UNL     1       4.768   0.487  18.983  0.00  0.00    +0.000 HD
ENDBRANCH   7  20
TORSDOF 3
ENDMDL
MODEL 4
REMARK VINA RESULT:      -7.4      3.017      3.912
REMARK  Name = 
REMARK  4 active torsions:
REMARK  status: ('A' for Active; 'I' for Inactive)
REMARK    1  A    between atoms: C_1  and  C_2
REMARK    2  A    between atoms: N_4  and  C_5
REMARK    3  A    between atoms: C_13  and  O_14
REMARK    4  A    between atoms: C_16  and  C_17
REMARK                            x       y       z     vdW  Elec       q    Type
REMARK                         _______ _______ _______ _____ _____    ______ ____
ROOT
ATOM      1  C   UNL     1       2.627   7.185  18.743  0.00  0.00    +0.000 C 
ATOM      2  C   UNL     1       3.312   6.017  18.133  0.00  0.00    +0.000 A 
ATOM      3  N   UNL     1       4.126   6.205  17.091  0.00  0.00    +0.000 NA
ATOM      4  N   UNL     1       4.557   4.957  16.738  0.00  0.00    +0.000 N 
ATOM      5  C   UNL     1       4.040   3.987  17.595  0.00  0.00    +0.000 A 
ATOM      6  N   UNL     1       4.273   2.653  17.570  0.00  0.00    +0.000 NA
ATOM      7  C   UNL     1       3.637   1.979  18.532  0.00  0.00    +0.000 A 
ATOM      8  C   UNL     1       2.812   2.507  19.500  0.00  0.00    +0.000 A 
ATOM      9  C   UNL     1       2.585   3.893  19.518  0.00  0.00    +0.000 A 
ATOM     10  C   UNL     1       3.233   4.653  18.514  0.00  0.00    +0.000 A 
ENDROOT
BRANCH   4  11
ATOM     11  C   UNL     1       5.437   4.797  15.622  0.00  0.00    +0.000 A 
ATOM     12  C   UNL     1       4.995   4.094  14.489  0.00  0.00    +0.000 A 
ATOM     13  C   UNL     1       5.832   3.945  13.378  0.00  0.00    +0.000 A 
ATOM     14  C   UNL     1       7.115   4.486  13.391  0.00  0.00    +0.000 A 
ATOM     15  C   UNL     1       7.567   5.172  14.516  0.00  0.00    +0.000 A 
ATOM     16  C   UNL     1       6.734   5.328  15.625  0.00  0.00    +0.000 A 
ENDBRANCH   4  11
BRANCH   9  17
ATOM     17  C   UNL     1       1.708   4.496  20.578  0.00  0.00    +0.000 C 
ATOM     18  F   UNL     1       0.393   4.198  20.394  0.00  0.00    +0.000 F 
ATOM     19  F   UNL     1       2.009   4.075  21.838  0.00  0.00    +0.000 F 
ENDBRANCH   9  17
BRANCH   7  20
ATOM     20  O   UNL     1       3.875   0.643  18.509  0.00  0.00    +0.000 OA
ATOM     21  H   UNL     1       4.846   0.634  18.583  0.00  0.00    +0.000 HD
ENDBRANCH   7  20
TORSDOF 3
ENDMDL
MODEL 5
REMARK VINA RESULT:      -7.0      2.926      4.578
REMARK  Name = 
REMARK  4 active torsions:
REMARK  status: ('A' for Active; 'I' for Inactive)
REMARK    1  A    between atoms: C_1  and  C_2
REMARK    2  A    between atoms: N_4  and  C_5
REMARK    3  A    between atoms: C_13  and  O_14
REMARK    4  A    between atoms: C_16  and  C_17
REMARK                            x       y       z     vdW  Elec       q    Type
REMARK                         _______ _______ _______ _____ _____    ______ ____
ROOT
ATOM      1  C   UNL     1       1.824   3.351  21.489  0.00  0.00    +0.000 C 
ATOM      2  C   UNL     1       2.195   4.394  20.499  0.00  0.00    +0.000 A 
ATOM      3  N   UNL     1       1.744   5.641  20.662  0.00  0.00    +0.000 NA
ATOM      4  N   UNL     1       2.212   6.340  19.586  0.00  0.00    +0.000 N 
ATOM      5  C   UNL     1       2.998   5.531  18.766  0.00  0.00    +0.000 A 
ATOM      6  N   UNL     1       3.649   5.887  17.633  0.00  0.00    +0.000 NA
ATOM      7  C   UNL     1       4.330   4.886  17.069  0.00  0.00    +0.000 A 
ATOM      8  C   UNL     1       4.424   3.591  17.530  0.00  0.00    +0.000 A 
ATOM      9  C   UNL     1       3.749   3.238  18.710  0.00  0.00    +0.000 A 
ATOM     10  C   UNL     1       3.006   4.264  19.343  0.00  0.00    +0.000 A 
ENDROOT
BRANCH   4  11
ATOM     11  C   UNL     1       1.883   7.723  19.436  0.00  0.00    +0.000 A 
ATOM     12  C   UNL     1       2.134   8.366  18.213  0.00  0.00    +0.000 A 
ATOM     13  C   UNL     1       1.799   9.713  18.039  0.00  0.00    +0.000 A 
ATOM     14  C   UNL     1       1.220  10.430  19.083  0.00  0.00    +0.000 A 
ATOM     15  C   UNL     1       0.981   9.806  20.304  0.00  0.00    +0.000 A 
ATOM     16  C   UNL     1       1.310   8.461  20.482  0.00  0.00    +0.000 A 
ENDBRANCH   4  11
BRANCH   9  17
ATOM     17  C   UNL     1       3.854   1.838  19.244  0.00  0.00    +0.000 C 
ATOM     18  F   UNL     1       3.961   0.912  18.253  0.00  0.00    +0.000 F 
ATOM     19  F   UNL     1       4.935   1.643  20.050  0.00  0.00    +0.000 F 
ENDBRANCH   9  17
BRANCH   7  20
ATOM     20  O   UNL     1       4.987   5.245  15.937  0.00  0.00    +0.000 OA
ATOM     21  H   UNL     1       5.351   6.107  16.207  0.00  0.00    +0.000 HD
ENDBRANCH   7  20
TORSDOF 3
ENDMDL
MODEL 6
REMARK VINA RESULT:      -7.0      2.897      4.659
REMARK  Name = 
REMARK  4 active torsions:
REMARK  status: ('A' for Active; 'I' for Inactive)
REMARK    1  A    between atoms: C_1  and  C_2
REMARK    2  A    between atoms: N_4  and  C_5
REMARK    3  A    between atoms: C_13  and  O_14
REMARK    4  A    between atoms: C_16  and  C_17
REMARK                            x       y       z     vdW  Elec       q    Type
REMARK                         _______ _______ _______ _____ _____    ______ ____
ROOT
ATOM      1  C   UNL     1       1.759   3.402  21.444  0.00  0.00    +0.000 C 
ATOM      2  C   UNL     1       2.149   4.443  20.459  0.00  0.00    +0.000 A 
ATOM      3  N   UNL     1       1.687   5.688  20.605  0.00  0.00    +0.000 NA
ATOM      4  N   UNL     1       2.179   6.385  19.537  0.00  0.00    +0.000 N 
ATOM      5  C   UNL     1       2.991   5.577  18.743  0.00  0.00    +0.000 A 
ATOM      6  N   UNL     1       3.670   5.932  17.626  0.00  0.00    +0.000 NA
ATOM      7  C   UNL     1       4.372   4.933  17.085  0.00  0.00    +0.000 A 
ATOM      8  C   UNL     1       4.461   3.641  17.553  0.00  0.00    +0.000 A 
ATOM      9  C   UNL     1       3.757   3.289  18.717  0.00  0.00    +0.000 A 
ATOM     10  C   UNL     1       2.991   4.313  19.326  0.00  0.00    +0.000 A 
ENDROOT
BRANCH   4  11
ATOM     11  C   UNL     1       1.845   7.766  19.373  0.00  0.00    +0.000 A 
ATOM     12  C   UNL     1       1.311   8.482  20.457  0.00  0.00    +0.000 A 
ATOM     13  C   UNL     1       0.999   9.838  20.324  0.00  0.00    +0.000 A 
ATOM     14  C   UNL     1       1.207  10.489  19.110  0.00  0.00    +0.000 A 
ATOM     15  C   UNL     1       1.723   9.783  18.025  0.00  0.00    +0.000 A 
ATOM     16  C   UNL     1       2.040   8.430  18.154  0.00  0.00    +0.000 A 
ENDBRANCH   4  11
BRANCH   9  17
ATOM     17  C   UNL     1       3.857   1.892  19.260  0.00  0.00    +0.000 C 
ATOM     18  F   UNL     1       3.925   0.956  18.275  0.00  0.00    +0.000 F 
ATOM     19  F   UNL     1       4.955   1.688  20.040  0.00  0.00    +0.000 F 
ENDBRANCH   9  17
BRANCH   7  20
ATOM     20  O   UNL     1       5.055   5.290  15.968  0.00  0.00    +0.000 OA
ATOM     21  H   UNL     1       5.381   4.421  15.673  0.00  0.00    +0.000 HD
ENDBRANCH   7  20
TORSDOF 3
ENDMDL
MODEL 7
REMARK VINA RESULT:      -7.0      2.528      2.958
REMARK  Name = 
REMARK  4 active torsions:
REMARK  status: ('A' for Active; 'I' for Inactive)
REMARK    1  A    between atoms: C_1  and  C_2
REMARK    2  A    between atoms: N_4  and  C_5
REMARK    3  A    between atoms: C_13  and  O_14
REMARK    4  A    between atoms: C_16  and  C_17
REMARK                            x       y       z     vdW  Elec       q    Type
REMARK                         _______ _______ _______ _____ _____    ______ ____
ROOT
ATOM      1  C   UNL     1       3.020   1.967  19.367  0.00  0.00    +0.000 C 
ATOM      2  C   UNL     1       3.440   3.135  18.551  0.00  0.00    +0.000 A 
ATOM      3  N   UNL     1       4.265   2.948  17.517  0.00  0.00    +0.000 NA
ATOM      4  N   UNL     1       4.494   4.195  17.007  0.00  0.00    +0.000 N 
ATOM      5  C   UNL     1       3.771   5.163  17.703  0.00  0.00    +0.000 A 
ATOM      6  N   UNL     1       3.726   6.494  17.462  0.00  0.00    +0.000 NA
ATOM      7  C   UNL     1       2.933   7.166  18.301  0.00  0.00    +0.000 A 
ATOM      8  C   UNL     1       2.191   6.636  19.333  0.00  0.00    +0.000 A 
ATOM      9  C   UNL     1       2.241   5.252  19.567  0.00  0.00    +0.000 A 
ATOM     10  C   UNL     1       3.074   4.496  18.708  0.00  0.00    +0.000 A 
ENDROOT
BRANCH   4  11
ATOM     11  C   UNL     1       5.372   4.357  15.890  0.00  0.00    +0.000 A 
ATOM     12  C   UNL     1       6.605   5.007  16.067  0.00  0.00    +0.000 A 
ATOM     13  C   UNL     1       7.487   5.155  14.992  0.00  0.00    +0.000 A 
ATOM     14  C   UNL     1       7.145   4.668  13.733  0.00  0.00    +0.000 A 
ATOM     15  C   UNL     1       5.918   4.037  13.544  0.00  0.00    +0.000 A 
ATOM     16  C   UNL     1       5.036   3.881  14.614  0.00  0.00    +0.000 A 
ENDBRANCH   4  11
BRANCH   9  17
ATOM     17  C   UNL     1       1.422   4.649  20.672  0.00  0.00    +0.000 C 
ATOM     18  F   UNL     1       0.545   3.713  20.217  0.00  0.00    +0.000 F 
ATOM     19  F   UNL     1       2.170   4.022  21.623  0.00  0.00    +0.000 F 
ENDBRANCH   9  17
BRANCH   7  20
ATOM     20  O   UNL     1       2.885   8.499  18.055  0.00  0.00    +0.000 OA
ATOM     21  H   UNL     1       3.000   8.506  17.088  0.00  0.00    +0.000 HD
ENDBRANCH   7  20
TORSDOF 3
ENDMDL
MODEL 8
REMARK VINA RESULT:      -7.0      2.559      2.881
REMARK  Name = 
REMARK  4 active torsions:
REMARK  status: ('A' for Active; 'I' for Inactive)
REMARK    1  A    between atoms: C_1  and  C_2
REMARK    2  A    between atoms: N_4  and  C_5
REMARK    3  A    between atoms: C_13  and  O_14
REMARK    4  A    between atoms: C_16  and  C_17
REMARK                            x       y       z     vdW  Elec       q    Type
REMARK                         _______ _______ _______ _____ _____    ______ ____
ROOT
ATOM      1  C   UNL     1       3.097   2.097  19.428  0.00  0.00    +0.000 C 
ATOM      2  C   UNL     1       3.516   3.246  18.585  0.00  0.00    +0.000 A 
ATOM      3  N   UNL     1       4.355   3.039  17.566  0.00  0.00    +0.000 NA
ATOM      4  N   UNL     1       4.579   4.273  17.024  0.00  0.00    +0.000 N 
ATOM      5  C   UNL     1       3.840   5.253  17.685  0.00  0.00    +0.000 A 
ATOM      6  N   UNL     1       3.786   6.577  17.406  0.00  0.00    +0.000 NA
ATOM      7  C   UNL     1       2.977   7.263  18.217  0.00  0.00    +0.000 A 
ATOM      8  C   UNL     1       2.227   6.756  19.255  0.00  0.00    +0.000 A 
ATOM      9  C   UNL     1       2.286   5.380  19.528  0.00  0.00    +0.000 A 
ATOM     10  C   UNL     1       3.136   4.607  18.699  0.00  0.00    +0.000 A 
ENDROOT
BRANCH   4  11
ATOM     11  C   UNL     1       5.469   4.412  15.914  0.00  0.00    +0.000 A 
ATOM     12  C   UNL     1       5.084   3.924  14.654  0.00  0.00    +0.000 A 
ATOM     13  C   UNL     1       5.930   4.070  13.550  0.00  0.00    +0.000 A 
ATOM     14  C   UNL     1       7.166   4.694  13.693  0.00  0.00    +0.000 A 
ATOM     15  C   UNL     1       7.563   5.169  14.941  0.00  0.00    +0.000 A 
ATOM     16  C   UNL     1       6.721   5.030  16.046  0.00  0.00    +0.000 A 
ENDBRANCH   4  11
BRANCH   9  17
ATOM     17  C   UNL     1       1.460   4.799  20.639  0.00  0.00    +0.000 C 
ATOM     18  F   UNL     1       0.599   3.841  20.200  0.00  0.00    +0.000 F 
ATOM     19  F   UNL     1       2.201   4.210  21.618  0.00  0.00    +0.000 F 
ENDBRANCH   9  17
BRANCH   7  20
ATOM     20  O   UNL     1       2.920   8.589  17.934  0.00  0.00    +0.000 OA
ATOM     21  H   UNL     1       2.066   8.636  17.469  0.00  0.00    +0.000 HD
ENDBRANCH   7  20
TORSDOF 3
ENDMDL
MODEL 9
REMARK VINA RESULT:      -6.9      3.288      5.373
REMARK  Name = 
REMARK  4 active torsions:
REMARK  status: ('A' for Active; 'I' for Inactive)
REMARK    1  A    between atoms: C_1  and  C_2
REMARK    2  A    between atoms: N_4  and  C_5
REMARK    3  A    between atoms: C_13  and  O_14
REMARK    4  A    between atoms: C_16  and  C_17
REMARK                            x       y       z     vdW  Elec       q    Type
REMARK                         _______ _______ _______ _____ _____    ______ ____
ROOT
ATOM      1  C   UNL     1       6.079   6.897  16.633  0.00  0.00    +0.000 C 
ATOM      2  C   UNL     1       4.746   6.670  17.247  0.00  0.00    +0.000 A 
ATOM      3  N   UNL     1       4.110   7.691  17.828  0.00  0.00    +0.000 NA
ATOM      4  N   UNL     1       2.953   7.160  18.327  0.00  0.00    +0.000 N 
ATOM      5  C   UNL     1       2.848   5.806  18.015  0.00  0.00    +0.000 A 
ATOM      6  N   UNL     1       1.829   4.965  18.317  0.00  0.00    +0.000 NA
ATOM      7  C   UNL     1       2.015   3.718  17.875  0.00  0.00    +0.000 A 
ATOM      8  C   UNL     1       3.098   3.248  17.168  0.00  0.00    +0.000 A 
ATOM      9  C   UNL     1       4.144   4.132  16.856  0.00  0.00    +0.000 A 
ATOM     10  C   UNL     1       3.999   5.467  17.308  0.00  0.00    +0.000 A 
ENDROOT
BRANCH   4  11
ATOM     11  C   UNL     1       2.040   7.993  19.045  0.00  0.00    +0.000 A 
ATOM     12  C   UNL     1       1.762   7.713  20.394  0.00  0.00    +0.000 A 
ATOM     13  C   UNL     1       0.889   8.528  21.121  0.00  0.00    +0.000 A 
ATOM     14  C   UNL     1       0.280   9.621  20.509  0.00  0.00    +0.000 A 
ATOM     15  C   UNL     1       0.537   9.898  19.169  0.00  0.00    +0.000 A 
ATOM     16  C   UNL     1       1.411   9.091  18.440  0.00  0.00    +0.000 A 
ENDBRANCH   4  11
BRANCH   9  17
ATOM     17  C   UNL     1       5.326   3.648  16.066  0.00  0.00    +0.000 C 
ATOM     18  F   UNL     1       5.419   4.250  14.849  0.00  0.00    +0.000 F 
ATOM     19  F   UNL     1       6.520   3.872  16.681  0.00  0.00    +0.000 F 
ENDBRANCH   9  17
BRANCH   7  20
ATOM     20  O   UNL     1       0.991   2.878  18.173  0.00  0.00    +0.000 OA
ATOM     21  H   UNL     1       0.778   3.171  19.077  0.00  0.00    +0.000 HD
ENDBRANCH   7  20
TORSDOF 3
ENDMDL
