MODEL 1
REMARK VINA RESULT:      -9.0      0.000      0.000
REMARK  Name = 
REMARK  4 active torsions:
REMARK  status: ('A' for Active; 'I' for Inactive)
REMARK    1  A    between atoms: C_1  and  C_2
REMARK    2  A    between atoms: C_6  and  C_7
REMARK    3  A    between atoms: C_23  and  C_24
REMARK    4  A    between atoms: C_24  and  O_26
REMARK                            x       y       z     vdW  Elec       q    Type
REMARK                         _______ _______ _______ _____ _____    ______ ____
ROOT
ATOM      1  C   UNL     1       3.076   3.069  20.698  0.00  0.00    +0.000 C 
ATOM      2  C   UNL     1       2.567   4.185  19.781  0.00  0.00    +0.000 C 
ATOM      3  C   UNL     1       1.584   5.089  20.559  0.00  0.00    +0.000 C 
ATOM      4  O   UNL     1       1.959   6.453  20.692  0.00  0.00    +0.000 OA
ATOM      5  C   UNL     1       2.410   6.976  19.503  0.00  0.00    +0.000 A 
ATOM      6  C   UNL     1       2.008   8.280  19.134  0.00  0.00    +0.000 A 
ATOM      7  C   UNL     1       2.547   8.808  17.954  0.00  0.00    +0.000 A 
ATOM      8  F   UNL     1       2.210  10.033  17.522  0.00  0.00    +0.000 F 
ATOM      9  C   UNL     1       3.483   8.108  17.203  0.00  0.00    +0.000 A 
ATOM     10  C   UNL     1       3.895   6.844  17.620  0.00  0.00    +0.000 A 
ATOM     11  C   UNL     1       3.330   6.223  18.738  0.00  0.00    +0.000 A 
ATOM     12  N   UNL     1       3.695   4.918  19.146  0.00  0.00    +0.000 N 
ATOM     13  C   UNL     1       4.494   4.147  18.168  0.00  0.00    +0.000 C 
ATOM     14  C   UNL     1       5.618   4.979  17.569  0.00  0.00    +0.000 C 
ATOM     15  C   UNL     1       4.997   6.170  16.903  0.00  0.00    +0.000 C 
ATOM     16  O   UNL     1       5.446   6.644  15.860  0.00  0.00    +0.000 OA
ENDROOT
BRANCH   6  17
ATOM     17  C   UNL     1       1.049   9.045  19.934  0.00  0.00    +0.000 A 
ATOM     18  C   UNL     1       0.112  10.046  19.542  0.00  0.00    +0.000 A 
ATOM     19  C   UNL     1      -0.548  10.492  20.672  0.00  0.00    +0.000 A 
ATOM     20  N   UNL     1      -0.048   9.784  21.728  0.00  0.00    +0.000 N 
ATOM     21  C   UNL     1       0.917   8.913  21.305  0.00  0.00    +0.000 A 
ATOM     22  C   UNL     1      -0.448   9.998  23.103  0.00  0.00    +0.000 C 
ATOM     23  C   UNL     1      -1.587  11.018  23.246  0.00  0.00    +0.000 C 
ATOM     24  N   UNL     1      -1.685  12.046  22.202  0.00  0.00    +0.000 NA
ATOM     25  C   UNL     1      -1.636  11.491  20.846  0.00  0.00    +0.000 C 
ATOM     26  H   UNL     1      -0.926  12.716  22.301  0.00  0.00    +0.000 HD
ENDBRANCH   6  17
BRANCH  14  27
ATOM     27  C   UNL     1       6.463   4.106  16.680  0.00  0.00    +0.000 C 
ATOM     28  O   UNL     1       7.673   4.259  16.551  0.00  0.00    +0.000 OA
BRANCH  27  29
ATOM     29  O   UNL     1       5.808   3.168  15.957  0.00  0.00    +0.000 OA
ATOM     30  H   UNL     1       5.785   2.276  16.388  0.00  0.00    +0.000 HD
ENDBRANCH  27  29
ENDBRANCH  14  27
TORSDOF 3
ENDMDL
MODEL 2
REMARK VINA RESULT:      -8.8      2.556      3.843
REMARK  Name = 
REMARK  4 active torsions:
REMARK  status: ('A' for Active; 'I' for Inactive)
REMARK    1  A    between atoms: C_1  and  C_2
REMARK    2  A    between atoms: C_6  and  C_7
REMARK    3  A    between atoms: C_23  and  C_24
REMARK    4  A    between atoms: C_24  and  O_26
REMARK                            x       y       z     vdW  Elec       q    Type
REMARK                         _______ _______ _______ _____ _____    ______ ____
ROOT
ATOM      1  C   UNL     1       5.128   6.179  15.899  0.00  0.00    +0.000 C 
ATOM      2  C   UNL     1       4.638   6.660  17.268  0.00  0.00    +0.000 C 
ATOM      3  C   UNL     1       4.020   8.070  17.133  0.00  0.00    +0.000 C 
ATOM      4  O   UNL     1       2.647   8.188  17.484  0.00  0.00    +0.000 OA
ATOM      5  C   UNL     1       2.366   7.542  18.665  0.00  0.00    +0.000 A 
ATOM      6  C   UNL     1       1.508   8.167  19.598  0.00  0.00    +0.000 A 
ATOM      7  C   UNL     1       1.184   7.446  20.755  0.00  0.00    +0.000 A 
ATOM      8  F   UNL     1       0.387   7.969  21.700  0.00  0.00    +0.000 F 
ATOM      9  C   UNL     1       1.637   6.149  20.957  0.00  0.00    +0.000 A 
ATOM     10  C   UNL     1       2.443   5.543  19.995  0.00  0.00    +0.000 A 
ATOM     11  C   UNL     1       2.877   6.238  18.862  0.00  0.00    +0.000 A 
ATOM     12  N   UNL     1       3.738   5.658  17.901  0.00  0.00    +0.000 N 
ATOM     13  C   UNL     1       4.376   4.386  18.304  0.00  0.00    +0.000 C 
ATOM     14  C   UNL     1       3.380   3.429  18.946  0.00  0.00    +0.000 C 
ATOM     15  C   UNL     1       2.796   4.117  20.144  0.00  0.00    +0.000 C 
ATOM     16  O   UNL     1       2.515   3.506  21.175  0.00  0.00    +0.000 OA
ENDROOT
BRANCH   6  17
ATOM     17  C   UNL     1       0.993   9.521  19.383  0.00  0.00    +0.000 A 
ATOM     18  C   UNL     1      -0.240   9.960  18.818  0.00  0.00    +0.000 A 
ATOM     19  C   UNL     1      -0.247  11.342  18.806  0.00  0.00    +0.000 A 
ATOM     20  N   UNL     1       0.936  11.749  19.356  0.00  0.00    +0.000 N 
ATOM     21  C   UNL     1       1.697  10.669  19.706  0.00  0.00    +0.000 A 
ATOM     22  C   UNL     1       1.334  13.136  19.474  0.00  0.00    +0.000 C 
ATOM     23  C   UNL     1       0.238  14.116  19.031  0.00  0.00    +0.000 C 
ATOM     24  N   UNL     1      -0.715  13.628  18.027  0.00  0.00    +0.000 NA
ATOM     25  C   UNL     1      -1.279  12.317  18.363  0.00  0.00    +0.000 C 
ATOM     26  H   UNL     1      -0.260  13.557  17.120  0.00  0.00    +0.000 HD
ENDBRANCH   6  17
BRANCH  14  27
ATOM     27  C   UNL     1       4.061   2.115  19.220  0.00  0.00    +0.000 C 
ATOM     28  O   UNL     1       3.730   1.067  18.676  0.00  0.00    +0.000 OA
BRANCH  27  29
ATOM     29  O   UNL     1       5.029   2.122  20.166  0.00  0.00    +0.000 OA
ATOM     30  H   UNL     1       4.772   2.598  20.997  0.00  0.00    +0.000 HD
ENDBRANCH  27  29
ENDBRANCH  14  27
TORSDOF 3
ENDMDL
MODEL 3
REMARK VINA RESULT:      -8.6      0.705      1.378
REMARK  Name = 
REMARK  4 active torsions:
REMARK  status: ('A' for Active; 'I' for Inactive)
REMARK    1  A    between atoms: C_1  and  C_2
REMARK    2  A    between atoms: C_6  and  C_7
REMARK    3  A    between atoms: C_23  and  C_24
REMARK    4  A    between atoms: C_24  and  O_26
REMARK                            x       y       z     vdW  Elec       q    Type
REMARK                         _______ _______ _______ _____ _____    ______ ____
ROOT
ATOM      1  C   UNL     1       3.269   2.724  20.116  0.00  0.00    +0.000 C 
ATOM      2  C   UNL     1       2.703   3.942  19.382  0.00  0.00    +0.000 C 
ATOM      3  C   UNL     1       1.839   4.780  20.352  0.00  0.00    +0.000 C 
ATOM      4  O   UNL     1       2.272   6.114  20.584  0.00  0.00    +0.000 OA
ATOM      5  C   UNL     1       2.611   6.750  19.413  0.00  0.00    +0.000 A 
ATOM      6  C   UNL     1       2.217   8.094  19.227  0.00  0.00    +0.000 A 
ATOM      7  C   UNL     1       2.645   8.733  18.056  0.00  0.00    +0.000 A 
ATOM      8  F   UNL     1       2.305  10.004  17.793  0.00  0.00    +0.000 F 
ATOM      9  C   UNL     1       3.471   8.097  17.139  0.00  0.00    +0.000 A 
ATOM     10  C   UNL     1       3.882   6.786  17.376  0.00  0.00    +0.000 A 
ATOM     11  C   UNL     1       3.418   6.062  18.478  0.00  0.00    +0.000 A 
ATOM     12  N   UNL     1       3.781   4.714  18.706  0.00  0.00    +0.000 N 
ATOM     13  C   UNL     1       4.444   4.033  17.573  0.00  0.00    +0.000 C 
ATOM     14  C   UNL     1       5.526   4.900  16.944  0.00  0.00    +0.000 C 
ATOM     15  C   UNL     1       4.878   6.169  16.476  0.00  0.00    +0.000 C 
ATOM     16  O   UNL     1       5.230   6.740  15.445  0.00  0.00    +0.000 OA
ENDROOT
BRANCH   6  17
ATOM     17  C   UNL     1       1.375   8.791  20.202  0.00  0.00    +0.000 A 
ATOM     18  C   UNL     1       1.163   8.534  21.589  0.00  0.00    +0.000 A 
ATOM     19  C   UNL     1       0.252   9.456  22.069  0.00  0.00    +0.000 A 
ATOM     20  N   UNL     1      -0.083  10.265  21.021  0.00  0.00    +0.000 N 
ATOM     21  C   UNL     1       0.578   9.879  19.889  0.00  0.00    +0.000 A 
ATOM     22  C   UNL     1      -1.060  11.331  21.106  0.00  0.00    +0.000 C 
ATOM     23  C   UNL     1      -1.595  11.543  22.529  0.00  0.00    +0.000 C 
ATOM     24  N   UNL     1      -1.591  10.373  23.416  0.00  0.00    +0.000 NA
ATOM     25  C   UNL     1      -0.303   9.673  23.432  0.00  0.00    +0.000 C 
ATOM     26  H   UNL     1      -2.309   9.715  23.127  0.00  0.00    +0.000 HD
ENDBRANCH   6  17
BRANCH  14  27
ATOM     27  C   UNL     1       6.241   4.107  15.882  0.00  0.00    +0.000 C 
ATOM     28  O   UNL     1       5.776   3.087  15.385  0.00  0.00    +0.000 OA
BRANCH  27  29
ATOM     29  O   UNL     1       7.479   4.535  15.540  0.00  0.00    +0.000 OA
ATOM     30  H   UNL     1       7.560   4.808  14.591  0.00  0.00    +0.000 HD
ENDBRANCH  27  29
ENDBRANCH  14  27
TORSDOF 3
ENDMDL
MODEL 4
REMARK VINA RESULT:      -8.3      0.705      1.263
REMARK  Name = 
REMARK  4 active torsions:
REMARK  status: ('A' for Active; 'I' for Inactive)
REMARK    1  A    between atoms: C_1  and  C_2
REMARK    2  A    between atoms: C_6  and  C_7
REMARK    3  A    between atoms: C_23  and  C_24
REMARK    4  A    between atoms: C_24  and  O_26
REMARK                            x       y       z     vdW  Elec       q    Type
REMARK                         _______ _______ _______ _____ _____    ______ ____
ROOT
ATOM      1  C   UNL     1       2.617   3.463  20.956  0.00  0.00    +0.000 C 
ATOM      2  C   UNL     1       2.165   4.573  20.003  0.00  0.00    +0.000 C 
ATOM      3  C   UNL     1       1.228   5.550  20.749  0.00  0.00    +0.000 C 
ATOM      4  O   UNL     1       1.671   6.898  20.839  0.00  0.00    +0.000 OA
ATOM      5  C   UNL     1       2.149   7.358  19.635  0.00  0.00    +0.000 A 
ATOM      6  C   UNL     1       1.813   8.668  19.222  0.00  0.00    +0.000 A 
ATOM      7  C   UNL     1       2.380   9.130  18.028  0.00  0.00    +0.000 A 
ATOM      8  F   UNL     1       2.105  10.356  17.555  0.00  0.00    +0.000 F 
ATOM      9  C   UNL     1       3.280   8.361  17.302  0.00  0.00    +0.000 A 
ATOM     10  C   UNL     1       3.627   7.091  17.761  0.00  0.00    +0.000 A 
ATOM     11  C   UNL     1       3.030   6.535  18.896  0.00  0.00    +0.000 A 
ATOM     12  N   UNL     1       3.329   5.228  19.347  0.00  0.00    +0.000 N 
ATOM     13  C   UNL     1       4.089   4.387  18.397  0.00  0.00    +0.000 C 
ATOM     14  C   UNL     1       5.254   5.142  17.774  0.00  0.00    +0.000 C 
ATOM     15  C   UNL     1       4.694   6.340  17.068  0.00  0.00    +0.000 C 
ATOM     16  O   UNL     1       5.168   6.757  16.011  0.00  0.00    +0.000 OA
ENDROOT
BRANCH   6  17
ATOM     17  C   UNL     1       0.893   9.506  19.995  0.00  0.00    +0.000 A 
ATOM     18  C   UNL     1       0.740   9.649  21.406  0.00  0.00    +0.000 A 
ATOM     19  C   UNL     1      -0.288  10.542  21.644  0.00  0.00    +0.000 A 
ATOM     20  N   UNL     1      -0.750  10.950  20.424  0.00  0.00    +0.000 N 
ATOM     21  C   UNL     1      -0.055  10.335  19.421  0.00  0.00    +0.000 A 
ATOM     22  C   UNL     1      -1.868  11.852  20.247  0.00  0.00    +0.000 C 
ATOM     23  C   UNL     1      -2.409  12.407  21.572  0.00  0.00    +0.000 C 
ATOM     24  N   UNL     1      -2.225  11.567  22.762  0.00  0.00    +0.000 NA
ATOM     25  C   UNL     1      -0.850  11.081  22.911  0.00  0.00    +0.000 C 
ATOM     26  H   UNL     1      -2.845  10.762  22.720  0.00  0.00    +0.000 HD
ENDBRANCH   6  17
BRANCH  14  27
ATOM     27  C   UNL     1       6.055   4.199  16.916  0.00  0.00    +0.000 C 
ATOM     28  O   UNL     1       7.251   4.354  16.692  0.00  0.00    +0.000 OA
BRANCH  27  29
ATOM     29  O   UNL     1       5.372   3.189  16.329  0.00  0.00    +0.000 OA
ATOM     30  H   UNL     1       5.766   2.885  15.471  0.00  0.00    +0.000 HD
ENDBRANCH  27  29
ENDBRANCH  14  27
TORSDOF 3
ENDMDL
MODEL 5
REMARK VINA RESULT:      -8.2      3.106      7.697
REMARK  Name = 
REMARK  4 active torsions:
REMARK  status: ('A' for Active; 'I' for Inactive)
REMARK    1  A    between atoms: C_1  and  C_2
REMARK    2  A    between atoms: C_6  and  C_7
REMARK    3  A    between atoms: C_23  and  C_24
REMARK    4  A    between atoms: C_24  and  O_26
REMARK                            x       y       z     vdW  Elec       q    Type
REMARK                         _______ _______ _______ _____ _____    ______ ____
ROOT
ATOM      1  C   UNL     1      -0.514   9.798  23.292  0.00  0.00    +0.000 C 
ATOM      2  C   UNL     1       0.638   9.666  22.293  0.00  0.00    +0.000 C 
ATOM      3  C   UNL     1       1.069   8.185  22.188  0.00  0.00    +0.000 C 
ATOM      4  O   UNL     1       0.938   7.584  20.907  0.00  0.00    +0.000 OA
ATOM      5  C   UNL     1       1.419   8.400  19.910  0.00  0.00    +0.000 A 
ATOM      6  C   UNL     1       2.184   7.827  18.868  0.00  0.00    +0.000 A 
ATOM      7  C   UNL     1       2.593   8.675  17.831  0.00  0.00    +0.000 A 
ATOM      8  F   UNL     1       3.333   8.218  16.809  0.00  0.00    +0.000 F 
ATOM      9  C   UNL     1       2.218  10.012  17.791  0.00  0.00    +0.000 A 
ATOM     10  C   UNL     1       1.423  10.535  18.810  0.00  0.00    +0.000 A 
ATOM     11  C   UNL     1       1.056   9.766  19.919  0.00  0.00    +0.000 A 
ATOM     12  N   UNL     1       0.295  10.294  20.988  0.00  0.00    +0.000 N 
ATOM     13  C   UNL     1       0.153  11.766  21.001  0.00  0.00    +0.000 C 
ATOM     14  C   UNL     1      -0.192  12.317  19.625  0.00  0.00    +0.000 C 
ATOM     15  C   UNL     1       0.905  11.912  18.685  0.00  0.00    +0.000 C 
ATOM     16  O   UNL     1       1.289  12.646  17.775  0.00  0.00    +0.000 OA
ENDROOT
BRANCH   6  17
ATOM     17  C   UNL     1       2.558   6.411  18.877  0.00  0.00    +0.000 A 
ATOM     18  C   UNL     1       3.552   5.724  19.634  0.00  0.00    +0.000 A 
ATOM     19  C   UNL     1       3.540   4.393  19.263  0.00  0.00    +0.000 A 
ATOM     20  N   UNL     1       2.564   4.253  18.318  0.00  0.00    +0.000 N 
ATOM     21  C   UNL     1       1.965   5.456  18.069  0.00  0.00    +0.000 A 
ATOM     22  C   UNL     1       2.273   3.009  17.637  0.00  0.00    +0.000 C 
ATOM     23  C   UNL     1       3.091   1.825  18.173  0.00  0.00    +0.000 C 
ATOM     24  N   UNL     1       4.397   2.141  18.766  0.00  0.00    +0.000 NA
ATOM     25  C   UNL     1       4.332   3.230  19.746  0.00  0.00    +0.000 C 
ATOM     26  H   UNL     1       5.054   2.406  18.037  0.00  0.00    +0.000 HD
ENDBRANCH   6  17
BRANCH  14  27
ATOM     27  C   UNL     1      -0.442  13.797  19.731  0.00  0.00    +0.000 C 
ATOM     28  O   UNL     1      -0.452  14.397  20.801  0.00  0.00    +0.000 OA
BRANCH  27  29
ATOM     29  O   UNL     1      -0.734  14.445  18.578  0.00  0.00    +0.000 OA
ATOM     30  H   UNL     1      -0.498  15.408  18.591  0.00  0.00    +0.000 HD
ENDBRANCH  27  29
ENDBRANCH  14  27
TORSDOF 3
ENDMDL
MODEL 6
REMARK VINA RESULT:      -8.1      2.409      3.827
REMARK  Name = 
REMARK  4 active torsions:
REMARK  status: ('A' for Active; 'I' for Inactive)
REMARK    1  A    between atoms: C_1  and  C_2
REMARK    2  A    between atoms: C_6  and  C_7
REMARK    3  A    between atoms: C_23  and  C_24
REMARK    4  A    between atoms: C_24  and  O_26
REMARK                            x       y       z     vdW  Elec       q    Type
REMARK                         _______ _______ _______ _____ _____    ______ ____
ROOT
ATOM      1  C   UNL     1       5.263   5.920  15.770  0.00  0.00    +0.000 C 
ATOM      2  C   UNL     1       4.806   6.428  17.141  0.00  0.00    +0.000 C 
ATOM      3  C   UNL     1       4.248   7.863  17.004  0.00  0.00    +0.000 C 
ATOM      4  O   UNL     1       2.884   8.042  17.365  0.00  0.00    +0.000 OA
ATOM      5  C   UNL     1       2.586   7.415  18.551  0.00  0.00    +0.000 A 
ATOM      6  C   UNL     1       1.763   8.081  19.489  0.00  0.00    +0.000 A 
ATOM      7  C   UNL     1       1.418   7.381  20.652  0.00  0.00    +0.000 A 
ATOM      8  F   UNL     1       0.652   7.942  21.600  0.00  0.00    +0.000 F 
ATOM      9  C   UNL     1       1.816   6.066  20.857  0.00  0.00    +0.000 A 
ATOM     10  C   UNL     1       2.587   5.421  19.891  0.00  0.00    +0.000 A 
ATOM     11  C   UNL     1       3.041   6.091  18.751  0.00  0.00    +0.000 A 
ATOM     12  N   UNL     1       3.868   5.470  17.786  0.00  0.00    +0.000 N 
ATOM     13  C   UNL     1       4.453   4.173  18.191  0.00  0.00    +0.000 C 
ATOM     14  C   UNL     1       3.423   3.264  18.845  0.00  0.00    +0.000 C 
ATOM     15  C   UNL     1       2.879   3.982  20.045  0.00  0.00    +0.000 C 
ATOM     16  O   UNL     1       2.581   3.389  21.081  0.00  0.00    +0.000 OA
ENDROOT
BRANCH   6  17
ATOM     17  C   UNL     1       1.306   9.455  19.271  0.00  0.00    +0.000 A 
ATOM     18  C   UNL     1       2.019  10.604  18.816  0.00  0.00    +0.000 A 
ATOM     19  C   UNL     1       1.151  11.679  18.805  0.00  0.00    +0.000 A 
ATOM     20  N   UNL     1      -0.063  11.214  19.226  0.00  0.00    +0.000 N 
ATOM     21  C   UNL     1       0.011   9.880  19.515  0.00  0.00    +0.000 A 
ATOM     22  C   UNL     1      -1.230  12.052  19.403  0.00  0.00    +0.000 C 
ATOM     23  C   UNL     1      -1.004  13.502  18.950  0.00  0.00    +0.000 C 
ATOM     24  N   UNL     1       0.375  14.004  19.015  0.00  0.00    +0.000 NA
ATOM     25  C   UNL     1       1.344  13.096  18.395  0.00  0.00    +0.000 C 
ATOM     26  H   UNL     1       0.646  14.149  19.984  0.00  0.00    +0.000 HD
ENDBRANCH   6  17
BRANCH  14  27
ATOM     27  C   UNL     1       4.048   1.922  19.121  0.00  0.00    +0.000 C 
ATOM     28  O   UNL     1       3.716   0.899  18.533  0.00  0.00    +0.000 OA
BRANCH  27  29
ATOM     29  O   UNL     1       4.963   1.876  20.117  0.00  0.00    +0.000 OA
ATOM     30  H   UNL     1       5.890   2.056  19.817  0.00  0.00    +0.000 HD
ENDBRANCH  27  29
ENDBRANCH  14  27
TORSDOF 3
ENDMDL
MODEL 7
REMARK VINA RESULT:      -8.0      3.113      7.567
REMARK  Name = 
REMARK  4 active torsions:
REMARK  status: ('A' for Active; 'I' for Inactive)
REMARK    1  A    between atoms: C_1  and  C_2
REMARK    2  A    between atoms: C_6  and  C_7
REMARK    3  A    between atoms: C_23  and  C_24
REMARK    4  A    between atoms: C_24  and  O_26
REMARK                            x       y       z     vdW  Elec       q    Type
REMARK                         _______ _______ _______ _____ _____    ______ ____
ROOT
ATOM      1  C   UNL     1      -0.423   9.724  23.254  0.00  0.00    +0.000 C 
ATOM      2  C   UNL     1       0.718   9.562  22.245  0.00  0.00    +0.000 C 
ATOM      3  C   UNL     1       1.062   8.064  22.086  0.00  0.00    +0.000 C 
ATOM      4  O   UNL     1       0.894   7.518  20.784  0.00  0.00    +0.000 OA
ATOM      5  C   UNL     1       1.419   8.340  19.815  0.00  0.00    +0.000 A 
ATOM      6  C   UNL     1       2.147   7.762  18.750  0.00  0.00    +0.000 A 
ATOM      7  C   UNL     1       2.601   8.622  17.742  0.00  0.00    +0.000 A 
ATOM      8  F   UNL     1       3.311   8.160  16.701  0.00  0.00    +0.000 F 
ATOM      9  C   UNL     1       2.304   9.978  17.752  0.00  0.00    +0.000 A 
ATOM     10  C   UNL     1       1.543  10.509  18.792  0.00  0.00    +0.000 A 
ATOM     11  C   UNL     1       1.135   9.724  19.874  0.00  0.00    +0.000 A 
ATOM     12  N   UNL     1       0.408  10.255  20.966  0.00  0.00    +0.000 N 
ATOM     13  C   UNL     1       0.351  11.732  21.032  0.00  0.00    +0.000 C 
ATOM     14  C   UNL     1       0.035  12.350  19.678  0.00  0.00    +0.000 C 
ATOM     15  C   UNL     1       1.104  11.918  18.719  0.00  0.00    +0.000 C 
ATOM     16  O   UNL     1       1.527  12.660  17.834  0.00  0.00    +0.000 OA
ENDROOT
BRANCH   6  17
ATOM     17  C   UNL     1       2.439   6.327  18.707  0.00  0.00    +0.000 A 
ATOM     18  C   UNL     1       1.827   5.284  17.951  0.00  0.00    +0.000 A 
ATOM     19  C   UNL     1       2.439   4.090  18.281  0.00  0.00    +0.000 A 
ATOM     20  N   UNL     1       3.407   4.381  19.201  0.00  0.00    +0.000 N 
ATOM     21  C   UNL     1       3.419   5.721  19.472  0.00  0.00    +0.000 A 
ATOM     22  C   UNL     1       4.241   3.383  19.837  0.00  0.00    +0.000 C 
ATOM     23  C   UNL     1       4.015   1.969  19.283  0.00  0.00    +0.000 C 
ATOM     24  N   UNL     1       2.685   1.684  18.730  0.00  0.00    +0.000 NA
ATOM     25  C   UNL     1       2.229   2.705  17.782  0.00  0.00    +0.000 C 
ATOM     26  H   UNL     1       2.003   1.617  19.481  0.00  0.00    +0.000 HD
ENDBRANCH   6  17
BRANCH  14  27
ATOM     27  C   UNL     1      -0.130  13.838  19.838  0.00  0.00    +0.000 C 
ATOM     28  O   UNL     1       0.179  14.436  20.863  0.00  0.00    +0.000 OA
BRANCH  27  29
ATOM     29  O   UNL     1      -0.712  14.496  18.808  0.00  0.00    +0.000 OA
ATOM     30  H   UNL     1      -0.211  14.427  17.956  0.00  0.00    +0.000 HD
ENDBRANCH  27  29
ENDBRANCH  14  27
TORSDOF 3
ENDMDL
MODEL 8
REMARK VINA RESULT:      -7.7      3.150      8.489
REMARK  Name = 
REMARK  4 active torsions:
REMARK  status: ('A' for Active; 'I' for Inactive)
REMARK    1  A    between atoms: C_1  and  C_2
REMARK    2  A    between atoms: C_6  and  C_7
REMARK    3  A    between atoms: C_23  and  C_24
REMARK    4  A    between atoms: C_24  and  O_26
REMARK                            x       y       z     vdW  Elec       q    Type
REMARK                         _______ _______ _______ _____ _____    ______ ____
ROOT
ATOM      1  C   UNL     1      -1.007  12.251  17.728  0.00  0.00    +0.000 C 
ATOM      2  C   UNL     1      -0.837  10.883  18.395  0.00  0.00    +0.000 C 
ATOM      3  C   UNL     1       0.014   9.965  17.489  0.00  0.00    +0.000 C 
ATOM      4  O   UNL     1       1.240   9.502  18.040  0.00  0.00    +0.000 OA
ATOM      5  C   UNL     1       1.081   9.056  19.331  0.00  0.00    +0.000 A 
ATOM      6  C   UNL     1       1.742   7.873  19.732  0.00  0.00    +0.000 A 
ATOM      7  C   UNL     1       1.618   7.491  21.074  0.00  0.00    +0.000 A 
ATOM      8  F   UNL     1       2.202   6.374  21.536  0.00  0.00    +0.000 F 
ATOM      9  C   UNL     1       0.924   8.268  21.992  0.00  0.00    +0.000 A 
ATOM     10  C   UNL     1       0.324   9.455  21.575  0.00  0.00    +0.000 A 
ATOM     11  C   UNL     1       0.333   9.847  20.234  0.00  0.00    +0.000 A 
ATOM     12  N   UNL     1      -0.317  11.020  19.782  0.00  0.00    +0.000 N 
ATOM     13  C   UNL     1      -1.237  11.651  20.754  0.00  0.00    +0.000 C 
ATOM     14  C   UNL     1      -0.621  11.743  22.143  0.00  0.00    +0.000 C 
ATOM     15  C   UNL     1      -0.282  10.350  22.583  0.00  0.00    +0.000 C 
ATOM     16  O   UNL     1      -0.395   9.988  23.754  0.00  0.00    +0.000 OA
ENDROOT
BRANCH   6  17
ATOM     17  C   UNL     1       2.507   7.060  18.783  0.00  0.00    +0.000 A 
ATOM     18  C   UNL     1       2.461   5.659  18.521  0.00  0.00    +0.000 A 
ATOM     19  C   UNL     1       3.403   5.366  17.553  0.00  0.00    +0.000 A 
ATOM     20  N   UNL     1       4.006   6.544  17.216  0.00  0.00    +0.000 N 
ATOM     21  C   UNL     1       3.484   7.574  17.948  0.00  0.00    +0.000 A 
ATOM     22  C   UNL     1       5.094   6.650  16.267  0.00  0.00    +0.000 C 
ATOM     23  C   UNL     1       5.423   5.317  15.579  0.00  0.00    +0.000 C 
ATOM     24  N   UNL     1       5.119   4.094  16.332  0.00  0.00    +0.000 NA
ATOM     25  C   UNL     1       3.761   4.086  16.885  0.00  0.00    +0.000 C 
ATOM     26  H   UNL     1       5.777   3.986  17.100  0.00  0.00    +0.000 HD
ENDBRANCH   6  17
BRANCH  14  27
ATOM     27  C   UNL     1      -1.554  12.500  23.050  0.00  0.00    +0.000 C 
ATOM     28  O   UNL     1      -1.288  13.609  23.504  0.00  0.00    +0.000 OA
BRANCH  27  29
ATOM     29  O   UNL     1      -2.693  11.865  23.412  0.00  0.00    +0.000 OA
ATOM     30  H   UNL     1      -3.243  12.372  24.062  0.00  0.00    +0.000 HD
ENDBRANCH  27  29
ENDBRANCH  14  27
TORSDOF 3
ENDMDL
MODEL 9
REMARK VINA RESULT:      -7.6      3.672      8.816
REMARK  Name = 
REMARK  4 active torsions:
REMARK  status: ('A' for Active; 'I' for Inactive)
REMARK    1  A    between atoms: C_1  and  C_2
REMARK    2  A    between atoms: C_6  and  C_7
REMARK    3  A    between atoms: C_23  and  C_24
REMARK    4  A    between atoms: C_24  and  O_26
REMARK                            x       y       z     vdW  Elec       q    Type
REMARK                         _______ _______ _______ _____ _____    ______ ____
ROOT
ATOM      1  C   UNL     1      -2.947  11.534  16.754  0.00  0.00    +0.000 C 
ATOM      2  C   UNL     1      -2.402  10.697  17.915  0.00  0.00    +0.000 C 
ATOM      3  C   UNL     1      -1.368   9.680  17.382  0.00  0.00    +0.000 C 
ATOM      4  O   UNL     1      -0.047   9.803  17.892  0.00  0.00    +0.000 OA
ATOM      5  C   UNL     1      -0.043   9.973  19.256  0.00  0.00    +0.000 A 
ATOM      6  C   UNL     1       0.919   9.281  20.028  0.00  0.00    +0.000 A 
ATOM      7  C   UNL     1       0.942   9.538  21.405  0.00  0.00    +0.000 A 
ATOM      8  F   UNL     1       1.814   8.915  22.214  0.00  0.00    +0.000 F 
ATOM      9  C   UNL     1       0.098  10.474  21.987  0.00  0.00    +0.000 A 
ATOM     10  C   UNL     1      -0.807  11.174  21.191  0.00  0.00    +0.000 A 
ATOM     11  C   UNL     1      -0.944  10.901  19.826  0.00  0.00    +0.000 A 
ATOM     12  N   UNL     1      -1.893  11.563  19.013  0.00  0.00    +0.000 N 
ATOM     13  C   UNL     1      -2.916  12.348  19.739  0.00  0.00    +0.000 C 
ATOM     14  C   UNL     1      -2.303  13.196  20.843  0.00  0.00    +0.000 C 
ATOM     15  C   UNL     1      -1.595  12.271  21.788  0.00  0.00    +0.000 C 
ATOM     16  O   UNL     1      -1.572  12.470  23.002  0.00  0.00    +0.000 OA
ENDROOT
BRANCH   6  17
ATOM     17  C   UNL     1       1.842   8.317  19.424  0.00  0.00    +0.000 A 
ATOM     18  C   UNL     1       2.606   8.400  18.223  0.00  0.00    +0.000 A 
ATOM     19  C   UNL     1       3.303   7.216  18.068  0.00  0.00    +0.000 A 
ATOM     20  N   UNL     1       2.993   6.430  19.141  0.00  0.00    +0.000 N 
ATOM     21  C   UNL     1       2.112   7.072  19.966  0.00  0.00    +0.000 A 
ATOM     22  C   UNL     1       3.484   5.079  19.319  0.00  0.00    +0.000 C 
ATOM     23  C   UNL     1       4.494   4.660  18.240  0.00  0.00    +0.000 C 
ATOM     24  N   UNL     1       4.367   5.312  16.931  0.00  0.00    +0.000 NA
ATOM     25  C   UNL     1       4.267   6.771  17.026  0.00  0.00    +0.000 C 
ATOM     26  H   UNL     1       3.541   4.965  16.449  0.00  0.00    +0.000 HD
ENDBRANCH   6  17
BRANCH  14  27
ATOM     27  C   UNL     1      -3.374  14.057  21.459  0.00  0.00    +0.000 C 
ATOM     28  O   UNL     1      -3.380  15.281  21.365  0.00  0.00    +0.000 OA
BRANCH  27  29
ATOM     29  O   UNL     1      -4.311  13.420  22.199  0.00  0.00    +0.000 OA
ATOM     30  H   UNL     1      -4.696  13.978  22.922  0.00  0.00    +0.000 HD
ENDBRANCH  27  29
ENDBRANCH  14  27
TORSDOF 3
ENDMDL
