MODEL 1
REMARK VINA RESULT:      -7.4      0.000      0.000
REMARK  Name = 
REMARK  12 active torsions:
REMARK  status: ('A' for Active; 'I' for Inactive)
REMARK    1  A    between atoms: C_1  and  O_2
REMARK    2  A    between atoms: O_2  and  C_3
REMARK    3  A    between atoms: C_4  and  C_5
REMARK    4  A    between atoms: C_7  and  C_8
REMARK    5  A    between atoms: C_8  and  C_18
REMARK    6  A    between atoms: C_9  and  C_10
REMARK    7  A    between atoms: C_10  and  C_11
REMARK    8  A    between atoms: C_11  and  C_12
REMARK    9  A    between atoms: C_15  and  C_16
REMARK   10  A    between atoms: C_28  and  C_29
REMARK   11  A    between atoms: C_29  and  S_31
REMARK   12  A    between atoms: S_31  and  C_32
REMARK                            x       y       z     vdW  Elec       q    Type
REMARK                         _______ _______ _______ _____ _____    ______ ____
ROOT
ATOM      1  C   UNL     1       2.546   6.546  19.640  0.00  0.00    +0.000 C 
ATOM      2  C   UNL     1       1.913   5.934  20.670  0.00  0.00    +0.000 C 
ENDROOT
BRANCH   1   3
ATOM      3  C   UNL     1       2.099   7.936  19.350  0.00  0.00    +0.000 A 
ATOM      4  C   UNL     1       2.387   8.519  18.100  0.00  0.00    +0.000 A 
ATOM      5  C   UNL     1       1.927   9.798  17.761  0.00  0.00    +0.000 A 
ATOM      6  C   UNL     1       1.184  10.458  18.736  0.00  0.00    +0.000 A 
ATOM      7  O   UNL     1       0.638  11.699  18.629  0.00  0.00    +0.000 OA
ATOM      8  N   UNL     1      -0.032  12.014  19.805  0.00  0.00    +0.000 NA
ATOM      9  C   UNL     1       0.130  10.947  20.593  0.00  0.00    +0.000 A 
ATOM     10  C   UNL     1       0.884   9.930  19.979  0.00  0.00    +0.000 A 
ATOM     11  C   UNL     1       1.342   8.641  20.305  0.00  0.00    +0.000 A 
ENDBRANCH   1   3
BRANCH   1  16
ATOM     12  C   UNL     1       5.750   4.699  17.380  0.00  0.00    +0.000 A 
ATOM     13  C   UNL     1       4.406   4.579  16.959  0.00  0.00    +0.000 A 
ATOM     14  C   UNL     1       3.998   3.818  15.725  0.00  0.00    +0.000 C 
ATOM     15  C   UNL     1       3.379   5.209  17.689  0.00  0.00    +0.000 A 
ATOM     16  C   UNL     1       3.644   5.894  18.875  0.00  0.00    +0.000 A 
ATOM     17  C   UNL     1       4.967   5.924  19.326  0.00  0.00    +0.000 A 
ATOM     18  C   UNL     1       6.030   5.412  18.562  0.00  0.00    +0.000 A 
BRANCH  12  20
ATOM     19  C   UNL     1       7.047   4.821  15.379  0.00  0.00    +0.000 C 
ATOM     20  O   UNL     1       6.669   4.109  16.555  0.00  0.00    +0.000 OA
ENDBRANCH  12  20
BRANCH  18  21
ATOM     21  C   UNL     1       7.406   5.787  18.998  0.00  0.00    +0.000 C 
ATOM     22  O   UNL     1       8.157   4.990  19.534  0.00  0.00    +0.000 OA
BRANCH  21  23
ATOM     23  S   UNL     1       7.912   7.444  18.642  0.00  0.00    +0.000 S 
ATOM     24  C   UNL     1       7.055   7.724  17.082  0.00  0.00    +0.000 C 
ENDBRANCH  21  23
ENDBRANCH  18  21
ENDBRANCH   1  16
BRANCH   2  25
ATOM     25  C   UNL     1       2.228   4.591  21.298  0.00  0.00    +0.000 C 
BRANCH  25  26
ATOM     26  C   UNL     1       1.259   3.469  20.928  0.00  0.00    +0.000 C 
BRANCH  26  27
ATOM     27  C   UNL     1       1.683   2.745  19.708  0.00  0.00    +0.000 A 
ATOM     28  N   UNL     1       1.024   2.550  18.587  0.00  0.00    +0.000 NA
ATOM     29  N   UNL     1       1.863   1.833  17.764  0.00  0.00    +0.000 NA
ATOM     30  C   UNL     1       2.976   1.648  18.439  0.00  0.00    +0.000 A 
ATOM     31  C   UNL     1       4.218   0.974  18.030  0.00  0.00    +0.000 C 
ATOM     32  O   UNL     1       2.936   2.192  19.696  0.00  0.00    +0.000 OA
ENDBRANCH  26  27
ENDBRANCH  25  26
ENDBRANCH   2  25
TORSDOF 8
ENDMDL
MODEL 2
REMARK VINA RESULT:      -7.3      3.111      8.502
REMARK  Name = 
REMARK  12 active torsions:
REMARK  status: ('A' for Active; 'I' for Inactive)
REMARK    1  A    between atoms: C_1  and  O_2
REMARK    2  A    between atoms: O_2  and  C_3
REMARK    3  A    between atoms: C_4  and  C_5
REMARK    4  A    between atoms: C_7  and  C_8
REMARK    5  A    between atoms: C_8  and  C_18
REMARK    6  A    between atoms: C_9  and  C_10
REMARK    7  A    between atoms: C_10  and  C_11
REMARK    8  A    between atoms: C_11  and  C_12
REMARK    9  A    between atoms: C_15  and  C_16
REMARK   10  A    between atoms: C_28  and  C_29
REMARK   11  A    between atoms: C_29  and  S_31
REMARK   12  A    between atoms: S_31  and  C_32
REMARK                            x       y       z     vdW  Elec       q    Type
REMARK                         _______ _______ _______ _____ _____    ______ ____
ROOT
ATOM      1  C   UNL     1       1.175   8.591  20.008  0.00  0.00    +0.000 C 
ATOM      2  C   UNL     1       0.653   8.053  21.137  0.00  0.00    +0.000 C 
ENDROOT
BRANCH   1   3
ATOM      3  C   UNL     1       2.129   7.722  19.266  0.00  0.00    +0.000 A 
ATOM      4  C   UNL     1       2.648   8.147  18.027  0.00  0.00    +0.000 A 
ATOM      5  C   UNL     1       3.600   7.391  17.330  0.00  0.00    +0.000 A 
ATOM      6  C   UNL     1       3.986   6.195  17.927  0.00  0.00    +0.000 A 
ATOM      7  O   UNL     1       4.891   5.305  17.436  0.00  0.00    +0.000 OA
ATOM      8  N   UNL     1       5.013   4.236  18.315  0.00  0.00    +0.000 NA
ATOM      9  C   UNL     1       4.173   4.512  19.317  0.00  0.00    +0.000 A 
ATOM     10  C   UNL     1       3.498   5.733  19.136  0.00  0.00    +0.000 A 
ATOM     11  C   UNL     1       2.550   6.504  19.833  0.00  0.00    +0.000 A 
ENDBRANCH   1   3
BRANCH   1  16
ATOM     12  C   UNL     1       0.043  12.541  18.628  0.00  0.00    +0.000 A 
ATOM     13  C   UNL     1      -0.909  11.498  18.694  0.00  0.00    +0.000 A 
ATOM     14  C   UNL     1      -2.351  11.678  18.297  0.00  0.00    +0.000 C 
ATOM     15  C   UNL     1      -0.531  10.228  19.171  0.00  0.00    +0.000 A 
ATOM     16  C   UNL     1       0.790   9.943  19.514  0.00  0.00    +0.000 A 
ATOM     17  C   UNL     1       1.736  10.959  19.355  0.00  0.00    +0.000 A 
ATOM     18  C   UNL     1       1.374  12.270  18.998  0.00  0.00    +0.000 A 
BRANCH  12  20
ATOM     19  C   UNL     1      -0.627  14.757  19.212  0.00  0.00    +0.000 C 
ATOM     20  O   UNL     1      -0.452  13.750  18.219  0.00  0.00    +0.000 OA
ENDBRANCH  12  20
BRANCH  18  21
ATOM     21  C   UNL     1       2.417  13.321  19.173  0.00  0.00    +0.000 C 
ATOM     22  O   UNL     1       2.998  13.824  18.225  0.00  0.00    +0.000 OA
BRANCH  21  23
ATOM     23  S   UNL     1       2.729  13.841  20.834  0.00  0.00    +0.000 S 
ATOM     24  C   UNL     1       4.256  14.770  20.610  0.00  0.00    +0.000 C 
ENDBRANCH  21  23
ENDBRANCH  18  21
ENDBRANCH   1  16
BRANCH   2  25
ATOM     25  C   UNL     1      -0.436   8.617  22.027  0.00  0.00    +0.000 C 
BRANCH  25  26
ATOM     26  C   UNL     1       0.037   9.667  23.030  0.00  0.00    +0.000 C 
BRANCH  26  27
ATOM     27  C   UNL     1      -0.667  10.959  22.860  0.00  0.00    +0.000 A 
ATOM     28  N   UNL     1      -0.250  12.062  22.279  0.00  0.00    +0.000 NA
ATOM     29  N   UNL     1      -1.285  12.966  22.374  0.00  0.00    +0.000 NA
ATOM     30  C   UNL     1      -2.261  12.347  23.002  0.00  0.00    +0.000 A 
ATOM     31  C   UNL     1      -3.607  12.829  23.343  0.00  0.00    +0.000 C 
ATOM     32  O   UNL     1      -1.940  11.063  23.356  0.00  0.00    +0.000 OA
ENDBRANCH  26  27
ENDBRANCH  25  26
ENDBRANCH   2  25
TORSDOF 8
ENDMDL
MODEL 3
REMARK VINA RESULT:      -7.2      3.414      9.047
REMARK  Name = 
REMARK  12 active torsions:
REMARK  status: ('A' for Active; 'I' for Inactive)
REMARK    1  A    between atoms: C_1  and  O_2
REMARK    2  A    between atoms: O_2  and  C_3
REMARK    3  A    between atoms: C_4  and  C_5
REMARK    4  A    between atoms: C_7  and  C_8
REMARK    5  A    between atoms: C_8  and  C_18
REMARK    6  A    between atoms: C_9  and  C_10
REMARK    7  A    between atoms: C_10  and  C_11
REMARK    8  A    between atoms: C_11  and  C_12
REMARK    9  A    between atoms: C_15  and  C_16
REMARK   10  A    between atoms: C_28  and  C_29
REMARK   11  A    between atoms: C_29  and  S_31
REMARK   12  A    between atoms: S_31  and  C_32
REMARK                            x       y       z     vdW  Elec       q    Type
REMARK                         _______ _______ _______ _____ _____    ______ ____
ROOT
ATOM      1  C   UNL     1       1.289   8.711  20.700  0.00  0.00    +0.000 C 
ATOM      2  C   UNL     1       1.272   8.553  22.045  0.00  0.00    +0.000 C 
ENDROOT
BRANCH   1   3
ATOM      3  C   UNL     1       1.755   7.530  19.923  0.00  0.00    +0.000 A 
ATOM      4  C   UNL     1       2.340   7.711  18.654  0.00  0.00    +0.000 A 
ATOM      5  C   UNL     1       2.853   6.633  17.920  0.00  0.00    +0.000 A 
ATOM      6  C   UNL     1       2.736   5.380  18.513  0.00  0.00    +0.000 A 
ATOM      7  O   UNL     1       3.162   4.198  17.990  0.00  0.00    +0.000 OA
ATOM      8  N   UNL     1       2.872   3.167  18.875  0.00  0.00    +0.000 NA
ATOM      9  C   UNL     1       2.276   3.759  19.915  0.00  0.00    +0.000 A 
ATOM     10  C   UNL     1       2.162   5.152  19.751  0.00  0.00    +0.000 A 
ATOM     11  C   UNL     1       1.659   6.242  20.484  0.00  0.00    +0.000 A 
ENDBRANCH   1   3
BRANCH   1  16
ATOM     12  C   UNL     1      -0.022  12.332  18.710  0.00  0.00    +0.000 A 
ATOM     13  C   UNL     1       1.305  12.206  19.181  0.00  0.00    +0.000 A 
ATOM     14  C   UNL     1       2.334  13.295  19.031  0.00  0.00    +0.000 C 
ATOM     15  C   UNL     1       1.723  11.012  19.801  0.00  0.00    +0.000 A 
ATOM     16  C   UNL     1       0.833   9.963  20.035  0.00  0.00    +0.000 A 
ATOM     17  C   UNL     1      -0.498  10.141  19.644  0.00  0.00    +0.000 A 
ATOM     18  C   UNL     1      -0.920  11.267  18.917  0.00  0.00    +0.000 A 
BRANCH  12  20
ATOM     19  C   UNL     1      -0.624  14.637  18.860  0.00  0.00    +0.000 C 
ATOM     20  O   UNL     1      -0.296  13.505  18.060  0.00  0.00    +0.000 OA
ENDBRANCH  12  20
BRANCH  18  21
ATOM     21  C   UNL     1      -2.272  11.189  18.292  0.00  0.00    +0.000 C 
ATOM     22  O   UNL     1      -3.263  11.657  18.826  0.00  0.00    +0.000 OA
BRANCH  21  23
ATOM     23  S   UNL     1      -2.350  10.424  16.699  0.00  0.00    +0.000 S 
ATOM     24  C   UNL     1      -3.942  11.035  16.116  0.00  0.00    +0.000 C 
ENDBRANCH  21  23
ENDBRANCH  18  21
ENDBRANCH   1  16
BRANCH   2  25
ATOM     25  C   UNL     1       0.725   9.503  23.093  0.00  0.00    +0.000 C 
BRANCH  25  26
ATOM     26  C   UNL     1      -0.791   9.689  23.059  0.00  0.00    +0.000 C 
BRANCH  26  27
ATOM     27  C   UNL     1      -1.178  11.118  23.054  0.00  0.00    +0.000 A 
ATOM     28  N   UNL     1      -0.463  12.171  22.723  0.00  0.00    +0.000 NA
ATOM     29  N   UNL     1      -1.287  13.263  22.876  0.00  0.00    +0.000 NA
ATOM     30  C   UNL     1      -2.448  12.798  23.284  0.00  0.00    +0.000 A 
ATOM     31  C   UNL     1      -3.696  13.520  23.572  0.00  0.00    +0.000 C 
ATOM     32  O   UNL     1      -2.455  11.436  23.433  0.00  0.00    +0.000 OA
ENDBRANCH  26  27
ENDBRANCH  25  26
ENDBRANCH   2  25
TORSDOF 8
ENDMDL
MODEL 4
REMARK VINA RESULT:      -7.1      2.639      6.400
REMARK  Name = 
REMARK  12 active torsions:
REMARK  status: ('A' for Active; 'I' for Inactive)
REMARK    1  A    between atoms: C_1  and  O_2
REMARK    2  A    between atoms: O_2  and  C_3
REMARK    3  A    between atoms: C_4  and  C_5
REMARK    4  A    between atoms: C_7  and  C_8
REMARK    5  A    between atoms: C_8  and  C_18
REMARK    6  A    between atoms: C_9  and  C_10
REMARK    7  A    between atoms: C_10  and  C_11
REMARK    8  A    between atoms: C_11  and  C_12
REMARK    9  A    between atoms: C_15  and  C_16
REMARK   10  A    between atoms: C_28  and  C_29
REMARK   11  A    between atoms: C_29  and  S_31
REMARK   12  A    between atoms: S_31  and  C_32
REMARK                            x       y       z     vdW  Elec       q    Type
REMARK                         _______ _______ _______ _____ _____    ______ ____
ROOT
ATOM      1  C   UNL     1       3.353   5.981  19.470  0.00  0.00    +0.000 C 
ATOM      2  C   UNL     1       3.059   4.875  20.195  0.00  0.00    +0.000 C 
ENDROOT
BRANCH   1   3
ATOM      3  C   UNL     1       4.517   5.853  18.551  0.00  0.00    +0.000 A 
ATOM      4  C   UNL     1       5.824   5.804  19.075  0.00  0.00    +0.000 A 
ATOM      5  C   UNL     1       6.941   5.616  18.251  0.00  0.00    +0.000 A 
ATOM      6  C   UNL     1       6.681   5.496  16.889  0.00  0.00    +0.000 A 
ATOM      7  O   UNL     1       7.604   5.308  15.907  0.00  0.00    +0.000 OA
ATOM      8  N   UNL     1       6.963   5.234  14.676  0.00  0.00    +0.000 NA
ATOM      9  C   UNL     1       5.663   5.380  14.952  0.00  0.00    +0.000 A 
ATOM     10  C   UNL     1       5.418   5.547  16.328  0.00  0.00    +0.000 A 
ATOM     11  C   UNL     1       4.302   5.726  17.165  0.00  0.00    +0.000 A 
ENDBRANCH   1   3
BRANCH   1  16
ATOM     12  C   UNL     1       0.954   9.586  19.674  0.00  0.00    +0.000 A 
ATOM     13  C   UNL     1       1.836   9.364  18.591  0.00  0.00    +0.000 A 
ATOM     14  C   UNL     1       2.003  10.342  17.457  0.00  0.00    +0.000 C 
ATOM     15  C   UNL     1       2.587   8.174  18.525  0.00  0.00    +0.000 A 
ATOM     16  C   UNL     1       2.544   7.229  19.551  0.00  0.00    +0.000 A 
ATOM     17  C   UNL     1       1.737   7.508  20.657  0.00  0.00    +0.000 A 
ATOM     18  C   UNL     1       0.884   8.624  20.699  0.00  0.00    +0.000 A 
BRANCH  12  20
ATOM     19  C   UNL     1       0.765  11.905  20.210  0.00  0.00    +0.000 C 
ATOM     20  O   UNL     1       0.222  10.740  19.595  0.00  0.00    +0.000 OA
ENDBRANCH  12  20
BRANCH  18  21
ATOM     21  C   UNL     1      -0.146   8.636  21.778  0.00  0.00    +0.000 C 
ATOM     22  O   UNL     1      -1.158   7.958  21.718  0.00  0.00    +0.000 OA
BRANCH  21  23
ATOM     23  S   UNL     1       0.209   9.650  23.183  0.00  0.00    +0.000 S 
ATOM     24  C   UNL     1      -1.174  10.803  23.117  0.00  0.00    +0.000 C 
ENDBRANCH  21  23
ENDBRANCH  18  21
ENDBRANCH   1  16
BRANCH   2  25
ATOM     25  C   UNL     1       1.868   4.639  21.103  0.00  0.00    +0.000 C 
BRANCH  25  26
ATOM     26  C   UNL     1       1.011   3.430  20.732  0.00  0.00    +0.000 C 
BRANCH  26  27
ATOM     27  C   UNL     1       1.508   2.744  19.517  0.00  0.00    +0.000 A 
ATOM     28  N   UNL     1       0.925   2.601  18.347  0.00  0.00    +0.000 NA
ATOM     29  N   UNL     1       1.809   1.900  17.558  0.00  0.00    +0.000 NA
ATOM     30  C   UNL     1       2.870   1.671  18.301  0.00  0.00    +0.000 A 
ATOM     31  C   UNL     1       4.127   0.992  17.953  0.00  0.00    +0.000 C 
ATOM     32  O   UNL     1       2.750   2.170  19.571  0.00  0.00    +0.000 OA
ENDBRANCH  26  27
ENDBRANCH  25  26
ENDBRANCH   2  25
TORSDOF 8
ENDMDL
MODEL 5
REMARK VINA RESULT:      -7.1      3.429      8.997
REMARK  Name = 
REMARK  12 active torsions:
REMARK  status: ('A' for Active; 'I' for Inactive)
REMARK    1  A    between atoms: C_1  and  O_2
REMARK    2  A    between atoms: O_2  and  C_3
REMARK    3  A    between atoms: C_4  and  C_5
REMARK    4  A    between atoms: C_7  and  C_8
REMARK    5  A    between atoms: C_8  and  C_18
REMARK    6  A    between atoms: C_9  and  C_10
REMARK    7  A    between atoms: C_10  and  C_11
REMARK    8  A    between atoms: C_11  and  C_12
REMARK    9  A    between atoms: C_15  and  C_16
REMARK   10  A    between atoms: C_28  and  C_29
REMARK   11  A    between atoms: C_29  and  S_31
REMARK   12  A    between atoms: S_31  and  C_32
REMARK                            x       y       z     vdW  Elec       q    Type
REMARK                         _______ _______ _______ _____ _____    ______ ____
ROOT
ATOM      1  C   UNL     1       1.099   8.634  20.082  0.00  0.00    +0.000 C 
ATOM      2  C   UNL     1       0.576   8.074  21.199  0.00  0.00    +0.000 C 
ENDROOT
BRANCH   1   3
ATOM      3  C   UNL     1       2.064   7.785  19.332  0.00  0.00    +0.000 A 
ATOM      4  C   UNL     1       2.580   8.230  18.098  0.00  0.00    +0.000 A 
ATOM      5  C   UNL     1       3.541   7.493  17.394  0.00  0.00    +0.000 A 
ATOM      6  C   UNL     1       3.941   6.295  17.978  0.00  0.00    +0.000 A 
ATOM      7  O   UNL     1       4.857   5.422  17.479  0.00  0.00    +0.000 OA
ATOM      8  N   UNL     1       4.991   4.344  18.345  0.00  0.00    +0.000 NA
ATOM      9  C   UNL     1       4.147   4.599  19.350  0.00  0.00    +0.000 A 
ATOM     10  C   UNL     1       3.456   5.813  19.181  0.00  0.00    +0.000 A 
ATOM     11  C   UNL     1       2.499   6.566  19.886  0.00  0.00    +0.000 A 
ENDBRANCH   1   3
BRANCH   1  16
ATOM     12  C   UNL     1      -0.045  12.560  18.644  0.00  0.00    +0.000 A 
ATOM     13  C   UNL     1       1.316  12.190  18.731  0.00  0.00    +0.000 A 
ATOM     14  C   UNL     1       2.442  13.112  18.340  0.00  0.00    +0.000 C 
ATOM     15  C   UNL     1       1.670  10.901  19.173  0.00  0.00    +0.000 A 
ATOM     16  C   UNL     1       0.707   9.990  19.608  0.00  0.00    +0.000 A 
ATOM     17  C   UNL     1      -0.628  10.406  19.602  0.00  0.00    +0.000 A 
ATOM     18  C   UNL     1      -1.027  11.637  19.055  0.00  0.00    +0.000 A 
BRANCH  12  20
ATOM     19  C   UNL     1      -0.391  14.886  19.058  0.00  0.00    +0.000 C 
ATOM     20  O   UNL     1      -0.274  13.809  18.132  0.00  0.00    +0.000 OA
ENDBRANCH  12  20
BRANCH  18  21
ATOM     21  C   UNL     1      -2.488  11.822  18.821  0.00  0.00    +0.000 C 
ATOM     22  O   UNL     1      -3.203  12.410  19.614  0.00  0.00    +0.000 OA
BRANCH  21  23
ATOM     23  S   UNL     1      -3.119  11.185  17.296  0.00  0.00    +0.000 S 
ATOM     24  C   UNL     1      -4.862  10.996  17.713  0.00  0.00    +0.000 C 
ENDBRANCH  21  23
ENDBRANCH  18  21
ENDBRANCH   1  16
BRANCH   2  25
ATOM     25  C   UNL     1      -0.523   8.614  22.092  0.00  0.00    +0.000 C 
BRANCH  25  26
ATOM     26  C   UNL     1      -0.055   9.611  23.151  0.00  0.00    +0.000 C 
BRANCH  26  27
ATOM     27  C   UNL     1      -0.801  10.889  23.084  0.00  0.00    +0.000 A 
ATOM     28  N   UNL     1      -2.075  11.119  23.315  0.00  0.00    +0.000 NA
ATOM     29  N   UNL     1      -2.264  12.471  23.131  0.00  0.00    +0.000 NA
ATOM     30  C   UNL     1      -1.090  12.969  22.808  0.00  0.00    +0.000 A 
ATOM     31  C   UNL     1      -0.709  14.362  22.534  0.00  0.00    +0.000 C 
ATOM     32  O   UNL     1      -0.105  12.018  22.746  0.00  0.00    +0.000 OA
ENDBRANCH  26  27
ENDBRANCH  25  26
ENDBRANCH   2  25
TORSDOF 8
ENDMDL
MODEL 6
REMARK VINA RESULT:      -7.1      4.378      9.578
REMARK  Name = 
REMARK  12 active torsions:
REMARK  status: ('A' for Active; 'I' for Inactive)
REMARK    1  A    between atoms: C_1  and  O_2
REMARK    2  A    between atoms: O_2  and  C_3
REMARK    3  A    between atoms: C_4  and  C_5
REMARK    4  A    between atoms: C_7  and  C_8
REMARK    5  A    between atoms: C_8  and  C_18
REMARK    6  A    between atoms: C_9  and  C_10
REMARK    7  A    between atoms: C_10  and  C_11
REMARK    8  A    between atoms: C_11  and  C_12
REMARK    9  A    between atoms: C_15  and  C_16
REMARK   10  A    between atoms: C_28  and  C_29
REMARK   11  A    between atoms: C_29  and  S_31
REMARK   12  A    between atoms: S_31  and  C_32
REMARK                            x       y       z     vdW  Elec       q    Type
REMARK                         _______ _______ _______ _____ _____    ______ ____
ROOT
ATOM      1  C   UNL     1      -0.155  10.522  19.292  0.00  0.00    +0.000 C 
ATOM      2  C   UNL     1      -0.932  10.525  18.182  0.00  0.00    +0.000 C 
ENDROOT
BRANCH   1   3
ATOM      3  C   UNL     1       0.800   9.386  19.402  0.00  0.00    +0.000 A 
ATOM      4  C   UNL     1       0.851   8.624  20.586  0.00  0.00    +0.000 A 
ATOM      5  C   UNL     1       1.686   7.505  20.705  0.00  0.00    +0.000 A 
ATOM      6  C   UNL     1       2.467   7.204  19.594  0.00  0.00    +0.000 A 
ATOM      7  O   UNL     1       3.345   6.171  19.481  0.00  0.00    +0.000 OA
ATOM      8  N   UNL     1       3.934   6.196  18.223  0.00  0.00    +0.000 NA
ATOM      9  C   UNL     1       3.391   7.251  17.607  0.00  0.00    +0.000 A 
ATOM     10  C   UNL     1       2.458   7.928  18.414  0.00  0.00    +0.000 A 
ATOM     11  C   UNL     1       1.608   9.043  18.301  0.00  0.00    +0.000 A 
ENDBRANCH   1   3
BRANCH   1  16
ATOM     12  C   UNL     1      -0.298  13.634  22.305  0.00  0.00    +0.000 A 
ATOM     13  C   UNL     1      -1.262  12.600  22.287  0.00  0.00    +0.000 A 
ATOM     14  C   UNL     1      -2.384  12.508  23.289  0.00  0.00    +0.000 C 
ATOM     15  C   UNL     1      -1.185  11.581  21.318  0.00  0.00    +0.000 A 
ATOM     16  C   UNL     1      -0.217  11.603  20.315  0.00  0.00    +0.000 A 
ATOM     17  C   UNL     1       0.671  12.682  20.293  0.00  0.00    +0.000 A 
ATOM     18  C   UNL     1       0.700  13.649  21.312  0.00  0.00    +0.000 A 
BRANCH  12  20
ATOM     19  C   UNL     1      -0.981  15.805  23.028  0.00  0.00    +0.000 C 
ATOM     20  O   UNL     1      -0.428  14.528  23.334  0.00  0.00    +0.000 OA
ENDBRANCH  12  20
BRANCH  18  21
ATOM     21  C   UNL     1       1.885  14.553  21.341  0.00  0.00    +0.000 C 
ATOM     22  O   UNL     1       2.641  14.603  22.297  0.00  0.00    +0.000 OA
BRANCH  21  23
ATOM     23  S   UNL     1       2.168  15.513  19.883  0.00  0.00    +0.000 S 
ATOM     24  C   UNL     1       3.953  15.740  19.977  0.00  0.00    +0.000 C 
ENDBRANCH  21  23
ENDBRANCH  18  21
ENDBRANCH   1  16
BRANCH   2  25
ATOM     25  C   UNL     1      -1.891  11.601  17.712  0.00  0.00    +0.000 C 
BRANCH  25  26
ATOM     26  C   UNL     1      -2.929  11.133  16.693  0.00  0.00    +0.000 C 
BRANCH  26  27
ATOM     27  C   UNL     1      -4.314  11.295  17.193  0.00  0.00    +0.000 A 
ATOM     28  N   UNL     1      -5.212  12.200  16.873  0.00  0.00    +0.000 NA
ATOM     29  N   UNL     1      -6.340  11.904  17.604  0.00  0.00    +0.000 NA
ATOM     30  C   UNL     1      -6.051  10.834  18.313  0.00  0.00    +0.000 A 
ATOM     31  C   UNL     1      -6.898  10.071  19.242  0.00  0.00    +0.000 C 
ATOM     32  O   UNL     1      -4.770  10.390  18.115  0.00  0.00    +0.000 OA
ENDBRANCH  26  27
ENDBRANCH  25  26
ENDBRANCH   2  25
TORSDOF 8
ENDMDL
MODEL 7
REMARK VINA RESULT:      -7.1      3.607      6.670
REMARK  Name = 
REMARK  12 active torsions:
REMARK  status: ('A' for Active; 'I' for Inactive)
REMARK    1  A    between atoms: C_1  and  O_2
REMARK    2  A    between atoms: O_2  and  C_3
REMARK    3  A    between atoms: C_4  and  C_5
REMARK    4  A    between atoms: C_7  and  C_8
REMARK    5  A    between atoms: C_8  and  C_18
REMARK    6  A    between atoms: C_9  and  C_10
REMARK    7  A    between atoms: C_10  and  C_11
REMARK    8  A    between atoms: C_11  and  C_12
REMARK    9  A    between atoms: C_15  and  C_16
REMARK   10  A    between atoms: C_28  and  C_29
REMARK   11  A    between atoms: C_29  and  S_31
REMARK   12  A    between atoms: S_31  and  C_32
REMARK                            x       y       z     vdW  Elec       q    Type
REMARK                         _______ _______ _______ _____ _____    ______ ____
ROOT
ATOM      1  C   UNL     1       6.103   5.649  16.893  0.00  0.00    +0.000 C 
ATOM      2  C   UNL     1       6.610   5.145  15.742  0.00  0.00    +0.000 C 
ENDROOT
BRANCH   1   3
ATOM      3  C   UNL     1       6.957   6.654  17.583  0.00  0.00    +0.000 A 
ATOM      4  C   UNL     1       7.749   6.267  18.682  0.00  0.00    +0.000 A 
ATOM      5  C   UNL     1       8.618   7.165  19.316  0.00  0.00    +0.000 A 
ATOM      6  C   UNL     1       8.638   8.459  18.805  0.00  0.00    +0.000 A 
ATOM      7  O   UNL     1       9.400   9.492  19.257  0.00  0.00    +0.000 OA
ATOM      8  N   UNL     1       9.147  10.624  18.492  0.00  0.00    +0.000 NA
ATOM      9  C   UNL     1       8.234  10.240  17.594  0.00  0.00    +0.000 A 
ATOM     10  C   UNL     1       7.873   8.888  17.735  0.00  0.00    +0.000 A 
ATOM     11  C   UNL     1       7.012   7.975  17.099  0.00  0.00    +0.000 A 
ENDBRANCH   1   3
BRANCH   1  16
ATOM     12  C   UNL     1       2.230   4.504  18.466  0.00  0.00    +0.000 A 
ATOM     13  C   UNL     1       3.047   3.562  17.799  0.00  0.00    +0.000 A 
ATOM     14  C   UNL     1       2.640   2.127  17.590  0.00  0.00    +0.000 C 
ATOM     15  C   UNL     1       4.315   3.943  17.319  0.00  0.00    +0.000 A 
ATOM     16  C   UNL     1       4.764   5.261  17.415  0.00  0.00    +0.000 A 
ATOM     17  C   UNL     1       3.905   6.198  17.996  0.00  0.00    +0.000 A 
ATOM     18  C   UNL     1       2.687   5.829  18.593  0.00  0.00    +0.000 A 
BRANCH  12  20
ATOM     19  C   UNL     1       1.091   3.357  20.224  0.00  0.00    +0.000 C 
ATOM     20  O   UNL     1       1.053   4.004  18.955  0.00  0.00    +0.000 OA
ENDBRANCH  12  20
BRANCH  18  21
ATOM     21  C   UNL     1       2.025   6.857  19.447  0.00  0.00    +0.000 C 
ATOM     22  O   UNL     1       1.696   6.630  20.599  0.00  0.00    +0.000 OA
BRANCH  21  23
ATOM     23  S   UNL     1       1.791   8.448  18.711  0.00  0.00    +0.000 S 
ATOM     24  C   UNL     1       0.978   9.322  20.061  0.00  0.00    +0.000 C 
ENDBRANCH  21  23
ENDBRANCH  18  21
ENDBRANCH   1  16
BRANCH   2  25
ATOM     25  C   UNL     1       5.936   4.224  14.746  0.00  0.00    +0.000 C 
BRANCH  25  26
ATOM     26  C   UNL     1       6.690   4.043  13.429  0.00  0.00    +0.000 C 
BRANCH  26  27
ATOM     27  C   UNL     1       5.881   3.326  12.417  0.00  0.00    +0.000 A 
ATOM     28  N   UNL     1       6.091   2.150  11.867  0.00  0.00    +0.000 NA
ATOM     29  N   UNL     1       5.043   1.934  11.001  0.00  0.00    +0.000 NA
ATOM     30  C   UNL     1       4.265   2.991  11.089  0.00  0.00    +0.000 A 
ATOM     31  C   UNL     1       2.993   3.275  10.409  0.00  0.00    +0.000 C 
ATOM     32  O   UNL     1       4.739   3.932  11.966  0.00  0.00    +0.000 OA
ENDBRANCH  26  27
ENDBRANCH  25  26
ENDBRANCH   2  25
TORSDOF 8
ENDMDL
MODEL 8
REMARK VINA RESULT:      -7.1      3.431      8.842
REMARK  Name = 
REMARK  12 active torsions:
REMARK  status: ('A' for Active; 'I' for Inactive)
REMARK    1  A    between atoms: C_1  and  O_2
REMARK    2  A    between atoms: O_2  and  C_3
REMARK    3  A    between atoms: C_4  and  C_5
REMARK    4  A    between atoms: C_7  and  C_8
REMARK    5  A    between atoms: C_8  and  C_18
REMARK    6  A    between atoms: C_9  and  C_10
REMARK    7  A    between atoms: C_10  and  C_11
REMARK    8  A    between atoms: C_11  and  C_12
REMARK    9  A    between atoms: C_15  and  C_16
REMARK   10  A    between atoms: C_28  and  C_29
REMARK   11  A    between atoms: C_29  and  S_31
REMARK   12  A    between atoms: S_31  and  C_32
REMARK                            x       y       z     vdW  Elec       q    Type
REMARK                         _______ _______ _______ _____ _____    ______ ____
ROOT
ATOM      1  C   UNL     1       1.106   8.424  20.281  0.00  0.00    +0.000 C 
ATOM      2  C   UNL     1       0.620   7.953  21.455  0.00  0.00    +0.000 C 
ENDROOT
BRANCH   1   3
ATOM      3  C   UNL     1       2.073   7.530  19.585  0.00  0.00    +0.000 A 
ATOM      4  C   UNL     1       2.323   6.239  20.088  0.00  0.00    +0.000 A 
ATOM      5  C   UNL     1       3.173   5.343  19.426  0.00  0.00    +0.000 A 
ATOM      6  C   UNL     1       3.761   5.811  18.255  0.00  0.00    +0.000 A 
ATOM      7  O   UNL     1       4.614   5.121  17.450  0.00  0.00    +0.000 OA
ATOM      8  N   UNL     1       4.987   5.920  16.376  0.00  0.00    +0.000 NA
ATOM      9  C   UNL     1       4.344   7.077  16.564  0.00  0.00    +0.000 A 
ATOM     10  C   UNL     1       3.553   7.073  17.728  0.00  0.00    +0.000 A 
ATOM     11  C   UNL     1       2.690   7.961  18.395  0.00  0.00    +0.000 A 
ENDBRANCH   1   3
BRANCH   1  16
ATOM     12  C   UNL     1      -0.139  12.189  18.533  0.00  0.00    +0.000 A 
ATOM     13  C   UNL     1       1.211  11.969  18.891  0.00  0.00    +0.000 A 
ATOM     14  C   UNL     1       2.289  13.004  18.697  0.00  0.00    +0.000 C 
ATOM     15  C   UNL     1       1.604  10.730  19.432  0.00  0.00    +0.000 A 
ATOM     16  C   UNL     1       0.675   9.725  19.700  0.00  0.00    +0.000 A 
ATOM     17  C   UNL     1      -0.669   9.993  19.425  0.00  0.00    +0.000 A 
ATOM     18  C   UNL     1      -1.080  11.170  18.775  0.00  0.00    +0.000 A 
BRANCH  12  20
ATOM     19  C   UNL     1      -0.613  14.512  18.814  0.00  0.00    +0.000 C 
ATOM     20  O   UNL     1      -0.392  13.401  17.950  0.00  0.00    +0.000 OA
ENDBRANCH  12  20
BRANCH  18  21
ATOM     21  C   UNL     1      -2.479  11.193  18.259  0.00  0.00    +0.000 C 
ATOM     22  O   UNL     1      -3.282  12.045  18.598  0.00  0.00    +0.000 OA
BRANCH  21  23
ATOM     23  S   UNL     1      -2.894   9.943  17.079  0.00  0.00    +0.000 S 
ATOM     24  C   UNL     1      -2.842  10.898  15.552  0.00  0.00    +0.000 C 
ENDBRANCH  21  23
ENDBRANCH  18  21
ENDBRANCH   1  16
BRANCH   2  25
ATOM     25  C   UNL     1      -0.470   8.549  22.323  0.00  0.00    +0.000 C 
BRANCH  25  26
ATOM     26  C   UNL     1      -0.012   9.684  23.238  0.00  0.00    +0.000 C 
BRANCH  26  27
ATOM     27  C   UNL     1      -0.718  10.953  22.950  0.00  0.00    +0.000 A 
ATOM     28  N   UNL     1      -0.279  12.025  22.327  0.00  0.00    +0.000 NA
ATOM     29  N   UNL     1      -1.327  12.918  22.308  0.00  0.00    +0.000 NA
ATOM     30  C   UNL     1      -2.331  12.325  22.914  0.00  0.00    +0.000 A 
ATOM     31  C   UNL     1      -3.701  12.808  23.148  0.00  0.00    +0.000 C 
ATOM     32  O   UNL     1      -2.018  11.069  23.364  0.00  0.00    +0.000 OA
ENDBRANCH  26  27
ENDBRANCH  25  26
ENDBRANCH   2  25
TORSDOF 8
ENDMDL
MODEL 9
REMARK VINA RESULT:      -7.0      3.201      8.606
REMARK  Name = 
REMARK  12 active torsions:
REMARK  status: ('A' for Active; 'I' for Inactive)
REMARK    1  A    between atoms: C_1  and  O_2
REMARK    2  A    between atoms: O_2  and  C_3
REMARK    3  A    between atoms: C_4  and  C_5
REMARK    4  A    between atoms: C_7  and  C_8
REMARK    5  A    between atoms: C_8  and  C_18
REMARK    6  A    between atoms: C_9  and  C_10
REMARK    7  A    between atoms: C_10  and  C_11
REMARK    8  A    between atoms: C_11  and  C_12
REMARK    9  A    between atoms: C_15  and  C_16
REMARK   10  A    between atoms: C_28  and  C_29
REMARK   11  A    between atoms: C_29  and  S_31
REMARK   12  A    between atoms: S_31  and  C_32
REMARK                            x       y       z     vdW  Elec       q    Type
REMARK                         _______ _______ _______ _____ _____    ______ ____
ROOT
ATOM      1  C   UNL     1       1.043   8.752  20.159  0.00  0.00    +0.000 C 
ATOM      2  C   UNL     1       0.487   8.180  21.253  0.00  0.00    +0.000 C 
ENDROOT
BRANCH   1   3
ATOM      3  C   UNL     1       1.988   7.890  19.397  0.00  0.00    +0.000 A 
ATOM      4  C   UNL     1       2.502   8.333  18.162  0.00  0.00    +0.000 A 
ATOM      5  C   UNL     1       3.445   7.584  17.446  0.00  0.00    +0.000 A 
ATOM      6  C   UNL     1       3.829   6.376  18.021  0.00  0.00    +0.000 A 
ATOM      7  O   UNL     1       4.726   5.490  17.510  0.00  0.00    +0.000 OA
ATOM      8  N   UNL     1       4.848   4.405  18.370  0.00  0.00    +0.000 NA
ATOM      9  C   UNL     1       4.016   4.669  19.382  0.00  0.00    +0.000 A 
ATOM     10  C   UNL     1       3.345   5.896  19.225  0.00  0.00    +0.000 A 
ATOM     11  C   UNL     1       2.406   6.661  19.941  0.00  0.00    +0.000 A 
ENDBRANCH   1   3
BRANCH   1  16
ATOM     12  C   UNL     1       0.021  12.780  18.925  0.00  0.00    +0.000 A 
ATOM     13  C   UNL     1      -0.778  11.680  18.538  0.00  0.00    +0.000 A 
ATOM     14  C   UNL     1      -2.013  11.824  17.686  0.00  0.00    +0.000 C 
ATOM     15  C   UNL     1      -0.448  10.381  18.970  0.00  0.00    +0.000 A 
ATOM     16  C   UNL     1       0.703  10.133  19.717  0.00  0.00    +0.000 A 
ATOM     17  C   UNL     1       1.531  11.220  20.013  0.00  0.00    +0.000 A 
ATOM     18  C   UNL     1       1.171  12.542  19.703  0.00  0.00    +0.000 A 
BRANCH  12  20
ATOM     19  C   UNL     1      -1.117  14.808  19.465  0.00  0.00    +0.000 C 
ATOM     20  O   UNL     1      -0.435  14.001  18.508  0.00  0.00    +0.000 OA
ENDBRANCH  12  20
BRANCH  18  21
ATOM     21  C   UNL     1       1.974  13.621  20.346  0.00  0.00    +0.000 C 
ATOM     22  O   UNL     1       2.254  13.603  21.533  0.00  0.00    +0.000 OA
BRANCH  21  23
ATOM     23  S   UNL     1       2.549  14.908  19.277  0.00  0.00    +0.000 S 
ATOM     24  C   UNL     1       3.772  14.010  18.306  0.00  0.00    +0.000 C 
ENDBRANCH  21  23
ENDBRANCH  18  21
ENDBRANCH   1  16
BRANCH   2  25
ATOM     25  C   UNL     1      -0.605   8.734  22.148  0.00  0.00    +0.000 C 
BRANCH  25  26
ATOM     26  C   UNL     1      -0.126   9.738  23.195  0.00  0.00    +0.000 C 
BRANCH  26  27
ATOM     27  C   UNL     1      -0.912  10.993  23.165  0.00  0.00    +0.000 A 
ATOM     28  N   UNL     1      -2.207  11.165  23.312  0.00  0.00    +0.000 NA
ATOM     29  N   UNL     1      -2.432  12.520  23.216  0.00  0.00    +0.000 NA
ATOM     30  C   UNL     1      -1.257  13.078  23.024  0.00  0.00    +0.000 A 
ATOM     31  C   UNL     1      -0.908  14.500  22.886  0.00  0.00    +0.000 C 
ATOM     32  O   UNL     1      -0.235  12.167  22.968  0.00  0.00    +0.000 OA
ENDBRANCH  26  27
ENDBRANCH  25  26
ENDBRANCH   2  25
TORSDOF 8
ENDMDL
