MODEL 1
REMARK VINA RESULT:      -8.1      0.000      0.000
REMARK  Name = 
REMARK  12 active torsions:
REMARK  status: ('A' for Active; 'I' for Inactive)
REMARK    1  A    between atoms: C_1  and  O_2
REMARK    2  A    between atoms: O_2  and  C_3
REMARK    3  A    between atoms: C_5  and  O_6
REMARK    4  A    between atoms: O_6  and  C_7
REMARK    5  A    between atoms: C_7  and  C_8
REMARK    6  A    between atoms: C_15  and  N_16
REMARK    7  A    between atoms: C_19  and  O_20
REMARK    8  A    between atoms: O_20  and  C_21
REMARK    9  A    between atoms: C_24  and  C_25
REMARK   10  A    between atoms: C_25  and  C_26
REMARK   11  A    between atoms: C_25  and  N_27
REMARK   12  A    between atoms: C_28  and  C_29
REMARK                            x       y       z     vdW  Elec       q    Type
REMARK                         _______ _______ _______ _____ _____    ______ ____
ROOT
ATOM      1  N   UNL     1       3.384   5.913  19.699  0.00  0.00    +0.000 N 
ATOM      2  C   UNL     1       2.693   5.091  20.695  0.00  0.00    +0.000 C 
ATOM      3  C   UNL     1       1.229   5.486  20.555  0.00  0.00    +0.000 C 
ATOM      4  C   UNL     1       1.300   6.982  20.277  0.00  0.00    +0.000 C 
ATOM      5  C   UNL     1       2.541   7.075  19.356  0.00  0.00    +0.000 C 
ENDROOT
BRANCH   1  11
ATOM      6  C   UNL     1       5.483   5.202  18.607  0.00  0.00    +0.000 A 
ATOM      7  C   UNL     1       6.101   4.516  17.545  0.00  0.00    +0.000 A 
ATOM      8  C   UNL     1       5.325   3.891  16.577  0.00  0.00    +0.000 A 
ATOM      9  C   UNL     1       3.952   3.990  16.710  0.00  0.00    +0.000 A 
ATOM     10  N   UNL     1       3.323   4.641  17.718  0.00  0.00    +0.000 NA
ATOM     11  C   UNL     1       4.068   5.258  18.672  0.00  0.00    +0.000 A 
BRANCH   6  13
ATOM     12  C   UNL     1       7.625   5.701  19.527  0.00  0.00    +0.000 C 
ATOM     13  O   UNL     1       6.208   5.756  19.637  0.00  0.00    +0.000 OA
ENDBRANCH   6  13
BRANCH   8  14
ATOM     14  O   UNL     1       5.778   3.206  15.487  0.00  0.00    +0.000 OA
BRANCH  14  15
ATOM     15  C   UNL     1       6.212   3.987  14.373  0.00  0.00    +0.000 C 
BRANCH  15  16
ATOM     16  C   UNL     1       6.154   3.128  13.154  0.00  0.00    +0.000 C 
ATOM     17  C   UNL     1       5.391   3.581  11.923  0.00  0.00    +0.000 C 
ATOM     18  C   UNL     1       6.873   3.563  11.933  0.00  0.00    +0.000 C 
ATOM     19  F   UNL     1       7.559   2.655  11.163  0.00  0.00    +0.000 F 
ATOM     20  F   UNL     1       7.576   4.744  11.904  0.00  0.00    +0.000 F 
ENDBRANCH  15  16
ENDBRANCH  14  15
ENDBRANCH   8  14
ENDBRANCH   1  11
BRANCH   4  21
ATOM     21  O   UNL     1       1.537   7.736  21.474  0.00  0.00    +0.000 OA
BRANCH  21  22
ATOM     22  C   UNL     1       0.867   8.925  21.585  0.00  0.00    +0.000 A 
ATOM     23  C   UNL     1       0.721   9.860  20.564  0.00  0.00    +0.000 A 
ATOM     24  C   UNL     1      -0.055  11.011  20.760  0.00  0.00    +0.000 A 
ATOM     25  C   UNL     1      -0.686  11.250  21.986  0.00  0.00    +0.000 A 
ATOM     26  C   UNL     1      -0.518  10.306  23.018  0.00  0.00    +0.000 A 
ATOM     27  C   UNL     1       0.242   9.150  22.811  0.00  0.00    +0.000 A 
BRANCH  25  28
ATOM     28  C   UNL     1      -1.484  12.533  22.184  0.00  0.00    +0.000 C 
ATOM     29  C   UNL     1      -0.549  13.743  22.207  0.00  0.00    +0.000 C 
BRANCH  28  30
ATOM     30  N   UNL     1      -2.308  12.457  23.383  0.00  0.00    +0.000 N 
ATOM     31  C   UNL     1      -3.682  12.388  23.336  0.00  0.00    +0.000 C 
ATOM     32  C   UNL     1      -4.342  12.333  24.686  0.00  0.00    +0.000 C 
ATOM     33  O   UNL     1      -4.331  12.402  22.295  0.00  0.00    +0.000 OA
ATOM     34  H   UNL     1      -1.841  12.424  24.279  0.00  0.00    +0.000 HD
ENDBRANCH  28  30
ENDBRANCH  25  28
ENDBRANCH  21  22
ENDBRANCH   4  21
TORSDOF 9
ENDMDL
MODEL 2
REMARK VINA RESULT:      -8.0      1.770      2.558
REMARK  Name = 
REMARK  12 active torsions:
REMARK  status: ('A' for Active; 'I' for Inactive)
REMARK    1  A    between atoms: C_1  and  O_2
REMARK    2  A    between atoms: O_2  and  C_3
REMARK    3  A    between atoms: C_5  and  O_6
REMARK    4  A    between atoms: O_6  and  C_7
REMARK    5  A    between atoms: C_7  and  C_8
REMARK    6  A    between atoms: C_15  and  N_16
REMARK    7  A    between atoms: C_19  and  O_20
REMARK    8  A    between atoms: O_20  and  C_21
REMARK    9  A    between atoms: C_24  and  C_25
REMARK   10  A    between atoms: C_25  and  C_26
REMARK   11  A    between atoms: C_25  and  N_27
REMARK   12  A    between atoms: C_28  and  C_29
REMARK                            x       y       z     vdW  Elec       q    Type
REMARK                         _______ _______ _______ _____ _____    ______ ____
ROOT
ATOM      1  N   UNL     1       2.252   6.589  18.438  0.00  0.00    +0.000 N 
ATOM      2  C   UNL     1       1.760   7.827  17.832  0.00  0.00    +0.000 C 
ATOM      3  C   UNL     1       2.120   8.907  18.843  0.00  0.00    +0.000 C 
ATOM      4  C   UNL     1       1.893   8.216  20.182  0.00  0.00    +0.000 C 
ATOM      5  C   UNL     1       2.410   6.786  19.892  0.00  0.00    +0.000 C 
ENDROOT
BRANCH   1  11
ATOM      6  C   UNL     1       3.223   4.456  17.654  0.00  0.00    +0.000 A 
ATOM      7  C   UNL     1       4.242   3.802  16.939  0.00  0.00    +0.000 A 
ATOM      8  C   UNL     1       5.245   4.543  16.324  0.00  0.00    +0.000 A 
ATOM      9  C   UNL     1       5.186   5.919  16.464  0.00  0.00    +0.000 A 
ATOM     10  N   UNL     1       4.221   6.581  17.145  0.00  0.00    +0.000 NA
ATOM     11  C   UNL     1       3.234   5.871  17.751  0.00  0.00    +0.000 A 
BRANCH   6  13
ATOM     12  C   UNL     1       2.439   2.945  19.324  0.00  0.00    +0.000 C 
ATOM     13  O   UNL     1       2.161   3.771  18.200  0.00  0.00    +0.000 OA
ENDBRANCH   6  13
BRANCH   8  14
ATOM     14  O   UNL     1       6.301   4.053  15.613  0.00  0.00    +0.000 OA
BRANCH  14  15
ATOM     15  C   UNL     1       6.450   4.530  14.275  0.00  0.00    +0.000 C 
BRANCH  15  16
ATOM     16  C   UNL     1       6.205   3.388  13.346  0.00  0.00    +0.000 C 
ATOM     17  C   UNL     1       5.279   3.545  12.154  0.00  0.00    +0.000 C 
ATOM     18  C   UNL     1       6.746   3.453  11.968  0.00  0.00    +0.000 C 
ATOM     19  F   UNL     1       7.301   2.343  11.381  0.00  0.00    +0.000 F 
ATOM     20  F   UNL     1       7.455   4.548  11.533  0.00  0.00    +0.000 F 
ENDBRANCH  15  16
ENDBRANCH  14  15
ENDBRANCH   8  14
ENDBRANCH   1  11
BRANCH   4  21
ATOM     21  O   UNL     1       0.501   8.161  20.524  0.00  0.00    +0.000 OA
BRANCH  21  22
ATOM     22  C   UNL     1      -0.029   9.286  21.094  0.00  0.00    +0.000 A 
ATOM     23  C   UNL     1      -0.431  10.423  20.398  0.00  0.00    +0.000 A 
ATOM     24  C   UNL     1      -1.038  11.492  21.072  0.00  0.00    +0.000 A 
ATOM     25  C   UNL     1      -1.239  11.445  22.456  0.00  0.00    +0.000 A 
ATOM     26  C   UNL     1      -0.813  10.298  23.154  0.00  0.00    +0.000 A 
ATOM     27  C   UNL     1      -0.225   9.226  22.473  0.00  0.00    +0.000 A 
BRANCH  25  28
ATOM     28  C   UNL     1      -1.858  12.641  23.168  0.00  0.00    +0.000 C 
ATOM     29  C   UNL     1      -3.296  12.326  23.584  0.00  0.00    +0.000 C 
BRANCH  28  30
ATOM     30  N   UNL     1      -1.780  13.839  22.343  0.00  0.00    +0.000 N 
ATOM     31  C   UNL     1      -0.967  14.905  22.659  0.00  0.00    +0.000 C 
ATOM     32  C   UNL     1      -1.046  16.049  21.685  0.00  0.00    +0.000 C 
ATOM     33  O   UNL     1      -0.258  14.951  23.659  0.00  0.00    +0.000 OA
ATOM     34  H   UNL     1      -2.323  13.868  21.491  0.00  0.00    +0.000 HD
ENDBRANCH  28  30
ENDBRANCH  25  28
ENDBRANCH  21  22
ENDBRANCH   4  21
TORSDOF 9
ENDMDL
MODEL 3
REMARK VINA RESULT:      -7.9      0.936      1.384
REMARK  Name = 
REMARK  12 active torsions:
REMARK  status: ('A' for Active; 'I' for Inactive)
REMARK    1  A    between atoms: C_1  and  O_2
REMARK    2  A    between atoms: O_2  and  C_3
REMARK    3  A    between atoms: C_5  and  O_6
REMARK    4  A    between atoms: O_6  and  C_7
REMARK    5  A    between atoms: C_7  and  C_8
REMARK    6  A    between atoms: C_15  and  N_16
REMARK    7  A    between atoms: C_19  and  O_20
REMARK    8  A    between atoms: O_20  and  C_21
REMARK    9  A    between atoms: C_24  and  C_25
REMARK   10  A    between atoms: C_25  and  C_26
REMARK   11  A    between atoms: C_25  and  N_27
REMARK   12  A    between atoms: C_28  and  C_29
REMARK                            x       y       z     vdW  Elec       q    Type
REMARK                         _______ _______ _______ _____ _____    ______ ____
ROOT
ATOM      1  N   UNL     1       3.575   5.990  19.595  0.00  0.00    +0.000 N 
ATOM      2  C   UNL     1       2.883   5.148  20.573  0.00  0.00    +0.000 C 
ATOM      3  C   UNL     1       1.413   5.513  20.408  0.00  0.00    +0.000 C 
ATOM      4  C   UNL     1       1.459   7.012  20.140  0.00  0.00    +0.000 C 
ATOM      5  C   UNL     1       2.714   7.137  19.243  0.00  0.00    +0.000 C 
ENDROOT
BRANCH   1  11
ATOM      6  C   UNL     1       5.697   5.182  18.622  0.00  0.00    +0.000 A 
ATOM      7  C   UNL     1       6.349   4.525  17.563  0.00  0.00    +0.000 A 
ATOM      8  C   UNL     1       5.613   4.043  16.487  0.00  0.00    +0.000 A 
ATOM      9  C   UNL     1       4.245   4.250  16.517  0.00  0.00    +0.000 A 
ATOM     10  N   UNL     1       3.586   4.878  17.519  0.00  0.00    +0.000 NA
ATOM     11  C   UNL     1       4.291   5.355  18.577  0.00  0.00    +0.000 A 
BRANCH   6  13
ATOM     12  C   UNL     1       7.784   5.722  19.642  0.00  0.00    +0.000 C 
ATOM     13  O   UNL     1       6.372   5.594  19.749  0.00  0.00    +0.000 OA
ENDBRANCH   6  13
BRANCH   8  14
ATOM     14  O   UNL     1       6.103   3.403  15.386  0.00  0.00    +0.000 OA
BRANCH  14  15
ATOM     15  C   UNL     1       5.994   4.093  14.141  0.00  0.00    +0.000 C 
BRANCH  15  16
ATOM     16  C   UNL     1       6.014   3.080  13.045  0.00  0.00    +0.000 C 
ATOM     17  C   UNL     1       5.269   3.329  11.746  0.00  0.00    +0.000 C 
ATOM     18  C   UNL     1       6.749   3.387  11.796  0.00  0.00    +0.000 C 
ATOM     19  F   UNL     1       7.500   2.421  11.171  0.00  0.00    +0.000 F 
ATOM     20  F   UNL     1       7.397   4.587  11.628  0.00  0.00    +0.000 F 
ENDBRANCH  15  16
ENDBRANCH  14  15
ENDBRANCH   8  14
ENDBRANCH   1  11
BRANCH   4  21
ATOM     21  O   UNL     1       1.657   7.764  21.346  0.00  0.00    +0.000 OA
BRANCH  21  22
ATOM     22  C   UNL     1       0.771   8.781  21.580  0.00  0.00    +0.000 A 
ATOM     23  C   UNL     1       0.189   9.068  22.811  0.00  0.00    +0.000 A 
ATOM     24  C   UNL     1      -0.645  10.184  22.960  0.00  0.00    +0.000 A 
ATOM     25  C   UNL     1      -0.921  11.023  21.875  0.00  0.00    +0.000 A 
ATOM     26  C   UNL     1      -0.340  10.715  20.629  0.00  0.00    +0.000 A 
ATOM     27  C   UNL     1       0.507   9.610  20.491  0.00  0.00    +0.000 A 
BRANCH  25  28
ATOM     28  C   UNL     1      -1.868  12.203  22.056  0.00  0.00    +0.000 C 
ATOM     29  C   UNL     1      -2.319  12.737  20.695  0.00  0.00    +0.000 C 
BRANCH  28  30
ATOM     30  N   UNL     1      -1.260  13.242  22.876  0.00  0.00    +0.000 N 
ATOM     31  C   UNL     1      -1.981  13.994  23.775  0.00  0.00    +0.000 C 
ATOM     32  C   UNL     1      -1.167  15.025  24.509  0.00  0.00    +0.000 C 
ATOM     33  O   UNL     1      -3.189  13.873  23.953  0.00  0.00    +0.000 OA
ATOM     34  H   UNL     1      -0.263  13.388  22.796  0.00  0.00    +0.000 HD
ENDBRANCH  28  30
ENDBRANCH  25  28
ENDBRANCH  21  22
ENDBRANCH   4  21
TORSDOF 9
ENDMDL
MODEL 4
REMARK VINA RESULT:      -7.6      1.593      2.250
REMARK  Name = 
REMARK  12 active torsions:
REMARK  status: ('A' for Active; 'I' for Inactive)
REMARK    1  A    between atoms: C_1  and  O_2
REMARK    2  A    between atoms: O_2  and  C_3
REMARK    3  A    between atoms: C_5  and  O_6
REMARK    4  A    between atoms: O_6  and  C_7
REMARK    5  A    between atoms: C_7  and  C_8
REMARK    6  A    between atoms: C_15  and  N_16
REMARK    7  A    between atoms: C_19  and  O_20
REMARK    8  A    between atoms: O_20  and  C_21
REMARK    9  A    between atoms: C_24  and  C_25
REMARK   10  A    between atoms: C_25  and  C_26
REMARK   11  A    between atoms: C_25  and  N_27
REMARK   12  A    between atoms: C_28  and  C_29
REMARK                            x       y       z     vdW  Elec       q    Type
REMARK                         _______ _______ _______ _____ _____    ______ ____
ROOT
ATOM      1  N   UNL     1       2.251   7.037  18.443  0.00  0.00    +0.000 N 
ATOM      2  C   UNL     1       1.738   8.125  17.609  0.00  0.00    +0.000 C 
ATOM      3  C   UNL     1       2.001   9.381  18.429  0.00  0.00    +0.000 C 
ATOM      4  C   UNL     1       1.738   8.922  19.858  0.00  0.00    +0.000 C 
ATOM      5  C   UNL     1       2.329   7.491  19.846  0.00  0.00    +0.000 C 
ENDROOT
BRANCH   1  11
ATOM      6  C   UNL     1       3.343   4.851  18.076  0.00  0.00    +0.000 A 
ATOM      7  C   UNL     1       4.424   4.135  17.530  0.00  0.00    +0.000 A 
ATOM      8  C   UNL     1       5.430   4.810  16.848  0.00  0.00    +0.000 A 
ATOM      9  C   UNL     1       5.311   6.185  16.750  0.00  0.00    +0.000 A 
ATOM     10  N   UNL     1       4.286   6.906  17.264  0.00  0.00    +0.000 NA
ATOM     11  C   UNL     1       3.296   6.261  17.934  0.00  0.00    +0.000 A 
BRANCH   6  13
ATOM     12  C   UNL     1       1.881   2.968  18.130  0.00  0.00    +0.000 C 
ATOM     13  O   UNL     1       2.280   4.218  18.679  0.00  0.00    +0.000 OA
ENDBRANCH   6  13
BRANCH   8  14
ATOM     14  O   UNL     1       6.541   4.258  16.280  0.00  0.00    +0.000 OA
BRANCH  14  15
ATOM     15  C   UNL     1       6.818   4.621  14.927  0.00  0.00    +0.000 C 
BRANCH  15  16
ATOM     16  C   UNL     1       6.157   3.624  14.034  0.00  0.00    +0.000 C 
ATOM     17  C   UNL     1       5.084   4.056  13.050  0.00  0.00    +0.000 C 
ATOM     18  C   UNL     1       6.434   3.666  12.579  0.00  0.00    +0.000 C 
ATOM     19  F   UNL     1       6.610   2.506  11.866  0.00  0.00    +0.000 F 
ATOM     20  F   UNL     1       7.276   4.612  12.043  0.00  0.00    +0.000 F 
ENDBRANCH  15  16
ENDBRANCH  14  15
ENDBRANCH   8  14
ENDBRANCH   1  11
BRANCH   4  21
ATOM     21  O   UNL     1       0.334   8.857  20.147  0.00  0.00    +0.000 OA
BRANCH  21  22
ATOM     22  C   UNL     1      -0.248  10.011  20.595  0.00  0.00    +0.000 A 
ATOM     23  C   UNL     1      -0.889  10.950  19.790  0.00  0.00    +0.000 A 
ATOM     24  C   UNL     1      -1.523  12.061  20.361  0.00  0.00    +0.000 A 
ATOM     25  C   UNL     1      -1.514  12.259  21.747  0.00  0.00    +0.000 A 
ATOM     26  C   UNL     1      -0.848  11.313  22.551  0.00  0.00    +0.000 A 
ATOM     27  C   UNL     1      -0.233  10.195  21.976  0.00  0.00    +0.000 A 
BRANCH  25  28
ATOM     28  C   UNL     1      -2.172  13.500  22.335  0.00  0.00    +0.000 C 
ATOM     29  C   UNL     1      -1.136  14.610  22.528  0.00  0.00    +0.000 C 
BRANCH  28  30
ATOM     30  N   UNL     1      -2.871  13.186  23.573  0.00  0.00    +0.000 N 
ATOM     31  C   UNL     1      -4.149  12.674  23.594  0.00  0.00    +0.000 C 
ATOM     32  C   UNL     1      -4.694  12.435  24.976  0.00  0.00    +0.000 C 
ATOM     33  O   UNL     1      -4.813  12.455  22.586  0.00  0.00    +0.000 OA
ATOM     34  H   UNL     1      -2.379  13.324  24.446  0.00  0.00    +0.000 HD
ENDBRANCH  28  30
ENDBRANCH  25  28
ENDBRANCH  21  22
ENDBRANCH   4  21
TORSDOF 9
ENDMDL
MODEL 5
REMARK VINA RESULT:      -7.5      1.484      2.259
REMARK  Name = 
REMARK  12 active torsions:
REMARK  status: ('A' for Active; 'I' for Inactive)
REMARK    1  A    between atoms: C_1  and  O_2
REMARK    2  A    between atoms: O_2  and  C_3
REMARK    3  A    between atoms: C_5  and  O_6
REMARK    4  A    between atoms: O_6  and  C_7
REMARK    5  A    between atoms: C_7  and  C_8
REMARK    6  A    between atoms: C_15  and  N_16
REMARK    7  A    between atoms: C_19  and  O_20
REMARK    8  A    between atoms: O_20  and  C_21
REMARK    9  A    between atoms: C_24  and  C_25
REMARK   10  A    between atoms: C_25  and  C_26
REMARK   11  A    between atoms: C_25  and  N_27
REMARK   12  A    between atoms: C_28  and  C_29
REMARK                            x       y       z     vdW  Elec       q    Type
REMARK                         _______ _______ _______ _____ _____    ______ ____
ROOT
ATOM      1  N   UNL     1       3.674   5.842  19.473  0.00  0.00    +0.000 N 
ATOM      2  C   UNL     1       2.969   4.948  20.393  0.00  0.00    +0.000 C 
ATOM      3  C   UNL     1       1.502   5.325  20.230  0.00  0.00    +0.000 C 
ATOM      4  C   UNL     1       1.553   6.837  20.046  0.00  0.00    +0.000 C 
ATOM      5  C   UNL     1       2.820   7.008  19.174  0.00  0.00    +0.000 C 
ENDROOT
BRANCH   1  11
ATOM      6  C   UNL     1       5.804   5.059  18.496  0.00  0.00    +0.000 A 
ATOM      7  C   UNL     1       6.469   4.462  17.409  0.00  0.00    +0.000 A 
ATOM      8  C   UNL     1       5.751   4.069  16.287  0.00  0.00    +0.000 A 
ATOM      9  C   UNL     1       4.387   4.300  16.299  0.00  0.00    +0.000 A 
ATOM     10  N   UNL     1       3.715   4.872  17.327  0.00  0.00    +0.000 NA
ATOM     11  C   UNL     1       4.403   5.263  18.430  0.00  0.00    +0.000 A 
BRANCH   6  13
ATOM     12  C   UNL     1       7.839   5.706  19.556  0.00  0.00    +0.000 C 
ATOM     13  O   UNL     1       6.459   5.381  19.663  0.00  0.00    +0.000 OA
ENDBRANCH   6  13
BRANCH   8  14
ATOM     14  O   UNL     1       6.255   3.495  15.156  0.00  0.00    +0.000 OA
BRANCH  14  15
ATOM     15  C   UNL     1       6.000   4.171  13.925  0.00  0.00    +0.000 C 
BRANCH  15  16
ATOM     16  C   UNL     1       5.261   3.237  13.026  0.00  0.00    +0.000 C 
ATOM     17  C   UNL     1       4.852   3.667  11.629  0.00  0.00    +0.000 C 
ATOM     18  C   UNL     1       5.949   2.692  11.832  0.00  0.00    +0.000 C 
ATOM     19  F   UNL     1       5.784   1.378  11.467  0.00  0.00    +0.000 F 
ATOM     20  F   UNL     1       7.245   3.043  11.536  0.00  0.00    +0.000 F 
ENDBRANCH  15  16
ENDBRANCH  14  15
ENDBRANCH   8  14
ENDBRANCH   1  11
BRANCH   4  21
ATOM     21  O   UNL     1       1.737   7.520  21.294  0.00  0.00    +0.000 OA
BRANCH  21  22
ATOM     22  C   UNL     1       1.026   8.678  21.462  0.00  0.00    +0.000 A 
ATOM     23  C   UNL     1       0.467   9.106  22.664  0.00  0.00    +0.000 A 
ATOM     24  C   UNL     1      -0.174  10.350  22.746  0.00  0.00    +0.000 A 
ATOM     25  C   UNL     1      -0.278  11.178  21.622  0.00  0.00    +0.000 A 
ATOM     26  C   UNL     1       0.275  10.728  20.408  0.00  0.00    +0.000 A 
ATOM     27  C   UNL     1       0.931   9.494  20.337  0.00  0.00    +0.000 A 
BRANCH  25  28
ATOM     28  C   UNL     1      -1.021  12.504  21.731  0.00  0.00    +0.000 C 
ATOM     29  C   UNL     1      -2.439  12.276  22.259  0.00  0.00    +0.000 C 
BRANCH  28  30
ATOM     30  N   UNL     1      -1.021  13.210  20.457  0.00  0.00    +0.000 N 
ATOM     31  C   UNL     1      -0.210  14.295  20.211  0.00  0.00    +0.000 C 
ATOM     32  C   UNL     1      -0.376  14.889  18.839  0.00  0.00    +0.000 C 
ATOM     33  O   UNL     1       0.563  14.771  21.036  0.00  0.00    +0.000 OA
ATOM     34  H   UNL     1      -1.621  12.864  19.721  0.00  0.00    +0.000 HD
ENDBRANCH  28  30
ENDBRANCH  25  28
ENDBRANCH  21  22
ENDBRANCH   4  21
TORSDOF 9
ENDMDL
MODEL 6
REMARK VINA RESULT:      -7.5      5.645      8.816
REMARK  Name = 
REMARK  12 active torsions:
REMARK  status: ('A' for Active; 'I' for Inactive)
REMARK    1  A    between atoms: C_1  and  O_2
REMARK    2  A    between atoms: O_2  and  C_3
REMARK    3  A    between atoms: C_5  and  O_6
REMARK    4  A    between atoms: O_6  and  C_7
REMARK    5  A    between atoms: C_7  and  C_8
REMARK    6  A    between atoms: C_15  and  N_16
REMARK    7  A    between atoms: C_19  and  O_20
REMARK    8  A    between atoms: O_20  and  C_21
REMARK    9  A    between atoms: C_24  and  C_25
REMARK   10  A    between atoms: C_25  and  C_26
REMARK   11  A    between atoms: C_25  and  N_27
REMARK   12  A    between atoms: C_28  and  C_29
REMARK                            x       y       z     vdW  Elec       q    Type
REMARK                         _______ _______ _______ _____ _____    ______ ____
ROOT
ATOM      1  N   UNL     1       5.328   6.519  17.038  0.00  0.00    +0.000 N 
ATOM      2  C   UNL     1       6.343   5.943  16.155  0.00  0.00    +0.000 C 
ATOM      3  C   UNL     1       7.589   5.852  17.026  0.00  0.00    +0.000 C 
ATOM      4  C   UNL     1       7.512   7.116  17.872  0.00  0.00    +0.000 C 
ATOM      5  C   UNL     1       5.993   7.214  18.158  0.00  0.00    +0.000 C 
ENDROOT
BRANCH   1  11
ATOM      6  C   UNL     1       3.001   6.318  17.844  0.00  0.00    +0.000 A 
ATOM      7  C   UNL     1       1.890   5.490  18.082  0.00  0.00    +0.000 A 
ATOM      8  C   UNL     1       1.956   4.135  17.782  0.00  0.00    +0.000 A 
ATOM      9  C   UNL     1       3.148   3.664  17.260  0.00  0.00    +0.000 A 
ATOM     10  N   UNL     1       4.238   4.432  17.019  0.00  0.00    +0.000 NA
ATOM     11  C   UNL     1       4.188   5.758  17.308  0.00  0.00    +0.000 A 
BRANCH   6  13
ATOM     12  C   UNL     1       1.826   8.186  18.749  0.00  0.00    +0.000 C 
ATOM     13  O   UNL     1       2.951   7.680  18.040  0.00  0.00    +0.000 OA
ENDBRANCH   6  13
BRANCH   8  14
ATOM     14  O   UNL     1       0.972   3.209  17.970  0.00  0.00    +0.000 OA
BRANCH  14  15
ATOM     15  C   UNL     1       1.132   2.318  19.074  0.00  0.00    +0.000 C 
BRANCH  15  16
ATOM     16  C   UNL     1       1.030   3.114  20.332  0.00  0.00    +0.000 C 
ATOM     17  C   UNL     1       1.359   2.487  21.675  0.00  0.00    +0.000 C 
ATOM     18  C   UNL     1       2.271   3.478  21.056  0.00  0.00    +0.000 C 
ATOM     19  F   UNL     1       2.417   4.725  21.612  0.00  0.00    +0.000 F 
ATOM     20  F   UNL     1       3.505   3.084  20.594  0.00  0.00    +0.000 F 
ENDBRANCH  15  16
ENDBRANCH  14  15
ENDBRANCH   8  14
ENDBRANCH   1  11
BRANCH   4  21
ATOM     21  O   UNL     1       7.935   8.274  17.140  0.00  0.00    +0.000 OA
BRANCH  21  22
ATOM     22  C   UNL     1       8.381   9.333  17.884  0.00  0.00    +0.000 A 
ATOM     23  C   UNL     1       9.057   9.231  19.097  0.00  0.00    +0.000 A 
ATOM     24  C   UNL     1       9.542  10.379  19.740  0.00  0.00    +0.000 A 
ATOM     25  C   UNL     1       9.344  11.649  19.185  0.00  0.00    +0.000 A 
ATOM     26  C   UNL     1       8.644  11.743  17.966  0.00  0.00    +0.000 A 
ATOM     27  C   UNL     1       8.179  10.592  17.320  0.00  0.00    +0.000 A 
BRANCH  25  28
ATOM     28  C   UNL     1       9.842  12.881  19.929  0.00  0.00    +0.000 C 
ATOM     29  C   UNL     1       9.656  12.702  21.437  0.00  0.00    +0.000 C 
BRANCH  28  30
ATOM     30  N   UNL     1       9.190  14.088  19.440  0.00  0.00    +0.000 N 
ATOM     31  C   UNL     1       9.883  15.243  19.158  0.00  0.00    +0.000 C 
ATOM     32  C   UNL     1       9.020  16.378  18.679  0.00  0.00    +0.000 C 
ATOM     33  O   UNL     1      11.094  15.367  19.308  0.00  0.00    +0.000 OA
ATOM     34  H   UNL     1       8.193  14.056  19.274  0.00  0.00    +0.000 HD
ENDBRANCH  28  30
ENDBRANCH  25  28
ENDBRANCH  21  22
ENDBRANCH   4  21
TORSDOF 9
ENDMDL
MODEL 7
REMARK VINA RESULT:      -7.4      1.199      1.650
REMARK  Name = 
REMARK  12 active torsions:
REMARK  status: ('A' for Active; 'I' for Inactive)
REMARK    1  A    between atoms: C_1  and  O_2
REMARK    2  A    between atoms: O_2  and  C_3
REMARK    3  A    between atoms: C_5  and  O_6
REMARK    4  A    between atoms: O_6  and  C_7
REMARK    5  A    between atoms: C_7  and  C_8
REMARK    6  A    between atoms: C_15  and  N_16
REMARK    7  A    between atoms: C_19  and  O_20
REMARK    8  A    between atoms: O_20  and  C_21
REMARK    9  A    between atoms: C_24  and  C_25
REMARK   10  A    between atoms: C_25  and  C_26
REMARK   11  A    between atoms: C_25  and  N_27
REMARK   12  A    between atoms: C_28  and  C_29
REMARK                            x       y       z     vdW  Elec       q    Type
REMARK                         _______ _______ _______ _____ _____    ______ ____
ROOT
ATOM      1  N   UNL     1       3.497   5.923  19.671  0.00  0.00    +0.000 N 
ATOM      2  C   UNL     1       2.698   5.067  20.550  0.00  0.00    +0.000 C 
ATOM      3  C   UNL     1       1.271   5.566  20.364  0.00  0.00    +0.000 C 
ATOM      4  C   UNL     1       1.448   7.072  20.223  0.00  0.00    +0.000 C 
ATOM      5  C   UNL     1       2.747   7.162  19.385  0.00  0.00    +0.000 C 
ENDROOT
BRANCH   1  11
ATOM      6  C   UNL     1       5.617   5.244  18.601  0.00  0.00    +0.000 A 
ATOM      7  C   UNL     1       6.258   4.608  17.523  0.00  0.00    +0.000 A 
ATOM      8  C   UNL     1       5.503   4.043  16.502  0.00  0.00    +0.000 A 
ATOM      9  C   UNL     1       4.128   4.151  16.603  0.00  0.00    +0.000 A 
ATOM     10  N   UNL     1       3.478   4.757  17.625  0.00  0.00    +0.000 NA
ATOM     11  C   UNL     1       4.202   5.314  18.630  0.00  0.00    +0.000 A 
BRANCH   6  13
ATOM     12  C   UNL     1       7.738   5.671  19.605  0.00  0.00    +0.000 C 
ATOM     13  O   UNL     1       6.319   5.736  19.678  0.00  0.00    +0.000 OA
ENDBRANCH   6  13
BRANCH   8  14
ATOM     14  O   UNL     1       5.980   3.410  15.391  0.00  0.00    +0.000 OA
BRANCH  14  15
ATOM     15  C   UNL     1       5.897   4.126  14.159  0.00  0.00    +0.000 C 
BRANCH  15  16
ATOM     16  C   UNL     1       5.213   3.254  13.160  0.00  0.00    +0.000 C 
ATOM     17  C   UNL     1       4.773   3.811  11.818  0.00  0.00    +0.000 C 
ATOM     18  C   UNL     1       5.929   2.889  11.914  0.00  0.00    +0.000 C 
ATOM     19  F   UNL     1       5.843   1.616  11.405  0.00  0.00    +0.000 F 
ATOM     20  F   UNL     1       7.200   3.350  11.663  0.00  0.00    +0.000 F 
ENDBRANCH  15  16
ENDBRANCH  14  15
ENDBRANCH   8  14
ENDBRANCH   1  11
BRANCH   4  21
ATOM     21  O   UNL     1       1.655   7.706  21.493  0.00  0.00    +0.000 OA
BRANCH  21  22
ATOM     22  C   UNL     1       0.979   8.877  21.704  0.00  0.00    +0.000 A 
ATOM     23  C   UNL     1       1.047  10.001  20.884  0.00  0.00    +0.000 A 
ATOM     24  C   UNL     1       0.249  11.123  21.147  0.00  0.00    +0.000 A 
ATOM     25  C   UNL     1      -0.618  11.143  22.245  0.00  0.00    +0.000 A 
ATOM     26  C   UNL     1      -0.667  10.009  23.079  0.00  0.00    +0.000 A 
ATOM     27  C   UNL     1       0.117   8.884  22.799  0.00  0.00    +0.000 A 
BRANCH  25  28
ATOM     28  C   UNL     1      -1.438  12.395  22.533  0.00  0.00    +0.000 C 
ATOM     29  C   UNL     1      -2.694  12.421  21.659  0.00  0.00    +0.000 C 
BRANCH  28  30
ATOM     30  N   UNL     1      -0.634  13.598  22.366  0.00  0.00    +0.000 N 
ATOM     31  C   UNL     1      -0.694  14.658  23.243  0.00  0.00    +0.000 C 
ATOM     32  C   UNL     1       0.206  15.808  22.880  0.00  0.00    +0.000 C 
ATOM     33  O   UNL     1      -1.433  14.694  24.221  0.00  0.00    +0.000 OA
ATOM     34  H   UNL     1       0.014  13.634  21.591  0.00  0.00    +0.000 HD
ENDBRANCH  28  30
ENDBRANCH  25  28
ENDBRANCH  21  22
ENDBRANCH   4  21
TORSDOF 9
ENDMDL
MODEL 8
REMARK VINA RESULT:      -7.4      2.157      2.681
REMARK  Name = 
REMARK  12 active torsions:
REMARK  status: ('A' for Active; 'I' for Inactive)
REMARK    1  A    between atoms: C_1  and  O_2
REMARK    2  A    between atoms: O_2  and  C_3
REMARK    3  A    between atoms: C_5  and  O_6
REMARK    4  A    between atoms: O_6  and  C_7
REMARK    5  A    between atoms: C_7  and  C_8
REMARK    6  A    between atoms: C_15  and  N_16
REMARK    7  A    between atoms: C_19  and  O_20
REMARK    8  A    between atoms: O_20  and  C_21
REMARK    9  A    between atoms: C_24  and  C_25
REMARK   10  A    between atoms: C_25  and  C_26
REMARK   11  A    between atoms: C_25  and  N_27
REMARK   12  A    between atoms: C_28  and  C_29
REMARK                            x       y       z     vdW  Elec       q    Type
REMARK                         _______ _______ _______ _____ _____    ______ ____
ROOT
ATOM      1  N   UNL     1       3.963   6.495  18.527  0.00  0.00    +0.000 N 
ATOM      2  C   UNL     1       3.556   5.732  19.708  0.00  0.00    +0.000 C 
ATOM      3  C   UNL     1       2.034   5.779  19.678  0.00  0.00    +0.000 C 
ATOM      4  C   UNL     1       1.743   7.186  19.169  0.00  0.00    +0.000 C 
ATOM      5  C   UNL     1       2.855   7.376  18.109  0.00  0.00    +0.000 C 
ENDROOT
BRANCH   1  11
ATOM      6  C   UNL     1       5.882   6.363  16.976  0.00  0.00    +0.000 A 
ATOM      7  C   UNL     1       6.571   5.631  15.991  0.00  0.00    +0.000 A 
ATOM      8  C   UNL     1       6.093   4.391  15.587  0.00  0.00    +0.000 A 
ATOM      9  C   UNL     1       4.930   3.939  16.185  0.00  0.00    +0.000 A 
ATOM     10  N   UNL     1       4.241   4.616  17.134  0.00  0.00    +0.000 NA
ATOM     11  C   UNL     1       4.695   5.830  17.540  0.00  0.00    +0.000 A 
BRANCH   6  13
ATOM     12  C   UNL     1       7.773   7.641  17.666  0.00  0.00    +0.000 C 
ATOM     13  O   UNL     1       6.367   7.551  17.474  0.00  0.00    +0.000 OA
ENDBRANCH   6  13
BRANCH   8  14
ATOM     14  O   UNL     1       6.640   3.577  14.638  0.00  0.00    +0.000 OA
BRANCH  14  15
ATOM     15  C   UNL     1       6.442   3.957  13.275  0.00  0.00    +0.000 C 
BRANCH  15  16
ATOM     16  C   UNL     1       5.481   2.994  12.660  0.00  0.00    +0.000 C 
ATOM     17  C   UNL     1       4.943   3.225  11.260  0.00  0.00    +0.000 C 
ATOM     18  C   UNL     1       5.932   2.154  11.526  0.00  0.00    +0.000 C 
ATOM     19  F   UNL     1       5.562   0.834  11.442  0.00  0.00    +0.000 F 
ATOM     20  F   UNL     1       7.209   2.258  11.028  0.00  0.00    +0.000 F 
ENDBRANCH  15  16
ENDBRANCH  14  15
ENDBRANCH   8  14
ENDBRANCH   1  11
BRANCH   4  21
ATOM     21  O   UNL     1       1.895   8.169  20.202  0.00  0.00    +0.000 OA
BRANCH  21  22
ATOM     22  C   UNL     1       1.092   9.274  20.111  0.00  0.00    +0.000 A 
ATOM     23  C   UNL     1       0.920  10.046  18.965  0.00  0.00    +0.000 A 
ATOM     24  C   UNL     1       0.010  11.113  18.957  0.00  0.00    +0.000 A 
ATOM     25  C   UNL     1      -0.731  11.431  20.100  0.00  0.00    +0.000 A 
ATOM     26  C   UNL     1      -0.537  10.655  21.260  0.00  0.00    +0.000 A 
ATOM     27  C   UNL     1       0.358   9.580  21.256  0.00  0.00    +0.000 A 
BRANCH  25  28
ATOM     28  C   UNL     1      -1.678  12.625  20.075  0.00  0.00    +0.000 C 
ATOM     29  C   UNL     1      -3.079  12.183  19.647  0.00  0.00    +0.000 C 
BRANCH  28  30
ATOM     30  N   UNL     1      -1.158  13.687  19.225  0.00  0.00    +0.000 N 
ATOM     31  C   UNL     1      -0.628  14.852  19.734  0.00  0.00    +0.000 C 
ATOM     32  C   UNL     1      -0.162  15.826  18.686  0.00  0.00    +0.000 C 
ATOM     33  O   UNL     1      -0.562  15.106  20.932  0.00  0.00    +0.000 OA
ATOM     34  H   UNL     1      -1.163  13.542  18.225  0.00  0.00    +0.000 HD
ENDBRANCH  28  30
ENDBRANCH  25  28
ENDBRANCH  21  22
ENDBRANCH   4  21
TORSDOF 9
ENDMDL
MODEL 9
REMARK VINA RESULT:      -7.3      4.822     10.993
REMARK  Name = 
REMARK  12 active torsions:
REMARK  status: ('A' for Active; 'I' for Inactive)
REMARK    1  A    between atoms: C_1  and  O_2
REMARK    2  A    between atoms: O_2  and  C_3
REMARK    3  A    between atoms: C_5  and  O_6
REMARK    4  A    between atoms: O_6  and  C_7
REMARK    5  A    between atoms: C_7  and  C_8
REMARK    6  A    between atoms: C_15  and  N_16
REMARK    7  A    between atoms: C_19  and  O_20
REMARK    8  A    between atoms: O_20  and  C_21
REMARK    9  A    between atoms: C_24  and  C_25
REMARK   10  A    between atoms: C_25  and  C_26
REMARK   11  A    between atoms: C_25  and  N_27
REMARK   12  A    between atoms: C_28  and  C_29
REMARK                            x       y       z     vdW  Elec       q    Type
REMARK                         _______ _______ _______ _____ _____    ______ ____
ROOT
ATOM      1  N   UNL     1      -0.016   9.740  20.358  0.00  0.00    +0.000 N 
ATOM      2  C   UNL     1      -0.179   9.488  21.791  0.00  0.00    +0.000 C 
ATOM      3  C   UNL     1       1.189   8.994  22.242  0.00  0.00    +0.000 C 
ATOM      4  C   UNL     1       1.660   8.154  21.062  0.00  0.00    +0.000 C 
ATOM      5  C   UNL     1       1.148   8.982  19.858  0.00  0.00    +0.000 C 
ENDROOT
BRANCH   1  11
ATOM      6  C   UNL     1      -0.897  11.340  18.694  0.00  0.00    +0.000 A 
ATOM      7  C   UNL     1      -1.061  12.680  18.299  0.00  0.00    +0.000 A 
ATOM      8  C   UNL     1      -0.560  13.704  19.093  0.00  0.00    +0.000 A 
ATOM      9  C   UNL     1       0.098  13.336  20.254  0.00  0.00    +0.000 A 
ATOM     10  N   UNL     1       0.274  12.058  20.664  0.00  0.00    +0.000 NA
ATOM     11  C   UNL     1      -0.210  11.046  19.899  0.00  0.00    +0.000 A 
BRANCH   6  13
ATOM     12  C   UNL     1      -2.284  10.642  16.884  0.00  0.00    +0.000 C 
ATOM     13  O   UNL     1      -1.455  10.299  17.987  0.00  0.00    +0.000 OA
ENDBRANCH   6  13
BRANCH   8  14
ATOM     14  O   UNL     1      -0.627  15.042  18.836  0.00  0.00    +0.000 OA
BRANCH  14  15
ATOM     15  C   UNL     1       0.614  15.746  18.769  0.00  0.00    +0.000 C 
BRANCH  15  16
ATOM     16  C   UNL     1       0.333  17.140  18.317  0.00  0.00    +0.000 C 
ATOM     17  C   UNL     1       1.182  18.299  18.805  0.00  0.00    +0.000 C 
ATOM     18  C   UNL     1       1.295  17.811  17.411  0.00  0.00    +0.000 C 
ATOM     19  F   UNL     1       0.851  18.587  16.368  0.00  0.00    +0.000 F 
ATOM     20  F   UNL     1       2.441  17.175  16.994  0.00  0.00    +0.000 F 
ENDBRANCH  15  16
ENDBRANCH  14  15
ENDBRANCH   8  14
ENDBRANCH   1  11
BRANCH   4  21
ATOM     21  O   UNL     1       1.040   6.860  21.048  0.00  0.00    +0.000 OA
BRANCH  21  22
ATOM     22  C   UNL     1       1.662   5.897  20.300  0.00  0.00    +0.000 A 
ATOM     23  C   UNL     1       1.162   4.619  20.064  0.00  0.00    +0.000 A 
ATOM     24  C   UNL     1       1.841   3.735  19.215  0.00  0.00    +0.000 A 
ATOM     25  C   UNL     1       3.041   4.112  18.600  0.00  0.00    +0.000 A 
ATOM     26  C   UNL     1       3.547   5.400  18.858  0.00  0.00    +0.000 A 
ATOM     27  C   UNL     1       2.854   6.285  19.692  0.00  0.00    +0.000 A 
BRANCH  25  28
ATOM     28  C   UNL     1       3.781   3.113  17.719  0.00  0.00    +0.000 C 
ATOM     29  C   UNL     1       3.620   1.695  18.273  0.00  0.00    +0.000 C 
BRANCH  28  30
ATOM     30  N   UNL     1       5.181   3.484  17.570  0.00  0.00    +0.000 N 
ATOM     31  C   UNL     1       5.665   4.115  16.446  0.00  0.00    +0.000 C 
ATOM     32  C   UNL     1       7.143   4.396  16.485  0.00  0.00    +0.000 C 
ATOM     33  O   UNL     1       4.974   4.404  15.474  0.00  0.00    +0.000 OA
ATOM     34  H   UNL     1       5.809   3.293  18.339  0.00  0.00    +0.000 HD
ENDBRANCH  28  30
ENDBRANCH  25  28
ENDBRANCH  21  22
ENDBRANCH   4  21
TORSDOF 9
ENDMDL
