MODEL 1
REMARK VINA RESULT:      -8.0      0.000      0.000
REMARK  Name = 
REMARK  9 active torsions:
REMARK  status: ('A' for Active; 'I' for Inactive)
REMARK    1  A    between atoms: C_1  and  C_2
REMARK    2  A    between atoms: C_7  and  C_8
REMARK    3  A    between atoms: C_8  and  O_9
REMARK    4  A    between atoms: C_8  and  C_26
REMARK    5  A    between atoms: O_9  and  C_10
REMARK    6  A    between atoms: C_12  and  O_13
REMARK    7  A    between atoms: O_13  and  C_14
REMARK    8  A    between atoms: C_14  and  C_15
REMARK    9  A    between atoms: C_23  and  C_24
REMARK                            x       y       z     vdW  Elec       q    Type
REMARK                         _______ _______ _______ _____ _____    ______ ____
ROOT
ATOM      1  C   UNL     1       2.348   5.236  19.240  0.00  0.00    +0.000 A 
ATOM      2  C   UNL     1       2.539   6.468  18.592  0.00  0.00    +0.000 A 
ATOM      3  C   UNL     1       2.158   7.672  19.206  0.00  0.00    +0.000 A 
ATOM      4  C   UNL     1       1.523   7.628  20.449  0.00  0.00    +0.000 A 
ATOM      5  C   UNL     1       1.413   6.418  21.138  0.00  0.00    +0.000 A 
ATOM      6  C   UNL     1       1.900   5.242  20.571  0.00  0.00    +0.000 A 
ENDROOT
BRANCH   6   7
ATOM      7  C   UNL     1       2.076   4.104  21.420  0.00  0.00    +0.000 C 
ATOM      8  N   UNL     1       2.154   3.080  21.968  0.00  0.00    +0.000 NA
ENDBRANCH   6   7
BRANCH   1   9
ATOM      9  O   UNL     1       2.679   4.105  18.511  0.00  0.00    +0.000 OA
BRANCH   9  10
ATOM     10  C   UNL     1       4.057   3.653  18.661  0.00  0.00    +0.000 C 
BRANCH  10  17
ATOM     11  C   UNL     1       6.602   5.355  19.329  0.00  0.00    +0.000 C 
ATOM     12  C   UNL     1       6.306   4.795  17.966  0.00  0.00    +0.000 A 
ATOM     13  C   UNL     1       7.286   4.939  16.962  0.00  0.00    +0.000 A 
ATOM     14  C   UNL     1       7.056   4.520  15.651  0.00  0.00    +0.000 A 
ATOM     15  C   UNL     1       5.824   3.986  15.307  0.00  0.00    +0.000 A 
ATOM     16  C   UNL     1       4.851   3.817  16.292  0.00  0.00    +0.000 A 
ATOM     17  C   UNL     1       5.089   4.164  17.647  0.00  0.00    +0.000 A 
ENDBRANCH  10  17
BRANCH  10  18
ATOM     18  C   UNL     1       4.203   2.173  19.080  0.00  0.00    +0.000 C 
ATOM     19  O   UNL     1       3.629   1.312  18.373  0.00  0.00    +0.000 OA
ATOM     20  O   UNL     1       4.932   2.036  20.117  0.00  0.00    +0.000 OA
ENDBRANCH  10  18
ENDBRANCH   9  10
ENDBRANCH   1   9
BRANCH   3  21
ATOM     21  O   UNL     1       2.492   8.823  18.535  0.00  0.00    +0.000 OA
BRANCH  21  22
ATOM     22  C   UNL     1       1.483   9.380  17.687  0.00  0.00    +0.000 C 
BRANCH  22  23
ATOM     23  C   UNL     1       0.590  10.350  18.425  0.00  0.00    +0.000 A 
ATOM     24  C   UNL     1      -0.800  10.267  18.276  0.00  0.00    +0.000 A 
ATOM     25  C   UNL     1      -1.607  11.096  19.038  0.00  0.00    +0.000 A 
ATOM     26  N   UNL     1      -1.133  11.982  19.940  0.00  0.00    +0.000 NA
ATOM     27  C   UNL     1       0.209  12.041  20.079  0.00  0.00    +0.000 A 
ATOM     28  C   UNL     1       1.099  11.253  19.362  0.00  0.00    +0.000 A 
ENDBRANCH  22  23
ENDBRANCH  21  22
ENDBRANCH   3  21
TORSDOF 8
ENDMDL
MODEL 2
REMARK VINA RESULT:      -7.9      0.983      1.491
REMARK  Name = 
REMARK  9 active torsions:
REMARK  status: ('A' for Active; 'I' for Inactive)
REMARK    1  A    between atoms: C_1  and  C_2
REMARK    2  A    between atoms: C_7  and  C_8
REMARK    3  A    between atoms: C_8  and  O_9
REMARK    4  A    between atoms: C_8  and  C_26
REMARK    5  A    between atoms: O_9  and  C_10
REMARK    6  A    between atoms: C_12  and  O_13
REMARK    7  A    between atoms: O_13  and  C_14
REMARK    8  A    between atoms: C_14  and  C_15
REMARK    9  A    between atoms: C_23  and  C_24
REMARK                            x       y       z     vdW  Elec       q    Type
REMARK                         _______ _______ _______ _____ _____    ______ ____
ROOT
ATOM      1  C   UNL     1       2.350   5.323  19.127  0.00  0.00    +0.000 A 
ATOM      2  C   UNL     1       2.561   6.518  18.420  0.00  0.00    +0.000 A 
ATOM      3  C   UNL     1       2.198   7.756  18.973  0.00  0.00    +0.000 A 
ATOM      4  C   UNL     1       1.562   7.784  20.216  0.00  0.00    +0.000 A 
ATOM      5  C   UNL     1       1.431   6.610  20.963  0.00  0.00    +0.000 A 
ATOM      6  C   UNL     1       1.900   5.401  20.455  0.00  0.00    +0.000 A 
ENDROOT
BRANCH   6   7
ATOM      7  C   UNL     1       2.057   4.302  21.359  0.00  0.00    +0.000 C 
ATOM      8  N   UNL     1       2.282   3.331  21.959  0.00  0.00    +0.000 NA
ENDBRANCH   6   7
BRANCH   1   9
ATOM      9  O   UNL     1       2.664   4.153  18.455  0.00  0.00    +0.000 OA
BRANCH   9  10
ATOM     10  C   UNL     1       4.036   3.690  18.624  0.00  0.00    +0.000 C 
BRANCH  10  17
ATOM     11  C   UNL     1       6.649   5.276  19.318  0.00  0.00    +0.000 C 
ATOM     12  C   UNL     1       6.325   4.758  17.944  0.00  0.00    +0.000 A 
ATOM     13  C   UNL     1       7.306   4.887  16.939  0.00  0.00    +0.000 A 
ATOM     14  C   UNL     1       7.055   4.507  15.620  0.00  0.00    +0.000 A 
ATOM     15  C   UNL     1       5.802   4.030  15.270  0.00  0.00    +0.000 A 
ATOM     16  C   UNL     1       4.827   3.877  16.255  0.00  0.00    +0.000 A 
ATOM     17  C   UNL     1       5.084   4.183  17.617  0.00  0.00    +0.000 A 
ENDBRANCH  10  17
BRANCH  10  18
ATOM     18  C   UNL     1       4.165   2.213  19.057  0.00  0.00    +0.000 C 
ATOM     19  O   UNL     1       4.920   1.957  20.026  0.00  0.00    +0.000 OA
ATOM     20  O   UNL     1       3.443   1.438  18.349  0.00  0.00    +0.000 OA
ENDBRANCH  10  18
ENDBRANCH   9  10
ENDBRANCH   1   9
BRANCH   3  21
ATOM     21  O   UNL     1       2.552   8.869  18.249  0.00  0.00    +0.000 OA
BRANCH  21  22
ATOM     22  C   UNL     1       1.492   9.766  17.906  0.00  0.00    +0.000 C 
BRANCH  22  23
ATOM     23  C   UNL     1       1.638  11.106  18.589  0.00  0.00    +0.000 A 
ATOM     24  C   UNL     1       2.495  12.072  18.049  0.00  0.00    +0.000 A 
ATOM     25  C   UNL     1       2.538  13.330  18.629  0.00  0.00    +0.000 A 
ATOM     26  N   UNL     1       1.786  13.694  19.689  0.00  0.00    +0.000 NA
ATOM     27  C   UNL     1       0.956  12.753  20.190  0.00  0.00    +0.000 A 
ATOM     28  C   UNL     1       0.842  11.468  19.680  0.00  0.00    +0.000 A 
ENDBRANCH  22  23
ENDBRANCH  21  22
ENDBRANCH   3  21
TORSDOF 8
ENDMDL
MODEL 3
REMARK VINA RESULT:      -7.7      2.197      3.180
REMARK  Name = 
REMARK  9 active torsions:
REMARK  status: ('A' for Active; 'I' for Inactive)
REMARK    1  A    between atoms: C_1  and  C_2
REMARK    2  A    between atoms: C_7  and  C_8
REMARK    3  A    between atoms: C_8  and  O_9
REMARK    4  A    between atoms: C_8  and  C_26
REMARK    5  A    between atoms: O_9  and  C_10
REMARK    6  A    between atoms: C_12  and  O_13
REMARK    7  A    between atoms: O_13  and  C_14
REMARK    8  A    between atoms: C_14  and  C_15
REMARK    9  A    between atoms: C_23  and  C_24
REMARK                            x       y       z     vdW  Elec       q    Type
REMARK                         _______ _______ _______ _____ _____    ______ ____
ROOT
ATOM      1  C   UNL     1       3.918   4.115  19.569  0.00  0.00    +0.000 A 
ATOM      2  C   UNL     1       3.257   5.199  20.170  0.00  0.00    +0.000 A 
ATOM      3  C   UNL     1       1.858   5.301  20.131  0.00  0.00    +0.000 A 
ATOM      4  C   UNL     1       1.127   4.340  19.428  0.00  0.00    +0.000 A 
ATOM      5  C   UNL     1       1.768   3.214  18.908  0.00  0.00    +0.000 A 
ATOM      6  C   UNL     1       3.145   3.062  19.052  0.00  0.00    +0.000 A 
ENDROOT
BRANCH   6   7
ATOM      7  C   UNL     1       3.713   1.770  18.814  0.00  0.00    +0.000 C 
ATOM      8  N   UNL     1       4.337   0.806  18.621  0.00  0.00    +0.000 NA
ENDBRANCH   6   7
BRANCH   1   9
ATOM      9  O   UNL     1       5.303   4.156  19.590  0.00  0.00    +0.000 OA
BRANCH   9  10
ATOM     10  C   UNL     1       5.904   5.216  18.790  0.00  0.00    +0.000 C 
BRANCH  10  17
ATOM     11  C   UNL     1       4.162   7.168  17.064  0.00  0.00    +0.000 C 
ATOM     12  C   UNL     1       5.064   6.116  16.481  0.00  0.00    +0.000 A 
ATOM     13  C   UNL     1       5.229   6.085  15.081  0.00  0.00    +0.000 A 
ATOM     14  C   UNL     1       5.983   5.091  14.456  0.00  0.00    +0.000 A 
ATOM     15  C   UNL     1       6.553   4.081  15.216  0.00  0.00    +0.000 A 
ATOM     16  C   UNL     1       6.417   4.108  16.603  0.00  0.00    +0.000 A 
ATOM     17  C   UNL     1       5.720   5.151  17.268  0.00  0.00    +0.000 A 
ENDBRANCH  10  17
BRANCH  10  18
ATOM     18  C   UNL     1       7.295   5.678  19.279  0.00  0.00    +0.000 C 
ATOM     19  O   UNL     1       7.933   6.471  18.547  0.00  0.00    +0.000 OA
ATOM     20  O   UNL     1       7.598   5.178  20.412  0.00  0.00    +0.000 OA
ENDBRANCH  10  18
ENDBRANCH   9  10
ENDBRANCH   1   9
BRANCH   3  21
ATOM     21  O   UNL     1       1.308   6.337  20.845  0.00  0.00    +0.000 OA
BRANCH  21  22
ATOM     22  C   UNL     1       2.023   7.576  20.820  0.00  0.00    +0.000 C 
BRANCH  22  23
ATOM     23  C   UNL     1       1.241   8.670  20.130  0.00  0.00    +0.000 A 
ATOM     24  C   UNL     1       1.473   8.943  18.777  0.00  0.00    +0.000 A 
ATOM     25  C   UNL     1       0.676   9.878  18.135  0.00  0.00    +0.000 A 
ATOM     26  N   UNL     1      -0.333  10.542  18.736  0.00  0.00    +0.000 NA
ATOM     27  C   UNL     1      -0.551  10.258  20.038  0.00  0.00    +0.000 A 
ATOM     28  C   UNL     1       0.192   9.339  20.767  0.00  0.00    +0.000 A 
ENDBRANCH  22  23
ENDBRANCH  21  22
ENDBRANCH   3  21
TORSDOF 8
ENDMDL
MODEL 4
REMARK VINA RESULT:      -7.6      0.666      1.747
REMARK  Name = 
REMARK  9 active torsions:
REMARK  status: ('A' for Active; 'I' for Inactive)
REMARK    1  A    between atoms: C_1  and  C_2
REMARK    2  A    between atoms: C_7  and  C_8
REMARK    3  A    between atoms: C_8  and  O_9
REMARK    4  A    between atoms: C_8  and  C_26
REMARK    5  A    between atoms: O_9  and  C_10
REMARK    6  A    between atoms: C_12  and  O_13
REMARK    7  A    between atoms: O_13  and  C_14
REMARK    8  A    between atoms: C_14  and  C_15
REMARK    9  A    between atoms: C_23  and  C_24
REMARK                            x       y       z     vdW  Elec       q    Type
REMARK                         _______ _______ _______ _____ _____    ______ ____
ROOT
ATOM      1  C   UNL     1       2.424   5.483  19.257  0.00  0.00    +0.000 A 
ATOM      2  C   UNL     1       2.570   6.775  18.725  0.00  0.00    +0.000 A 
ATOM      3  C   UNL     1       2.028   7.890  19.383  0.00  0.00    +0.000 A 
ATOM      4  C   UNL     1       1.281   7.695  20.547  0.00  0.00    +0.000 A 
ATOM      5  C   UNL     1       1.209   6.428  21.129  0.00  0.00    +0.000 A 
ATOM      6  C   UNL     1       1.849   5.345  20.531  0.00  0.00    +0.000 A 
ENDROOT
BRANCH   6   7
ATOM      7  C   UNL     1       2.039   4.157  21.308  0.00  0.00    +0.000 C 
ATOM      8  N   UNL     1       2.268   3.304  22.066  0.00  0.00    +0.000 NA
ENDBRANCH   6   7
BRANCH   1   9
ATOM      9  O   UNL     1       2.921   4.445  18.486  0.00  0.00    +0.000 OA
BRANCH   9  10
ATOM     10  C   UNL     1       4.215   3.923  18.909  0.00  0.00    +0.000 C 
BRANCH  10  17
ATOM     11  C   UNL     1       4.990   4.086  15.877  0.00  0.00    +0.000 C 
ATOM     12  C   UNL     1       5.742   4.792  16.972  0.00  0.00    +0.000 A 
ATOM     13  C   UNL     1       6.778   5.674  16.602  0.00  0.00    +0.000 A 
ATOM     14  C   UNL     1       7.576   6.305  17.557  0.00  0.00    +0.000 A 
ATOM     15  C   UNL     1       7.381   6.033  18.903  0.00  0.00    +0.000 A 
ATOM     16  C   UNL     1       6.347   5.180  19.286  0.00  0.00    +0.000 A 
ATOM     17  C   UNL     1       5.473   4.588  18.337  0.00  0.00    +0.000 A 
ENDBRANCH  10  17
BRANCH  10  18
ATOM     18  C   UNL     1       4.271   2.385  19.046  0.00  0.00    +0.000 C 
ATOM     19  O   UNL     1       3.691   1.703  18.167  0.00  0.00    +0.000 OA
ATOM     20  O   UNL     1       4.941   2.015  20.066  0.00  0.00    +0.000 OA
ENDBRANCH  10  18
ENDBRANCH   9  10
ENDBRANCH   1   9
BRANCH   3  21
ATOM     21  O   UNL     1       2.324   9.116  18.837  0.00  0.00    +0.000 OA
BRANCH  21  22
ATOM     22  C   UNL     1       1.443   9.586  17.814  0.00  0.00    +0.000 C 
BRANCH  22  23
ATOM     23  C   UNL     1       0.214  10.255  18.384  0.00  0.00    +0.000 A 
ATOM     24  C   UNL     1       0.349  11.195  19.413  0.00  0.00    +0.000 A 
ATOM     25  C   UNL     1      -0.777  11.873  19.854  0.00  0.00    +0.000 A 
ATOM     26  N   UNL     1      -2.010  11.695  19.336  0.00  0.00    +0.000 NA
ATOM     27  C   UNL     1      -2.120  10.794  18.337  0.00  0.00    +0.000 A 
ATOM     28  C   UNL     1      -1.054  10.065  17.828  0.00  0.00    +0.000 A 
ENDBRANCH  22  23
ENDBRANCH  21  22
ENDBRANCH   3  21
TORSDOF 8
ENDMDL
MODEL 5
REMARK VINA RESULT:      -7.4      0.570      1.475
REMARK  Name = 
REMARK  9 active torsions:
REMARK  status: ('A' for Active; 'I' for Inactive)
REMARK    1  A    between atoms: C_1  and  C_2
REMARK    2  A    between atoms: C_7  and  C_8
REMARK    3  A    between atoms: C_8  and  O_9
REMARK    4  A    between atoms: C_8  and  C_26
REMARK    5  A    between atoms: O_9  and  C_10
REMARK    6  A    between atoms: C_12  and  O_13
REMARK    7  A    between atoms: O_13  and  C_14
REMARK    8  A    between atoms: C_14  and  C_15
REMARK    9  A    between atoms: C_23  and  C_24
REMARK                            x       y       z     vdW  Elec       q    Type
REMARK                         _______ _______ _______ _____ _____    ______ ____
ROOT
ATOM      1  C   UNL     1       2.464   5.410  19.220  0.00  0.00    +0.000 A 
ATOM      2  C   UNL     1       2.613   6.679  18.635  0.00  0.00    +0.000 A 
ATOM      3  C   UNL     1       2.108   7.827  19.266  0.00  0.00    +0.000 A 
ATOM      4  C   UNL     1       1.393   7.687  20.458  0.00  0.00    +0.000 A 
ATOM      5  C   UNL     1       1.320   6.444  21.090  0.00  0.00    +0.000 A 
ATOM      6  C   UNL     1       1.926   5.329  20.515  0.00  0.00    +0.000 A 
ENDROOT
BRANCH   6   7
ATOM      7  C   UNL     1       2.121   4.169  21.330  0.00  0.00    +0.000 C 
ATOM      8  N   UNL     1       2.140   3.290  22.094  0.00  0.00    +0.000 NA
ENDBRANCH   6   7
BRANCH   1   9
ATOM      9  O   UNL     1       2.923   4.336  18.475  0.00  0.00    +0.000 OA
BRANCH   9  10
ATOM     10  C   UNL     1       4.220   3.809  18.881  0.00  0.00    +0.000 C 
BRANCH  10  17
ATOM     11  C   UNL     1       5.003   4.035  15.854  0.00  0.00    +0.000 C 
ATOM     12  C   UNL     1       5.745   4.728  16.964  0.00  0.00    +0.000 A 
ATOM     13  C   UNL     1       6.774   5.626  16.614  0.00  0.00    +0.000 A 
ATOM     14  C   UNL     1       7.563   6.246  17.583  0.00  0.00    +0.000 A 
ATOM     15  C   UNL     1       7.366   5.948  18.922  0.00  0.00    +0.000 A 
ATOM     16  C   UNL     1       6.340   5.079  19.287  0.00  0.00    +0.000 A 
ATOM     17  C   UNL     1       5.474   4.496  18.325  0.00  0.00    +0.000 A 
ENDBRANCH  10  17
BRANCH  10  18
ATOM     18  C   UNL     1       4.284   2.268  18.974  0.00  0.00    +0.000 C 
ATOM     19  O   UNL     1       3.743   1.609  18.055  0.00  0.00    +0.000 OA
ATOM     20  O   UNL     1       4.918   1.873  20.007  0.00  0.00    +0.000 OA
ENDBRANCH  10  18
ENDBRANCH   9  10
ENDBRANCH   1   9
BRANCH   3  21
ATOM     21  O   UNL     1       2.406   9.026  18.666  0.00  0.00    +0.000 OA
BRANCH  21  22
ATOM     22  C   UNL     1       1.382   9.600  17.849  0.00  0.00    +0.000 C 
BRANCH  22  23
ATOM     23  C   UNL     1       0.584  10.648  18.589  0.00  0.00    +0.000 A 
ATOM     24  C   UNL     1      -0.790  10.465  18.787  0.00  0.00    +0.000 A 
ATOM     25  C   UNL     1      -1.485  11.385  19.556  0.00  0.00    +0.000 A 
ATOM     26  N   UNL     1      -0.912  12.454  20.147  0.00  0.00    +0.000 NA
ATOM     27  C   UNL     1       0.416  12.609  19.955  0.00  0.00    +0.000 A 
ATOM     28  C   UNL     1       1.197  11.743  19.203  0.00  0.00    +0.000 A 
ENDBRANCH  22  23
ENDBRANCH  21  22
ENDBRANCH   3  21
TORSDOF 8
ENDMDL
MODEL 6
REMARK VINA RESULT:      -7.4      2.174      3.277
REMARK  Name = 
REMARK  9 active torsions:
REMARK  status: ('A' for Active; 'I' for Inactive)
REMARK    1  A    between atoms: C_1  and  C_2
REMARK    2  A    between atoms: C_7  and  C_8
REMARK    3  A    between atoms: C_8  and  O_9
REMARK    4  A    between atoms: C_8  and  C_26
REMARK    5  A    between atoms: O_9  and  C_10
REMARK    6  A    between atoms: C_12  and  O_13
REMARK    7  A    between atoms: O_13  and  C_14
REMARK    8  A    between atoms: C_14  and  C_15
REMARK    9  A    between atoms: C_23  and  C_24
REMARK                            x       y       z     vdW  Elec       q    Type
REMARK                         _______ _______ _______ _____ _____    ______ ____
ROOT
ATOM      1  C   UNL     1       4.508   3.821  19.758  0.00  0.00    +0.000 A 
ATOM      2  C   UNL     1       3.681   4.942  19.571  0.00  0.00    +0.000 A 
ATOM      3  C   UNL     1       2.291   4.848  19.745  0.00  0.00    +0.000 A 
ATOM      4  C   UNL     1       1.727   3.607  20.044  0.00  0.00    +0.000 A 
ATOM      5  C   UNL     1       2.548   2.511  20.320  0.00  0.00    +0.000 A 
ATOM      6  C   UNL     1       3.934   2.642  20.260  0.00  0.00    +0.000 A 
ENDROOT
BRANCH   6   7
ATOM      7  C   UNL     1       4.737   1.622  20.862  0.00  0.00    +0.000 C 
ATOM      8  N   UNL     1       5.529   0.914  21.340  0.00  0.00    +0.000 NA
ENDBRANCH   6   7
BRANCH   1   9
ATOM      9  O   UNL     1       5.853   4.002  19.477  0.00  0.00    +0.000 OA
BRANCH   9  10
ATOM     10  C   UNL     1       6.167   5.183  18.684  0.00  0.00    +0.000 C 
BRANCH  10  17
ATOM     11  C   UNL     1       4.384   7.178  17.053  0.00  0.00    +0.000 C 
ATOM     12  C   UNL     1       5.223   6.101  16.424  0.00  0.00    +0.000 A 
ATOM     13  C   UNL     1       5.308   6.064  15.016  0.00  0.00    +0.000 A 
ATOM     14  C   UNL     1       5.998   5.049  14.353  0.00  0.00    +0.000 A 
ATOM     15  C   UNL     1       6.583   4.026  15.083  0.00  0.00    +0.000 A 
ATOM     16  C   UNL     1       6.526   4.059  16.475  0.00  0.00    +0.000 A 
ATOM     17  C   UNL     1       5.897   5.121  17.175  0.00  0.00    +0.000 A 
ENDBRANCH  10  17
BRANCH  10  18
ATOM     18  C   UNL     1       7.465   5.910  19.103  0.00  0.00    +0.000 C 
ATOM     19  O   UNL     1       7.896   6.810  18.344  0.00  0.00    +0.000 OA
ATOM     20  O   UNL     1       7.918   5.483  20.216  0.00  0.00    +0.000 OA
ENDBRANCH  10  18
ENDBRANCH   9  10
ENDBRANCH   1   9
BRANCH   3  21
ATOM     21  O   UNL     1       1.591   6.026  19.649  0.00  0.00    +0.000 OA
BRANCH  21  22
ATOM     22  C   UNL     1       2.258   7.202  20.117  0.00  0.00    +0.000 C 
BRANCH  22  23
ATOM     23  C   UNL     1       1.468   8.457  19.827  0.00  0.00    +0.000 A 
ATOM     24  C   UNL     1       0.744   9.077  20.852  0.00  0.00    +0.000 A 
ATOM     25  C   UNL     1       0.110  10.282  20.593  0.00  0.00    +0.000 A 
ATOM     26  N   UNL     1       0.159  10.914  19.401  0.00  0.00    +0.000 NA
ATOM     27  C   UNL     1       0.871  10.308  18.427  0.00  0.00    +0.000 A 
ATOM     28  C   UNL     1       1.539   9.103  18.589  0.00  0.00    +0.000 A 
ENDBRANCH  22  23
ENDBRANCH  21  22
ENDBRANCH   3  21
TORSDOF 8
ENDMDL
MODEL 7
REMARK VINA RESULT:      -7.4      2.177      3.310
REMARK  Name = 
REMARK  9 active torsions:
REMARK  status: ('A' for Active; 'I' for Inactive)
REMARK    1  A    between atoms: C_1  and  C_2
REMARK    2  A    between atoms: C_7  and  C_8
REMARK    3  A    between atoms: C_8  and  O_9
REMARK    4  A    between atoms: C_8  and  C_26
REMARK    5  A    between atoms: O_9  and  C_10
REMARK    6  A    between atoms: C_12  and  O_13
REMARK    7  A    between atoms: O_13  and  C_14
REMARK    8  A    between atoms: C_14  and  C_15
REMARK    9  A    between atoms: C_23  and  C_24
REMARK                            x       y       z     vdW  Elec       q    Type
REMARK                         _______ _______ _______ _____ _____    ______ ____
ROOT
ATOM      1  C   UNL     1       4.578   3.865  19.691  0.00  0.00    +0.000 A 
ATOM      2  C   UNL     1       3.760   4.987  19.482  0.00  0.00    +0.000 A 
ATOM      3  C   UNL     1       2.368   4.906  19.650  0.00  0.00    +0.000 A 
ATOM      4  C   UNL     1       1.794   3.673  19.968  0.00  0.00    +0.000 A 
ATOM      5  C   UNL     1       2.607   2.577  20.265  0.00  0.00    +0.000 A 
ATOM      6  C   UNL     1       3.994   2.697  20.209  0.00  0.00    +0.000 A 
ENDROOT
BRANCH   6   7
ATOM      7  C   UNL     1       4.788   1.682  20.833  0.00  0.00    +0.000 C 
ATOM      8  N   UNL     1       5.525   0.996  21.417  0.00  0.00    +0.000 NA
ENDBRANCH   6   7
BRANCH   1   9
ATOM      9  O   UNL     1       5.925   4.032  19.415  0.00  0.00    +0.000 OA
BRANCH   9  10
ATOM     10  C   UNL     1       6.251   5.195  18.598  0.00  0.00    +0.000 C 
BRANCH  10  17
ATOM     11  C   UNL     1       4.380   7.159  17.029  0.00  0.00    +0.000 C 
ATOM     12  C   UNL     1       5.214   6.095  16.372  0.00  0.00    +0.000 A 
ATOM     13  C   UNL     1       5.250   6.057  14.962  0.00  0.00    +0.000 A 
ATOM     14  C   UNL     1       5.933   5.053  14.276  0.00  0.00    +0.000 A 
ATOM     15  C   UNL     1       6.560   4.039  14.986  0.00  0.00    +0.000 A 
ATOM     16  C   UNL     1       6.551   4.073  16.379  0.00  0.00    +0.000 A 
ATOM     17  C   UNL     1       5.929   5.126  17.100  0.00  0.00    +0.000 A 
ENDBRANCH  10  17
BRANCH  10  18
ATOM     18  C   UNL     1       7.584   5.884  18.967  0.00  0.00    +0.000 C 
ATOM     19  O   UNL     1       8.297   5.335  19.840  0.00  0.00    +0.000 OA
ATOM     20  O   UNL     1       7.780   6.946  18.291  0.00  0.00    +0.000 OA
ENDBRANCH  10  18
ENDBRANCH   9  10
ENDBRANCH   1   9
BRANCH   3  21
ATOM     21  O   UNL     1       1.676   6.086  19.532  0.00  0.00    +0.000 OA
BRANCH  21  22
ATOM     22  C   UNL     1       2.118   7.167  20.358  0.00  0.00    +0.000 C 
BRANCH  22  23
ATOM     23  C   UNL     1       1.432   8.468  20.007  0.00  0.00    +0.000 A 
ATOM     24  C   UNL     1       1.568   9.001  18.720  0.00  0.00    +0.000 A 
ATOM     25  C   UNL     1       0.851  10.139  18.385  0.00  0.00    +0.000 A 
ATOM     26  N   UNL     1       0.005  10.767  19.229  0.00  0.00    +0.000 NA
ATOM     27  C   UNL     1      -0.123  10.233  20.463  0.00  0.00    +0.000 A 
ATOM     28  C   UNL     1       0.553   9.099  20.891  0.00  0.00    +0.000 A 
ENDBRANCH  22  23
ENDBRANCH  21  22
ENDBRANCH   3  21
TORSDOF 8
ENDMDL
MODEL 8
REMARK VINA RESULT:      -7.4      1.178      2.054
REMARK  Name = 
REMARK  9 active torsions:
REMARK  status: ('A' for Active; 'I' for Inactive)
REMARK    1  A    between atoms: C_1  and  C_2
REMARK    2  A    between atoms: C_7  and  C_8
REMARK    3  A    between atoms: C_8  and  O_9
REMARK    4  A    between atoms: C_8  and  C_26
REMARK    5  A    between atoms: O_9  and  C_10
REMARK    6  A    between atoms: C_12  and  O_13
REMARK    7  A    between atoms: O_13  and  C_14
REMARK    8  A    between atoms: C_14  and  C_15
REMARK    9  A    between atoms: C_23  and  C_24
REMARK                            x       y       z     vdW  Elec       q    Type
REMARK                         _______ _______ _______ _____ _____    ______ ____
ROOT
ATOM      1  C   UNL     1       2.451   5.535  19.078  0.00  0.00    +0.000 A 
ATOM      2  C   UNL     1       2.651   6.761  18.421  0.00  0.00    +0.000 A 
ATOM      3  C   UNL     1       2.166   7.959  18.968  0.00  0.00    +0.000 A 
ATOM      4  C   UNL     1       1.422   7.914  20.149  0.00  0.00    +0.000 A 
ATOM      5  C   UNL     1       1.298   6.714  20.854  0.00  0.00    +0.000 A 
ATOM      6  C   UNL     1       1.882   5.549  20.362  0.00  0.00    +0.000 A 
ENDROOT
BRANCH   6   7
ATOM      7  C   UNL     1       2.025   4.436  21.250  0.00  0.00    +0.000 C 
ATOM      8  N   UNL     1       2.317   3.584  21.988  0.00  0.00    +0.000 NA
ENDBRANCH   6   7
BRANCH   1   9
ATOM      9  O   UNL     1       2.893   4.405  18.410  0.00  0.00    +0.000 OA
BRANCH   9  10
ATOM     10  C   UNL     1       4.181   3.886  18.854  0.00  0.00    +0.000 C 
BRANCH  10  17
ATOM     11  C   UNL     1       4.959   4.107  15.826  0.00  0.00    +0.000 C 
ATOM     12  C   UNL     1       5.718   4.781  16.936  0.00  0.00    +0.000 A 
ATOM     13  C   UNL     1       6.764   5.659  16.585  0.00  0.00    +0.000 A 
ATOM     14  C   UNL     1       7.569   6.260  17.554  0.00  0.00    +0.000 A 
ATOM     15  C   UNL     1       7.370   5.962  18.894  0.00  0.00    +0.000 A 
ATOM     16  C   UNL     1       6.327   5.112  19.258  0.00  0.00    +0.000 A 
ATOM     17  C   UNL     1       5.447   4.549  18.297  0.00  0.00    +0.000 A 
ENDBRANCH  10  17
BRANCH  10  18
ATOM     18  C   UNL     1       4.237   2.349  19.000  0.00  0.00    +0.000 C 
ATOM     19  O   UNL     1       3.711   1.662  18.092  0.00  0.00    +0.000 OA
ATOM     20  O   UNL     1       4.849   1.987  20.057  0.00  0.00    +0.000 OA
ENDBRANCH  10  18
ENDBRANCH   9  10
ENDBRANCH   1   9
BRANCH   3  21
ATOM     21  O   UNL     1       2.514   9.110  18.304  0.00  0.00    +0.000 OA
BRANCH  21  22
ATOM     22  C   UNL     1       1.458  10.042  18.054  0.00  0.00    +0.000 C 
BRANCH  22  23
ATOM     23  C   UNL     1       1.693  11.367  18.742  0.00  0.00    +0.000 A 
ATOM     24  C   UNL     1       2.460  12.353  18.109  0.00  0.00    +0.000 A 
ATOM     25  C   UNL     1       2.580  13.597  18.709  0.00  0.00    +0.000 A 
ATOM     26  N   UNL     1       1.983  13.929  19.873  0.00  0.00    +0.000 NA
ATOM     27  C   UNL     1       1.238  12.970  20.464  0.00  0.00    +0.000 A 
ATOM     28  C   UNL     1       1.059  11.696  19.943  0.00  0.00    +0.000 A 
ENDBRANCH  22  23
ENDBRANCH  21  22
ENDBRANCH   3  21
TORSDOF 8
ENDMDL
MODEL 9
REMARK VINA RESULT:      -7.4      0.704      1.114
REMARK  Name = 
REMARK  9 active torsions:
REMARK  status: ('A' for Active; 'I' for Inactive)
REMARK    1  A    between atoms: C_1  and  C_2
REMARK    2  A    between atoms: C_7  and  C_8
REMARK    3  A    between atoms: C_8  and  O_9
REMARK    4  A    between atoms: C_8  and  C_26
REMARK    5  A    between atoms: O_9  and  C_10
REMARK    6  A    between atoms: C_12  and  O_13
REMARK    7  A    between atoms: O_13  and  C_14
REMARK    8  A    between atoms: C_14  and  C_15
REMARK    9  A    between atoms: C_23  and  C_24
REMARK                            x       y       z     vdW  Elec       q    Type
REMARK                         _______ _______ _______ _____ _____    ______ ____
ROOT
ATOM      1  C   UNL     1       2.263   5.445  19.097  0.00  0.00    +0.000 A 
ATOM      2  C   UNL     1       2.383   6.671  18.420  0.00  0.00    +0.000 A 
ATOM      3  C   UNL     1       2.001   7.873  19.035  0.00  0.00    +0.000 A 
ATOM      4  C   UNL     1       1.436   7.833  20.311  0.00  0.00    +0.000 A 
ATOM      5  C   UNL     1       1.398   6.633  21.024  0.00  0.00    +0.000 A 
ATOM      6  C   UNL     1       1.887   5.462  20.450  0.00  0.00    +0.000 A 
ENDROOT
BRANCH   6   7
ATOM      7  C   UNL     1       2.141   4.343  21.306  0.00  0.00    +0.000 C 
ATOM      8  N   UNL     1       2.480   3.539  22.077  0.00  0.00    +0.000 NA
ENDBRANCH   6   7
BRANCH   1   9
ATOM      9  O   UNL     1       2.588   4.312  18.369  0.00  0.00    +0.000 OA
BRANCH   9  10
ATOM     10  C   UNL     1       3.950   3.826  18.553  0.00  0.00    +0.000 C 
BRANCH  10  17
ATOM     11  C   UNL     1       6.554   5.413  19.274  0.00  0.00    +0.000 C 
ATOM     12  C   UNL     1       6.254   4.878  17.902  0.00  0.00    +0.000 A 
ATOM     13  C   UNL     1       7.254   4.990  16.914  0.00  0.00    +0.000 A 
ATOM     14  C   UNL     1       7.027   4.593  15.596  0.00  0.00    +0.000 A 
ATOM     15  C   UNL     1       5.778   4.114  15.229  0.00  0.00    +0.000 A 
ATOM     16  C   UNL     1       4.785   3.977  16.197  0.00  0.00    +0.000 A 
ATOM     17  C   UNL     1       5.017   4.302  17.560  0.00  0.00    +0.000 A 
ENDBRANCH  10  17
BRANCH  10  18
ATOM     18  C   UNL     1       4.048   2.346  18.986  0.00  0.00    +0.000 C 
ATOM     19  O   UNL     1       3.369   1.508  18.346  0.00  0.00    +0.000 OA
ATOM     20  O   UNL     1       4.852   2.181  19.961  0.00  0.00    +0.000 OA
ENDBRANCH  10  18
ENDBRANCH   9  10
ENDBRANCH   1   9
BRANCH   3  21
ATOM     21  O   UNL     1       2.265   9.022  18.330  0.00  0.00    +0.000 OA
BRANCH  21  22
ATOM     22  C   UNL     1       1.772  10.241  18.894  0.00  0.00    +0.000 C 
BRANCH  22  23
ATOM     23  C   UNL     1       0.284  10.404  18.683  0.00  0.00    +0.000 A 
ATOM     24  C   UNL     1      -0.440  11.288  19.492  0.00  0.00    +0.000 A 
ATOM     25  C   UNL     1      -1.782  11.502  19.218  0.00  0.00    +0.000 A 
ATOM     26  N   UNL     1      -2.442  10.915  18.197  0.00  0.00    +0.000 NA
ATOM     27  C   UNL     1      -1.726  10.075  17.420  0.00  0.00    +0.000 A 
ATOM     28  C   UNL     1      -0.380   9.796  17.614  0.00  0.00    +0.000 A 
ENDBRANCH  22  23
ENDBRANCH  21  22
ENDBRANCH   3  21
TORSDOF 8
ENDMDL
