MODEL 1
REMARK VINA RESULT:      -7.0      0.000      0.000
REMARK  Name = 
REMARK  13 active torsions:
REMARK  status: ('A' for Active; 'I' for Inactive)
REMARK    1  A    between atoms: C_1  and  C_2
REMARK    2  A    between atoms: C_2  and  C_3
REMARK    3  A    between atoms: C_3  and  C_4
REMARK    4  A    between atoms: C_4  and  C_5
REMARK    5  A    between atoms: C_5  and  C_6
REMARK    6  A    between atoms: C_6  and  O_7
REMARK    7  A    between atoms: O_7  and  C_8
REMARK    8  A    between atoms: C_8  and  C_10
REMARK    9  A    between atoms: C_13  and  C_14
REMARK   10  A    between atoms: C_14  and  C_15
REMARK   11  A    between atoms: C_15  and  C_16
REMARK   12  A    between atoms: C_16  and  C_17
REMARK   13  A    between atoms: C_17  and  C_18
REMARK                            x       y       z     vdW  Elec       q    Type
REMARK                         _______ _______ _______ _____ _____    ______ ____
ROOT
ATOM      1  C   UNL     1       6.283   5.517  16.069  0.00  0.00    +0.000 C 
ATOM      2  N   UNL     1       6.821   6.157  17.059  0.00  0.00    +0.000 NA
ATOM      3  O   UNL     1       5.774   6.453  17.964  0.00  0.00    +0.000 OA
ATOM      4  C   UNL     1       4.590   5.733  17.567  0.00  0.00    +0.000 C 
ATOM      5  C   UNL     1       4.825   5.291  16.137  0.00  0.00    +0.000 C 
ENDROOT
BRANCH   1   6
ATOM      6  C   UNL     1       7.058   4.956  14.907  0.00  0.00    +0.000 C 
ATOM      7  O   UNL     1       8.003   5.555  14.426  0.00  0.00    +0.000 OA
BRANCH   6   8
ATOM      8  O   UNL     1       6.375   3.926  14.373  0.00  0.00    +0.000 OA
BRANCH   8   9
ATOM      9  C   UNL     1       6.301   3.956  12.948  0.00  0.00    +0.000 C 
BRANCH   9  10
ATOM     10  C   UNL     1       6.481   2.575  12.324  0.00  0.00    +0.000 C 
BRANCH  10  11
ATOM     11  C   UNL     1       5.308   2.276  11.387  0.00  0.00    +0.000 C 
BRANCH  11  12
ATOM     12  C   UNL     1       4.285   3.410  11.361  0.00  0.00    +0.000 C 
BRANCH  12  14
ATOM     13  C   UNL     1       2.806   4.388   9.571  0.00  0.00    +0.000 C 
ATOM     14  C   UNL     1       3.172   3.134  10.349  0.00  0.00    +0.000 C 
ENDBRANCH  12  14
ENDBRANCH  11  12
ENDBRANCH  10  11
ENDBRANCH   9  10
ENDBRANCH   8   9
ENDBRANCH   6   8
ENDBRANCH   1   6
BRANCH   4  15
ATOM     15  C   UNL     1       3.397   6.672  17.744  0.00  0.00    +0.000 C 
BRANCH  15  16
ATOM     16  C   UNL     1       3.020   6.917  19.206  0.00  0.00    +0.000 C 
BRANCH  16  17
ATOM     17  C   UNL     1       3.063   5.611  20.006  0.00  0.00    +0.000 C 
BRANCH  17  18
ATOM     18  C   UNL     1       1.667   5.213  20.497  0.00  0.00    +0.000 C 
BRANCH  18  19
ATOM     19  C   UNL     1       1.149   3.948  19.810  0.00  0.00    +0.000 C 
ATOM     20  C   UNL     1       1.673   2.684  20.458  0.00  0.00    +0.000 C 
ATOM     21  C   UNL     1       1.734   1.706  19.312  0.00  0.00    +0.000 C 
ATOM     22  C   UNL     1       1.915   2.604  18.128  0.00  0.00    +0.000 C 
ATOM     23  O   UNL     1       2.250   2.243  17.012  0.00  0.00    +0.000 OA
ATOM     24  O   UNL     1       1.620   3.894  18.460  0.00  0.00    +0.000 OA
ENDBRANCH  18  19
ENDBRANCH  17  18
ENDBRANCH  16  17
ENDBRANCH  15  16
ENDBRANCH   4  15
TORSDOF 12
ENDMDL
MODEL 2
REMARK VINA RESULT:      -6.8      1.332      1.908
REMARK  Name = 
REMARK  13 active torsions:
REMARK  status: ('A' for Active; 'I' for Inactive)
REMARK    1  A    between atoms: C_1  and  C_2
REMARK    2  A    between atoms: C_2  and  C_3
REMARK    3  A    between atoms: C_3  and  C_4
REMARK    4  A    between atoms: C_4  and  C_5
REMARK    5  A    between atoms: C_5  and  C_6
REMARK    6  A    between atoms: C_6  and  O_7
REMARK    7  A    between atoms: O_7  and  C_8
REMARK    8  A    between atoms: C_8  and  C_10
REMARK    9  A    between atoms: C_13  and  C_14
REMARK   10  A    between atoms: C_14  and  C_15
REMARK   11  A    between atoms: C_15  and  C_16
REMARK   12  A    between atoms: C_16  and  C_17
REMARK   13  A    between atoms: C_17  and  C_18
REMARK                            x       y       z     vdW  Elec       q    Type
REMARK                         _______ _______ _______ _____ _____    ______ ____
ROOT
ATOM      1  C   UNL     1       5.063   6.022  17.440  0.00  0.00    +0.000 C 
ATOM      2  N   UNL     1       5.579   5.614  18.556  0.00  0.00    +0.000 NA
ATOM      3  O   UNL     1       4.548   5.675  19.522  0.00  0.00    +0.000 OA
ATOM      4  C   UNL     1       3.293   5.925  18.858  0.00  0.00    +0.000 C 
ATOM      5  C   UNL     1       3.643   6.424  17.470  0.00  0.00    +0.000 C 
ENDROOT
BRANCH   1   6
ATOM      6  C   UNL     1       5.806   6.056  16.131  0.00  0.00    +0.000 C 
ATOM      7  O   UNL     1       5.513   6.849  15.254  0.00  0.00    +0.000 OA
BRANCH   6   8
ATOM      8  O   UNL     1       6.565   4.949  16.021  0.00  0.00    +0.000 OA
BRANCH   8   9
ATOM      9  C   UNL     1       6.964   4.648  14.685  0.00  0.00    +0.000 C 
BRANCH   9  10
ATOM     10  C   UNL     1       5.878   3.915  13.901  0.00  0.00    +0.000 C 
BRANCH  10  11
ATOM     11  C   UNL     1       6.293   3.798  12.432  0.00  0.00    +0.000 C 
BRANCH  11  12
ATOM     12  C   UNL     1       5.393   2.843  11.652  0.00  0.00    +0.000 C 
BRANCH  12  14
ATOM     13  C   UNL     1       3.464   3.555  10.195  0.00  0.00    +0.000 C 
ATOM     14  C   UNL     1       3.947   3.340  11.620  0.00  0.00    +0.000 C 
ENDBRANCH  12  14
ENDBRANCH  11  12
ENDBRANCH  10  11
ENDBRANCH   9  10
ENDBRANCH   8   9
ENDBRANCH   6   8
ENDBRANCH   1   6
BRANCH   4  15
ATOM     15  C   UNL     1       2.512   6.928  19.706  0.00  0.00    +0.000 C 
BRANCH  15  16
ATOM     16  C   UNL     1       1.420   6.289  20.564  0.00  0.00    +0.000 C 
BRANCH  16  17
ATOM     17  C   UNL     1       1.872   4.923  21.093  0.00  0.00    +0.000 C 
BRANCH  17  18
ATOM     18  C   UNL     1       1.028   3.790  20.501  0.00  0.00    +0.000 C 
BRANCH  18  19
ATOM     19  C   UNL     1       1.888   2.640  19.972  0.00  0.00    +0.000 C 
ATOM     20  C   UNL     1       3.254   2.594  20.626  0.00  0.00    +0.000 C 
ATOM     21  C   UNL     1       4.134   2.016  19.548  0.00  0.00    +0.000 C 
ATOM     22  C   UNL     1       3.423   2.422  18.294  0.00  0.00    +0.000 C 
ATOM     23  O   UNL     1       3.893   2.377  17.169  0.00  0.00    +0.000 OA
ATOM     24  O   UNL     1       2.151   2.824  18.578  0.00  0.00    +0.000 OA
ENDBRANCH  18  19
ENDBRANCH  17  18
ENDBRANCH  16  17
ENDBRANCH  15  16
ENDBRANCH   4  15
TORSDOF 12
ENDMDL
MODEL 3
REMARK VINA RESULT:      -6.8      1.267      1.367
REMARK  Name = 
REMARK  13 active torsions:
REMARK  status: ('A' for Active; 'I' for Inactive)
REMARK    1  A    between atoms: C_1  and  C_2
REMARK    2  A    between atoms: C_2  and  C_3
REMARK    3  A    between atoms: C_3  and  C_4
REMARK    4  A    between atoms: C_4  and  C_5
REMARK    5  A    between atoms: C_5  and  C_6
REMARK    6  A    between atoms: C_6  and  O_7
REMARK    7  A    between atoms: O_7  and  C_8
REMARK    8  A    between atoms: C_8  and  C_10
REMARK    9  A    between atoms: C_13  and  C_14
REMARK   10  A    between atoms: C_14  and  C_15
REMARK   11  A    between atoms: C_15  and  C_16
REMARK   12  A    between atoms: C_16  and  C_17
REMARK   13  A    between atoms: C_17  and  C_18
REMARK                            x       y       z     vdW  Elec       q    Type
REMARK                         _______ _______ _______ _____ _____    ______ ____
ROOT
ATOM      1  C   UNL     1       6.283   5.794  15.733  0.00  0.00    +0.000 C 
ATOM      2  N   UNL     1       7.052   6.485  16.515  0.00  0.00    +0.000 NA
ATOM      3  O   UNL     1       6.235   6.953  17.570  0.00  0.00    +0.000 OA
ATOM      4  C   UNL     1       4.954   6.294  17.505  0.00  0.00    +0.000 C 
ATOM      5  C   UNL     1       4.861   5.694  16.116  0.00  0.00    +0.000 C 
ENDROOT
BRANCH   1   6
ATOM      6  C   UNL     1       6.766   5.059  14.511  0.00  0.00    +0.000 C 
ATOM      7  O   UNL     1       7.845   5.309  14.004  0.00  0.00    +0.000 OA
BRANCH   6   8
ATOM      8  O   UNL     1       5.743   4.368  13.974  0.00  0.00    +0.000 OA
BRANCH   8   9
ATOM      9  C   UNL     1       6.120   3.107  13.422  0.00  0.00    +0.000 C 
BRANCH   9  10
ATOM     10  C   UNL     1       5.719   2.967  11.956  0.00  0.00    +0.000 C 
BRANCH  10  11
ATOM     11  C   UNL     1       4.505   3.854  11.667  0.00  0.00    +0.000 C 
BRANCH  11  12
ATOM     12  C   UNL     1       3.412   3.107  10.906  0.00  0.00    +0.000 C 
BRANCH  12  14
ATOM     13  C   UNL     1       2.322   4.794   9.383  0.00  0.00    +0.000 C 
ATOM     14  C   UNL     1       3.283   3.619   9.470  0.00  0.00    +0.000 C 
ENDBRANCH  12  14
ENDBRANCH  11  12
ENDBRANCH  10  11
ENDBRANCH   9  10
ENDBRANCH   8   9
ENDBRANCH   6   8
ENDBRANCH   1   6
BRANCH   4  15
ATOM     15  C   UNL     1       3.881   7.340  17.808  0.00  0.00    +0.000 C 
BRANCH  15  16
ATOM     16  C   UNL     1       2.525   6.738  18.177  0.00  0.00    +0.000 C 
BRANCH  16  17
ATOM     17  C   UNL     1       2.330   6.722  19.697  0.00  0.00    +0.000 C 
BRANCH  17  18
ATOM     18  C   UNL     1       1.785   5.373  20.174  0.00  0.00    +0.000 C 
BRANCH  18  19
ATOM     19  C   UNL     1       2.310   4.204  19.336  0.00  0.00    +0.000 C 
ATOM     20  C   UNL     1       1.468   2.955  19.498  0.00  0.00    +0.000 C 
ATOM     21  C   UNL     1       2.462   1.840  19.298  0.00  0.00    +0.000 C 
ATOM     22  C   UNL     1       3.751   2.473  19.720  0.00  0.00    +0.000 C 
ATOM     23  O   UNL     1       4.790   1.876  19.950  0.00  0.00    +0.000 OA
ATOM     24  O   UNL     1       3.616   3.830  19.782  0.00  0.00    +0.000 OA
ENDBRANCH  18  19
ENDBRANCH  17  18
ENDBRANCH  16  17
ENDBRANCH  15  16
ENDBRANCH   4  15
TORSDOF 12
ENDMDL
MODEL 4
REMARK VINA RESULT:      -6.7      4.006      6.683
REMARK  Name = 
REMARK  13 active torsions:
REMARK  status: ('A' for Active; 'I' for Inactive)
REMARK    1  A    between atoms: C_1  and  C_2
REMARK    2  A    between atoms: C_2  and  C_3
REMARK    3  A    between atoms: C_3  and  C_4
REMARK    4  A    between atoms: C_4  and  C_5
REMARK    5  A    between atoms: C_5  and  C_6
REMARK    6  A    between atoms: C_6  and  O_7
REMARK    7  A    between atoms: O_7  and  C_8
REMARK    8  A    between atoms: C_8  and  C_10
REMARK    9  A    between atoms: C_13  and  C_14
REMARK   10  A    between atoms: C_14  and  C_15
REMARK   11  A    between atoms: C_15  and  C_16
REMARK   12  A    between atoms: C_16  and  C_17
REMARK   13  A    between atoms: C_17  and  C_18
REMARK                            x       y       z     vdW  Elec       q    Type
REMARK                         _______ _______ _______ _____ _____    ______ ____
ROOT
ATOM      1  C   UNL     1       6.615   6.260  17.174  0.00  0.00    +0.000 C 
ATOM      2  N   UNL     1       6.241   6.514  15.959  0.00  0.00    +0.000 NA
ATOM      3  O   UNL     1       5.114   5.699  15.706  0.00  0.00    +0.000 OA
ATOM      4  C   UNL     1       4.677   5.101  16.943  0.00  0.00    +0.000 C 
ATOM      5  C   UNL     1       5.829   5.253  17.915  0.00  0.00    +0.000 C 
ENDROOT
BRANCH   1   6
ATOM      6  C   UNL     1       7.750   6.963  17.871  0.00  0.00    +0.000 C 
ATOM      7  O   UNL     1       8.078   6.667  19.006  0.00  0.00    +0.000 OA
BRANCH   6   8
ATOM      8  O   UNL     1       8.082   8.067  17.178  0.00  0.00    +0.000 OA
BRANCH   8   9
ATOM      9  C   UNL     1       7.824   9.288  17.870  0.00  0.00    +0.000 C 
BRANCH   9  10
ATOM     10  C   UNL     1       8.988   9.712  18.761  0.00  0.00    +0.000 C 
BRANCH  10  11
ATOM     11  C   UNL     1       9.578  11.028  18.245  0.00  0.00    +0.000 C 
BRANCH  11  12
ATOM     12  C   UNL     1      10.927  11.346  18.887  0.00  0.00    +0.000 C 
BRANCH  12  14
ATOM     13  C   UNL     1      10.748  13.088  17.075  0.00  0.00    +0.000 C 
ATOM     14  C   UNL     1      11.618  12.515  18.181  0.00  0.00    +0.000 C 
ENDBRANCH  12  14
ENDBRANCH  11  12
ENDBRANCH  10  11
ENDBRANCH   9  10
ENDBRANCH   8   9
ENDBRANCH   6   8
ENDBRANCH   1   6
BRANCH   4  15
ATOM     15  C   UNL     1       4.297   3.650  16.645  0.00  0.00    +0.000 C 
BRANCH  15  16
ATOM     16  C   UNL     1       2.849   3.310  17.000  0.00  0.00    +0.000 C 
BRANCH  16  17
ATOM     17  C   UNL     1       2.782   2.047  17.865  0.00  0.00    +0.000 C 
BRANCH  17  18
ATOM     18  C   UNL     1       3.639   2.190  19.126  0.00  0.00    +0.000 C 
BRANCH  18  19
ATOM     19  C   UNL     1       2.933   2.994  20.220  0.00  0.00    +0.000 C 
ATOM     20  C   UNL     1       1.427   2.845  20.164  0.00  0.00    +0.000 C 
ATOM     21  C   UNL     1       0.928   4.165  20.693  0.00  0.00    +0.000 C 
ATOM     22  C   UNL     1       2.049   5.097  20.350  0.00  0.00    +0.000 C 
ATOM     23  O   UNL     1       1.987   6.315  20.376  0.00  0.00    +0.000 OA
ATOM     24  O   UNL     1       3.173   4.392  20.034  0.00  0.00    +0.000 OA
ENDBRANCH  18  19
ENDBRANCH  17  18
ENDBRANCH  16  17
ENDBRANCH  15  16
ENDBRANCH   4  15
TORSDOF 12
ENDMDL
MODEL 5
REMARK VINA RESULT:      -6.6      4.008      7.154
REMARK  Name = 
REMARK  13 active torsions:
REMARK  status: ('A' for Active; 'I' for Inactive)
REMARK    1  A    between atoms: C_1  and  C_2
REMARK    2  A    between atoms: C_2  and  C_3
REMARK    3  A    between atoms: C_3  and  C_4
REMARK    4  A    between atoms: C_4  and  C_5
REMARK    5  A    between atoms: C_5  and  C_6
REMARK    6  A    between atoms: C_6  and  O_7
REMARK    7  A    between atoms: O_7  and  C_8
REMARK    8  A    between atoms: C_8  and  C_10
REMARK    9  A    between atoms: C_13  and  C_14
REMARK   10  A    between atoms: C_14  and  C_15
REMARK   11  A    between atoms: C_15  and  C_16
REMARK   12  A    between atoms: C_16  and  C_17
REMARK   13  A    between atoms: C_17  and  C_18
REMARK                            x       y       z     vdW  Elec       q    Type
REMARK                         _______ _______ _______ _____ _____    ______ ____
ROOT
ATOM      1  C   UNL     1       2.882   7.153  18.640  0.00  0.00    +0.000 C 
ATOM      2  N   UNL     1       2.650   6.491  19.730  0.00  0.00    +0.000 NA
ATOM      3  O   UNL     1       3.596   5.441  19.773  0.00  0.00    +0.000 OA
ATOM      4  C   UNL     1       4.585   5.654  18.745  0.00  0.00    +0.000 C 
ATOM      5  C   UNL     1       3.986   6.666  17.789  0.00  0.00    +0.000 C 
ENDROOT
BRANCH   1   6
ATOM      6  C   UNL     1       2.138   8.397  18.234  0.00  0.00    +0.000 C 
ATOM      7  O   UNL     1       2.354   8.947  17.169  0.00  0.00    +0.000 OA
BRANCH   6   8
ATOM      8  O   UNL     1       1.485   8.893  19.302  0.00  0.00    +0.000 OA
BRANCH   8   9
ATOM      9  C   UNL     1       0.385   9.739  18.968  0.00  0.00    +0.000 C 
BRANCH   9  10
ATOM     10  C   UNL     1      -0.130  10.529  20.168  0.00  0.00    +0.000 C 
BRANCH  10  11
ATOM     11  C   UNL     1      -1.305  11.411  19.738  0.00  0.00    +0.000 C 
BRANCH  11  12
ATOM     12  C   UNL     1      -1.334  11.639  18.228  0.00  0.00    +0.000 C 
BRANCH  12  14
ATOM     13  C   UNL     1      -2.553   9.997  16.755  0.00  0.00    +0.000 C 
ATOM     14  C   UNL     1      -2.682  11.235  17.628  0.00  0.00    +0.000 C 
ENDBRANCH  12  14
ENDBRANCH  11  12
ENDBRANCH  10  11
ENDBRANCH   9  10
ENDBRANCH   8   9
ENDBRANCH   6   8
ENDBRANCH   1   6
BRANCH   4  15
ATOM     15  C   UNL     1       4.890   4.298  18.110  0.00  0.00    +0.000 C 
BRANCH  15  16
ATOM     16  C   UNL     1       4.136   4.047  16.804  0.00  0.00    +0.000 C 
BRANCH  16  17
ATOM     17  C   UNL     1       2.834   3.282  17.065  0.00  0.00    +0.000 C 
BRANCH  17  18
ATOM     18  C   UNL     1       3.079   2.048  17.939  0.00  0.00    +0.000 C 
BRANCH  18  19
ATOM     19  C   UNL     1       2.096   1.959  19.108  0.00  0.00    +0.000 C 
ATOM     20  C   UNL     1       0.998   2.998  19.018  0.00  0.00    +0.000 C 
ATOM     21  C   UNL     1       0.663   3.275  20.461  0.00  0.00    +0.000 C 
ATOM     22  C   UNL     1       1.947   2.953  21.161  0.00  0.00    +0.000 C 
ATOM     23  O   UNL     1       2.219   3.253  22.311  0.00  0.00    +0.000 OA
ATOM     24  O   UNL     1       2.770   2.240  20.339  0.00  0.00    +0.000 OA
ENDBRANCH  18  19
ENDBRANCH  17  18
ENDBRANCH  16  17
ENDBRANCH  15  16
ENDBRANCH   4  15
TORSDOF 12
ENDMDL
MODEL 6
REMARK VINA RESULT:      -6.6      1.588      1.849
REMARK  Name = 
REMARK  13 active torsions:
REMARK  status: ('A' for Active; 'I' for Inactive)
REMARK    1  A    between atoms: C_1  and  C_2
REMARK    2  A    between atoms: C_2  and  C_3
REMARK    3  A    between atoms: C_3  and  C_4
REMARK    4  A    between atoms: C_4  and  C_5
REMARK    5  A    between atoms: C_5  and  C_6
REMARK    6  A    between atoms: C_6  and  O_7
REMARK    7  A    between atoms: O_7  and  C_8
REMARK    8  A    between atoms: C_8  and  C_10
REMARK    9  A    between atoms: C_13  and  C_14
REMARK   10  A    between atoms: C_14  and  C_15
REMARK   11  A    between atoms: C_15  and  C_16
REMARK   12  A    between atoms: C_16  and  C_17
REMARK   13  A    between atoms: C_17  and  C_18
REMARK                            x       y       z     vdW  Elec       q    Type
REMARK                         _______ _______ _______ _____ _____    ______ ____
ROOT
ATOM      1  C   UNL     1       5.583   5.074  16.581  0.00  0.00    +0.000 C 
ATOM      2  N   UNL     1       4.562   4.282  16.486  0.00  0.00    +0.000 NA
ATOM      3  O   UNL     1       3.563   4.810  17.336  0.00  0.00    +0.000 OA
ATOM      4  C   UNL     1       3.963   6.123  17.776  0.00  0.00    +0.000 C 
ATOM      5  C   UNL     1       5.448   6.229  17.492  0.00  0.00    +0.000 C 
ENDROOT
BRANCH   1   6
ATOM      6  C   UNL     1       6.852   4.913  15.787  0.00  0.00    +0.000 C 
ATOM      7  O   UNL     1       7.879   4.515  16.305  0.00  0.00    +0.000 OA
BRANCH   6   8
ATOM      8  O   UNL     1       6.712   5.526  14.597  0.00  0.00    +0.000 OA
BRANCH   8   9
ATOM      9  C   UNL     1       6.993   4.689  13.476  0.00  0.00    +0.000 C 
BRANCH   9  10
ATOM     10  C   UNL     1       6.121   3.437  13.448  0.00  0.00    +0.000 C 
BRANCH  10  11
ATOM     11  C   UNL     1       5.843   3.034  11.997  0.00  0.00    +0.000 C 
BRANCH  11  12
ATOM     12  C   UNL     1       4.860   3.982  11.314  0.00  0.00    +0.000 C 
BRANCH  12  14
ATOM     13  C   UNL     1       2.942   3.899   9.680  0.00  0.00    +0.000 C 
ATOM     14  C   UNL     1       3.579   3.254  10.900  0.00  0.00    +0.000 C 
ENDBRANCH  12  14
ENDBRANCH  11  12
ENDBRANCH  10  11
ENDBRANCH   9  10
ENDBRANCH   8   9
ENDBRANCH   6   8
ENDBRANCH   1   6
BRANCH   4  15
ATOM     15  C   UNL     1       3.599   6.246  19.256  0.00  0.00    +0.000 C 
BRANCH  15  16
ATOM     16  C   UNL     1       2.105   6.457  19.505  0.00  0.00    +0.000 C 
BRANCH  16  17
ATOM     17  C   UNL     1       1.600   5.524  20.612  0.00  0.00    +0.000 C 
BRANCH  17  18
ATOM     18  C   UNL     1       0.837   4.331  20.028  0.00  0.00    +0.000 C 
BRANCH  18  19
ATOM     19  C   UNL     1       1.565   3.005  20.261  0.00  0.00    +0.000 C 
ATOM     20  C   UNL     1       1.901   2.782  21.721  0.00  0.00    +0.000 C 
ATOM     21  C   UNL     1       3.166   1.963  21.664  0.00  0.00    +0.000 C 
ATOM     22  C   UNL     1       3.758   2.371  20.350  0.00  0.00    +0.000 C 
ATOM     23  O   UNL     1       4.901   2.142  19.989  0.00  0.00    +0.000 OA
ATOM     24  O   UNL     1       2.827   3.013  19.588  0.00  0.00    +0.000 OA
ENDBRANCH  18  19
ENDBRANCH  17  18
ENDBRANCH  16  17
ENDBRANCH  15  16
ENDBRANCH   4  15
TORSDOF 12
ENDMDL
MODEL 7
REMARK VINA RESULT:      -6.6      1.753      2.872
REMARK  Name = 
REMARK  13 active torsions:
REMARK  status: ('A' for Active; 'I' for Inactive)
REMARK    1  A    between atoms: C_1  and  C_2
REMARK    2  A    between atoms: C_2  and  C_3
REMARK    3  A    between atoms: C_3  and  C_4
REMARK    4  A    between atoms: C_4  and  C_5
REMARK    5  A    between atoms: C_5  and  C_6
REMARK    6  A    between atoms: C_6  and  O_7
REMARK    7  A    between atoms: O_7  and  C_8
REMARK    8  A    between atoms: C_8  and  C_10
REMARK    9  A    between atoms: C_13  and  C_14
REMARK   10  A    between atoms: C_14  and  C_15
REMARK   11  A    between atoms: C_15  and  C_16
REMARK   12  A    between atoms: C_16  and  C_17
REMARK   13  A    between atoms: C_17  and  C_18
REMARK                            x       y       z     vdW  Elec       q    Type
REMARK                         _______ _______ _______ _____ _____    ______ ____
ROOT
ATOM      1  C   UNL     1       4.447   6.195  17.963  0.00  0.00    +0.000 C 
ATOM      2  N   UNL     1       3.538   6.899  17.366  0.00  0.00    +0.000 NA
ATOM      3  O   UNL     1       2.454   7.007  18.268  0.00  0.00    +0.000 OA
ATOM      4  C   UNL     1       2.865   6.517  19.560  0.00  0.00    +0.000 C 
ATOM      5  C   UNL     1       4.131   5.717  19.324  0.00  0.00    +0.000 C 
ENDROOT
BRANCH   1   6
ATOM      6  C   UNL     1       5.800   5.893  17.377  0.00  0.00    +0.000 C 
ATOM      7  O   UNL     1       6.632   6.768  17.214  0.00  0.00    +0.000 OA
BRANCH   6   8
ATOM      8  O   UNL     1       5.788   4.657  16.844  0.00  0.00    +0.000 OA
BRANCH   8   9
ATOM      9  C   UNL     1       6.515   4.545  15.621  0.00  0.00    +0.000 C 
BRANCH   9  10
ATOM     10  C   UNL     1       5.600   4.384  14.410  0.00  0.00    +0.000 C 
BRANCH  10  11
ATOM     11  C   UNL     1       6.307   3.551  13.337  0.00  0.00    +0.000 C 
BRANCH  11  12
ATOM     12  C   UNL     1       5.428   3.325  12.109  0.00  0.00    +0.000 C 
BRANCH  12  14
ATOM     13  C   UNL     1       7.131   1.814  11.028  0.00  0.00    +0.000 C 
ATOM     14  C   UNL     1       5.688   1.953  11.483  0.00  0.00    +0.000 C 
ENDBRANCH  12  14
ENDBRANCH  11  12
ENDBRANCH  10  11
ENDBRANCH   9  10
ENDBRANCH   8   9
ENDBRANCH   6   8
ENDBRANCH   1   6
BRANCH   4  15
ATOM     15  C   UNL     1       1.707   5.701  20.135  0.00  0.00    +0.000 C 
BRANCH  15  16
ATOM     16  C   UNL     1       2.135   4.699  21.208  0.00  0.00    +0.000 C 
BRANCH  16  17
ATOM     17  C   UNL     1       1.243   3.453  21.176  0.00  0.00    +0.000 C 
BRANCH  17  18
ATOM     18  C   UNL     1       2.076   2.177  21.013  0.00  0.00    +0.000 C 
BRANCH  18  19
ATOM     19  C   UNL     1       2.294   1.810  19.543  0.00  0.00    +0.000 C 
ATOM     20  C   UNL     1       3.750   1.901  19.136  0.00  0.00    +0.000 C 
ATOM     21  C   UNL     1       3.680   2.273  17.677  0.00  0.00    +0.000 C 
ATOM     22  C   UNL     1       2.368   2.989  17.587  0.00  0.00    +0.000 C 
ATOM     23  O   UNL     1       2.000   3.673  16.647  0.00  0.00    +0.000 OA
ATOM     24  O   UNL     1       1.615   2.744  18.698  0.00  0.00    +0.000 OA
ENDBRANCH  18  19
ENDBRANCH  17  18
ENDBRANCH  16  17
ENDBRANCH  15  16
ENDBRANCH   4  15
TORSDOF 12
ENDMDL
MODEL 8
REMARK VINA RESULT:      -6.5      5.179      9.088
REMARK  Name = 
REMARK  13 active torsions:
REMARK  status: ('A' for Active; 'I' for Inactive)
REMARK    1  A    between atoms: C_1  and  C_2
REMARK    2  A    between atoms: C_2  and  C_3
REMARK    3  A    between atoms: C_3  and  C_4
REMARK    4  A    between atoms: C_4  and  C_5
REMARK    5  A    between atoms: C_5  and  C_6
REMARK    6  A    between atoms: C_6  and  O_7
REMARK    7  A    between atoms: O_7  and  C_8
REMARK    8  A    between atoms: C_8  and  C_10
REMARK    9  A    between atoms: C_13  and  C_14
REMARK   10  A    between atoms: C_14  and  C_15
REMARK   11  A    between atoms: C_15  and  C_16
REMARK   12  A    between atoms: C_16  and  C_17
REMARK   13  A    between atoms: C_17  and  C_18
REMARK                            x       y       z     vdW  Elec       q    Type
REMARK                         _______ _______ _______ _____ _____    ______ ____
ROOT
ATOM      1  C   UNL     1       6.417   5.421  16.952  0.00  0.00    +0.000 C 
ATOM      2  N   UNL     1       7.173   5.733  15.947  0.00  0.00    +0.000 NA
ATOM      3  O   UNL     1       7.867   6.908  16.315  0.00  0.00    +0.000 OA
ATOM      4  C   UNL     1       7.659   7.160  17.719  0.00  0.00    +0.000 C 
ATOM      5  C   UNL     1       6.468   6.315  18.126  0.00  0.00    +0.000 C 
ENDROOT
BRANCH   1   6
ATOM      6  C   UNL     1       5.550   4.191  17.006  0.00  0.00    +0.000 C 
ATOM      7  O   UNL     1       5.579   3.354  16.121  0.00  0.00    +0.000 OA
BRANCH   6   8
ATOM      8  O   UNL     1       4.618   4.345  17.964  0.00  0.00    +0.000 OA
BRANCH   8   9
ATOM      9  C   UNL     1       3.322   4.678  17.466  0.00  0.00    +0.000 C 
BRANCH   9  10
ATOM     10  C   UNL     1       2.558   5.611  18.402  0.00  0.00    +0.000 C 
BRANCH  10  11
ATOM     11  C   UNL     1       2.684   5.111  19.844  0.00  0.00    +0.000 C 
BRANCH  11  12
ATOM     12  C   UNL     1       1.336   4.701  20.432  0.00  0.00    +0.000 C 
BRANCH  12  14
ATOM     13  C   UNL     1       2.241   2.732  21.719  0.00  0.00    +0.000 C 
ATOM     14  C   UNL     1       1.261   3.188  20.651  0.00  0.00    +0.000 C 
ENDBRANCH  12  14
ENDBRANCH  11  12
ENDBRANCH  10  11
ENDBRANCH   9  10
ENDBRANCH   8   9
ENDBRANCH   6   8
ENDBRANCH   1   6
BRANCH   4  15
ATOM     15  C   UNL     1       7.448   8.664  17.894  0.00  0.00    +0.000 C 
BRANCH  15  16
ATOM     16  C   UNL     1       8.750   9.464  17.949  0.00  0.00    +0.000 C 
BRANCH  16  17
ATOM     17  C   UNL     1       9.031   9.949  19.376  0.00  0.00    +0.000 C 
BRANCH  17  18
ATOM     18  C   UNL     1      10.149  10.996  19.397  0.00  0.00    +0.000 C 
BRANCH  18  19
ATOM     19  C   UNL     1      10.213  11.805  18.100  0.00  0.00    +0.000 C 
ATOM     20  C   UNL     1      11.635  12.028  17.629  0.00  0.00    +0.000 C 
ATOM     21  C   UNL     1      11.561  13.354  16.917  0.00  0.00    +0.000 C 
ATOM     22  C   UNL     1      10.409  14.025  17.599  0.00  0.00    +0.000 C 
ATOM     23  O   UNL     1      10.131  15.210  17.514  0.00  0.00    +0.000 OA
ATOM     24  O   UNL     1       9.683  13.116  18.312  0.00  0.00    +0.000 OA
ENDBRANCH  18  19
ENDBRANCH  17  18
ENDBRANCH  16  17
ENDBRANCH  15  16
ENDBRANCH   4  15
TORSDOF 12
ENDMDL
MODEL 9
REMARK VINA RESULT:      -6.5      3.706      6.585
REMARK  Name = 
REMARK  13 active torsions:
REMARK  status: ('A' for Active; 'I' for Inactive)
REMARK    1  A    between atoms: C_1  and  C_2
REMARK    2  A    between atoms: C_2  and  C_3
REMARK    3  A    between atoms: C_3  and  C_4
REMARK    4  A    between atoms: C_4  and  C_5
REMARK    5  A    between atoms: C_5  and  C_6
REMARK    6  A    between atoms: C_6  and  O_7
REMARK    7  A    between atoms: O_7  and  C_8
REMARK    8  A    between atoms: C_8  and  C_10
REMARK    9  A    between atoms: C_13  and  C_14
REMARK   10  A    between atoms: C_14  and  C_15
REMARK   11  A    between atoms: C_15  and  C_16
REMARK   12  A    between atoms: C_16  and  C_17
REMARK   13  A    between atoms: C_17  and  C_18
REMARK                            x       y       z     vdW  Elec       q    Type
REMARK                         _______ _______ _______ _____ _____    ______ ____
ROOT
ATOM      1  C   UNL     1       6.408   4.729  17.877  0.00  0.00    +0.000 C 
ATOM      2  N   UNL     1       6.414   4.443  16.613  0.00  0.00    +0.000 NA
ATOM      3  O   UNL     1       5.242   3.692  16.364  0.00  0.00    +0.000 OA
ATOM      4  C   UNL     1       4.392   3.744  17.528  0.00  0.00    +0.000 C 
ATOM      5  C   UNL     1       5.268   4.223  18.668  0.00  0.00    +0.000 C 
ENDROOT
BRANCH   1   6
ATOM      6  C   UNL     1       7.451   5.577  18.554  0.00  0.00    +0.000 C 
ATOM      7  O   UNL     1       7.859   5.310  19.670  0.00  0.00    +0.000 OA
BRANCH   6   8
ATOM      8  O   UNL     1       7.593   6.732  17.878  0.00  0.00    +0.000 OA
BRANCH   8   9
ATOM      9  C   UNL     1       8.358   7.719  18.569  0.00  0.00    +0.000 C 
BRANCH   9  10
ATOM     10  C   UNL     1       8.209   9.109  17.957  0.00  0.00    +0.000 C 
BRANCH  10  11
ATOM     11  C   UNL     1       8.980  10.128  18.799  0.00  0.00    +0.000 C 
BRANCH  11  12
ATOM     12  C   UNL     1       9.351  11.375  18.000  0.00  0.00    +0.000 C 
BRANCH  12  14
ATOM     13  C   UNL     1      11.238  12.822  17.164  0.00  0.00    +0.000 C 
ATOM     14  C   UNL     1      10.866  11.590  17.973  0.00  0.00    +0.000 C 
ENDBRANCH  12  14
ENDBRANCH  11  12
ENDBRANCH  10  11
ENDBRANCH   9  10
ENDBRANCH   8   9
ENDBRANCH   6   8
ENDBRANCH   1   6
BRANCH   4  15
ATOM     15  C   UNL     1       3.805   2.347  17.734  0.00  0.00    +0.000 C 
BRANCH  15  16
ATOM     16  C   UNL     1       2.733   2.287  18.823  0.00  0.00    +0.000 C 
BRANCH  16  17
ATOM     17  C   UNL     1       1.600   3.276  18.528  0.00  0.00    +0.000 C 
BRANCH  17  18
ATOM     18  C   UNL     1       1.215   4.070  19.780  0.00  0.00    +0.000 C 
BRANCH  18  19
ATOM     19  C   UNL     1       2.076   5.321  19.962  0.00  0.00    +0.000 C 
ATOM     20  C   UNL     1       1.405   6.360  20.837  0.00  0.00    +0.000 C 
ATOM     21  C   UNL     1       1.938   7.663  20.299  0.00  0.00    +0.000 C 
ATOM     22  C   UNL     1       2.251   7.323  18.874  0.00  0.00    +0.000 C 
ATOM     23  O   UNL     1       2.484   8.130  17.990  0.00  0.00    +0.000 OA
ATOM     24  O   UNL     1       2.272   5.970  18.703  0.00  0.00    +0.000 OA
ENDBRANCH  18  19
ENDBRANCH  17  18
ENDBRANCH  16  17
ENDBRANCH  15  16
ENDBRANCH   4  15
TORSDOF 12
ENDMDL
