MODEL 1
REMARK VINA RESULT:      -7.9      0.000      0.000
REMARK  Name = 
REMARK  4 active torsions:
REMARK  status: ('A' for Active; 'I' for Inactive)
REMARK    1  A    between atoms: C_1  and  C_2
REMARK    2  A    between atoms: C_5  and  C_6
REMARK    3  A    between atoms: C_12  and  C_13
REMARK    4  A    between atoms: C_18  and  C_19
REMARK                            x       y       z     vdW  Elec       q    Type
REMARK                         _______ _______ _______ _____ _____    ______ ____
ROOT
ATOM      1  C   UNL     1       6.827   5.386  19.662  0.00  0.00    +0.000 C 
ATOM      2  C   UNL     1       6.824   4.977  18.244  0.00  0.00    +0.000 A 
ATOM      3  O   UNL     1       8.047   4.616  17.793  0.00  0.00    +0.000 OA
ATOM      4  N   UNL     1       7.987   4.307  16.469  0.00  0.00    +0.000 NA
ATOM      5  C   UNL     1       6.712   4.484  16.079  0.00  0.00    +0.000 A 
ATOM      6  C   UNL     1       5.903   4.871  17.211  0.00  0.00    +0.000 A 
ENDROOT
BRANCH   6   7
ATOM      7  C   UNL     1       4.480   5.201  17.228  0.00  0.00    +0.000 C 
ATOM      8  O   UNL     1       4.105   6.290  16.799  0.00  0.00    +0.000 OA
ATOM      9  N   UNL     1       3.558   4.253  17.690  0.00  0.00    +0.000 N 
ATOM     10  C   UNL     1       2.124   4.547  17.645  0.00  0.00    +0.000 C 
ATOM     11  C   UNL     1       1.423   4.215  18.972  0.00  0.00    +0.000 C 
ATOM     12  C   UNL     1       1.840   2.868  19.592  0.00  0.00    +0.000 C 
ATOM     13  C   UNL     1       1.416   2.796  21.062  0.00  0.00    +0.000 C 
ATOM     14  C   UNL     1       3.353   2.656  19.493  0.00  0.00    +0.000 C 
ATOM     15  C   UNL     1       3.851   2.879  18.070  0.00  0.00    +0.000 C 
ENDBRANCH   6   7
BRANCH   5  16
ATOM     16  C   UNL     1       6.381   4.255  14.662  0.00  0.00    +0.000 A 
ATOM     17  C   UNL     1       5.183   3.665  14.255  0.00  0.00    +0.000 A 
ATOM     18  C   UNL     1       4.933   3.430  12.897  0.00  0.00    +0.000 A 
ATOM     19  C   UNL     1       5.882   3.772  11.935  0.00  0.00    +0.000 A 
ATOM     20  C   UNL     1       7.081   4.358  12.324  0.00  0.00    +0.000 A 
ATOM     21  C   UNL     1       7.325   4.602  13.676  0.00  0.00    +0.000 A 
ENDBRANCH   5  16
TORSDOF 2
ENDMDL
MODEL 2
REMARK VINA RESULT:      -7.7      3.302      5.400
REMARK  Name = 
REMARK  4 active torsions:
REMARK  status: ('A' for Active; 'I' for Inactive)
REMARK    1  A    between atoms: C_1  and  C_2
REMARK    2  A    between atoms: C_5  and  C_6
REMARK    3  A    between atoms: C_12  and  C_13
REMARK    4  A    between atoms: C_18  and  C_19
REMARK                            x       y       z     vdW  Elec       q    Type
REMARK                         _______ _______ _______ _____ _____    ______ ____
ROOT
ATOM      1  C   UNL     1       0.708   3.138  18.407  0.00  0.00    +0.000 C 
ATOM      2  C   UNL     1       2.037   3.740  18.185  0.00  0.00    +0.000 A 
ATOM      3  O   UNL     1       2.759   3.098  17.237  0.00  0.00    +0.000 OA
ATOM      4  N   UNL     1       3.991   3.664  17.122  0.00  0.00    +0.000 NA
ATOM      5  C   UNL     1       4.049   4.669  18.014  0.00  0.00    +0.000 A 
ATOM      6  C   UNL     1       2.783   4.793  18.697  0.00  0.00    +0.000 A 
ENDROOT
BRANCH   6   7
ATOM      7  C   UNL     1       2.425   5.722  19.766  0.00  0.00    +0.000 C 
ATOM      8  O   UNL     1       2.260   5.298  20.907  0.00  0.00    +0.000 OA
ATOM      9  N   UNL     1       2.321   7.090  19.483  0.00  0.00    +0.000 N 
ATOM     10  C   UNL     1       2.031   8.038  20.562  0.00  0.00    +0.000 C 
ATOM     11  C   UNL     1       0.917   9.025  20.182  0.00  0.00    +0.000 C 
ATOM     12  C   UNL     1       1.035   9.602  18.759  0.00  0.00    +0.000 C 
ATOM     13  C   UNL     1      -0.286  10.244  18.325  0.00  0.00    +0.000 C 
ATOM     14  C   UNL     1       1.425   8.518  17.750  0.00  0.00    +0.000 C 
ATOM     15  C   UNL     1       2.646   7.738  18.221  0.00  0.00    +0.000 C 
ENDBRANCH   6   7
BRANCH   5  16
ATOM     16  C   UNL     1       5.307   5.428  18.124  0.00  0.00    +0.000 A 
ATOM     17  C   UNL     1       5.693   6.386  17.185  0.00  0.00    +0.000 A 
ATOM     18  C   UNL     1       6.919   7.051  17.311  0.00  0.00    +0.000 A 
ATOM     19  C   UNL     1       7.776   6.757  18.371  0.00  0.00    +0.000 A 
ATOM     20  C   UNL     1       7.408   5.804  19.313  0.00  0.00    +0.000 A 
ATOM     21  C   UNL     1       6.181   5.150  19.193  0.00  0.00    +0.000 A 
ENDBRANCH   5  16
TORSDOF 2
ENDMDL
MODEL 3
REMARK VINA RESULT:      -7.7      0.097      1.055
REMARK  Name = 
REMARK  4 active torsions:
REMARK  status: ('A' for Active; 'I' for Inactive)
REMARK    1  A    between atoms: C_1  and  C_2
REMARK    2  A    between atoms: C_5  and  C_6
REMARK    3  A    between atoms: C_12  and  C_13
REMARK    4  A    between atoms: C_18  and  C_19
REMARK                            x       y       z     vdW  Elec       q    Type
REMARK                         _______ _______ _______ _____ _____    ______ ____
ROOT
ATOM      1  C   UNL     1       6.750   5.338  19.737  0.00  0.00    +0.000 C 
ATOM      2  C   UNL     1       6.806   4.937  18.318  0.00  0.00    +0.000 A 
ATOM      3  O   UNL     1       8.049   4.589  17.914  0.00  0.00    +0.000 OA
ATOM      4  N   UNL     1       8.043   4.287  16.586  0.00  0.00    +0.000 NA
ATOM      5  C   UNL     1       6.782   4.455  16.148  0.00  0.00    +0.000 A 
ATOM      6  C   UNL     1       5.926   4.829  17.250  0.00  0.00    +0.000 A 
ENDROOT
BRANCH   6   7
ATOM      7  C   UNL     1       4.501   5.148  17.213  0.00  0.00    +0.000 C 
ATOM      8  O   UNL     1       4.132   6.221  16.743  0.00  0.00    +0.000 OA
ATOM      9  N   UNL     1       3.572   4.205  17.671  0.00  0.00    +0.000 N 
ATOM     10  C   UNL     1       2.138   4.485  17.574  0.00  0.00    +0.000 C 
ATOM     11  C   UNL     1       1.398   4.183  18.886  0.00  0.00    +0.000 C 
ATOM     12  C   UNL     1       1.806   2.857  19.555  0.00  0.00    +0.000 C 
ATOM     13  C   UNL     1       1.335   2.821  21.012  0.00  0.00    +0.000 C 
ATOM     14  C   UNL     1       3.323   2.655  19.509  0.00  0.00    +0.000 C 
ATOM     15  C   UNL     1       3.863   2.844  18.098  0.00  0.00    +0.000 C 
ENDBRANCH   6   7
BRANCH   5  16
ATOM     16  C   UNL     1       6.509   4.231  14.718  0.00  0.00    +0.000 A 
ATOM     17  C   UNL     1       7.383   4.642  13.711  0.00  0.00    +0.000 A 
ATOM     18  C   UNL     1       7.059   4.444  12.363  0.00  0.00    +0.000 A 
ATOM     19  C   UNL     1       5.852   3.842  12.009  0.00  0.00    +0.000 A 
ATOM     20  C   UNL     1       4.968   3.429  13.000  0.00  0.00    +0.000 A 
ATOM     21  C   UNL     1       5.298   3.617  14.343  0.00  0.00    +0.000 A 
ENDBRANCH   5  16
TORSDOF 2
ENDMDL
MODEL 4
REMARK VINA RESULT:      -7.5      3.259      5.330
REMARK  Name = 
REMARK  4 active torsions:
REMARK  status: ('A' for Active; 'I' for Inactive)
REMARK    1  A    between atoms: C_1  and  C_2
REMARK    2  A    between atoms: C_5  and  C_6
REMARK    3  A    between atoms: C_12  and  C_13
REMARK    4  A    between atoms: C_18  and  C_19
REMARK                            x       y       z     vdW  Elec       q    Type
REMARK                         _______ _______ _______ _____ _____    ______ ____
ROOT
ATOM      1  C   UNL     1       0.769   3.139  18.348  0.00  0.00    +0.000 C 
ATOM      2  C   UNL     1       2.115   3.709  18.148  0.00  0.00    +0.000 A 
ATOM      3  O   UNL     1       2.833   3.057  17.205  0.00  0.00    +0.000 OA
ATOM      4  N   UNL     1       4.080   3.593  17.111  0.00  0.00    +0.000 NA
ATOM      5  C   UNL     1       4.151   4.590  18.010  0.00  0.00    +0.000 A 
ATOM      6  C   UNL     1       2.879   4.741  18.677  0.00  0.00    +0.000 A 
ENDROOT
BRANCH   6   7
ATOM      7  C   UNL     1       2.530   5.671  19.748  0.00  0.00    +0.000 C 
ATOM      8  O   UNL     1       2.390   5.251  20.894  0.00  0.00    +0.000 OA
ATOM      9  N   UNL     1       2.405   7.036  19.461  0.00  0.00    +0.000 N 
ATOM     10  C   UNL     1       2.124   7.986  20.540  0.00  0.00    +0.000 C 
ATOM     11  C   UNL     1       0.991   8.958  20.176  0.00  0.00    +0.000 C 
ATOM     12  C   UNL     1       1.078   9.529  18.748  0.00  0.00    +0.000 C 
ATOM     13  C   UNL     1      -0.258  10.154  18.334  0.00  0.00    +0.000 C 
ATOM     14  C   UNL     1       1.461   8.445  17.738  0.00  0.00    +0.000 C 
ATOM     15  C   UNL     1       2.700   7.681  18.190  0.00  0.00    +0.000 C 
ENDBRANCH   6   7
BRANCH   5  16
ATOM     16  C   UNL     1       5.426   5.317  18.142  0.00  0.00    +0.000 A 
ATOM     17  C   UNL     1       6.295   5.123  19.217  0.00  0.00    +0.000 A 
ATOM     18  C   UNL     1       7.476   5.868  19.320  0.00  0.00    +0.000 A 
ATOM     19  C   UNL     1       7.794   6.823  18.354  0.00  0.00    +0.000 A 
ATOM     20  C   UNL     1       6.938   7.031  17.279  0.00  0.00    +0.000 A 
ATOM     21  C   UNL     1       5.767   6.279  17.172  0.00  0.00    +0.000 A 
ENDBRANCH   5  16
TORSDOF 2
ENDMDL
MODEL 5
REMARK VINA RESULT:      -7.5      2.895      6.295
REMARK  Name = 
REMARK  4 active torsions:
REMARK  status: ('A' for Active; 'I' for Inactive)
REMARK    1  A    between atoms: C_1  and  C_2
REMARK    2  A    between atoms: C_5  and  C_6
REMARK    3  A    between atoms: C_12  and  C_13
REMARK    4  A    between atoms: C_18  and  C_19
REMARK                            x       y       z     vdW  Elec       q    Type
REMARK                         _______ _______ _______ _____ _____    ______ ____
ROOT
ATOM      1  C   UNL     1       3.708   1.378  17.465  0.00  0.00    +0.000 C 
ATOM      2  C   UNL     1       3.176   2.713  17.797  0.00  0.00    +0.000 A 
ATOM      3  O   UNL     1       1.930   2.925  17.313  0.00  0.00    +0.000 OA
ATOM      4  N   UNL     1       1.523   4.191  17.603  0.00  0.00    +0.000 NA
ATOM      5  C   UNL     1       2.527   4.786  18.270  0.00  0.00    +0.000 A 
ATOM      6  C   UNL     1       3.608   3.850  18.467  0.00  0.00    +0.000 A 
ENDROOT
BRANCH   6   7
ATOM      7  C   UNL     1       4.901   4.090  19.104  0.00  0.00    +0.000 C 
ATOM      8  O   UNL     1       5.107   3.664  20.237  0.00  0.00    +0.000 OA
ATOM      9  N   UNL     1       5.904   4.762  18.393  0.00  0.00    +0.000 N 
ATOM     10  C   UNL     1       7.227   4.946  18.995  0.00  0.00    +0.000 C 
ATOM     11  C   UNL     1       7.730   6.391  18.857  0.00  0.00    +0.000 C 
ATOM     12  C   UNL     1       7.502   7.014  17.467  0.00  0.00    +0.000 C 
ATOM     13  C   UNL     1       7.659   8.537  17.525  0.00  0.00    +0.000 C 
ATOM     14  C   UNL     1       6.113   6.670  16.924  0.00  0.00    +0.000 C 
ATOM     15  C   UNL     1       5.846   5.172  16.998  0.00  0.00    +0.000 C 
ENDBRANCH   6   7
BRANCH   5  16
ATOM     16  C   UNL     1       2.357   6.194  18.668  0.00  0.00    +0.000 A 
ATOM     17  C   UNL     1       2.005   6.572  19.965  0.00  0.00    +0.000 A 
ATOM     18  C   UNL     1       1.813   7.922  20.285  0.00  0.00    +0.000 A 
ATOM     19  C   UNL     1       1.961   8.906  19.309  0.00  0.00    +0.000 A 
ATOM     20  C   UNL     1       2.309   8.547  18.012  0.00  0.00    +0.000 A 
ATOM     21  C   UNL     1       2.510   7.202  17.697  0.00  0.00    +0.000 A 
ENDBRANCH   5  16
TORSDOF 2
ENDMDL
MODEL 6
REMARK VINA RESULT:      -7.3      2.911      6.264
REMARK  Name = 
REMARK  4 active torsions:
REMARK  status: ('A' for Active; 'I' for Inactive)
REMARK    1  A    between atoms: C_1  and  C_2
REMARK    2  A    between atoms: C_5  and  C_6
REMARK    3  A    between atoms: C_12  and  C_13
REMARK    4  A    between atoms: C_18  and  C_19
REMARK                            x       y       z     vdW  Elec       q    Type
REMARK                         _______ _______ _______ _____ _____    ______ ____
ROOT
ATOM      1  C   UNL     1       3.817   1.219  17.812  0.00  0.00    +0.000 C 
ATOM      2  C   UNL     1       3.268   2.575  18.003  0.00  0.00    +0.000 A 
ATOM      3  O   UNL     1       2.034   2.728  17.469  0.00  0.00    +0.000 OA
ATOM      4  N   UNL     1       1.610   4.012  17.628  0.00  0.00    +0.000 NA
ATOM      5  C   UNL     1       2.592   4.677  18.262  0.00  0.00    +0.000 A 
ATOM      6  C   UNL     1       3.674   3.774  18.575  0.00  0.00    +0.000 A 
ENDROOT
BRANCH   6   7
ATOM      7  C   UNL     1       4.948   4.085  19.219  0.00  0.00    +0.000 C 
ATOM      8  O   UNL     1       5.143   3.730  20.378  0.00  0.00    +0.000 OA
ATOM      9  N   UNL     1       5.947   4.742  18.488  0.00  0.00    +0.000 N 
ATOM     10  C   UNL     1       7.252   4.996  19.101  0.00  0.00    +0.000 C 
ATOM     11  C   UNL     1       7.720   6.444  18.889  0.00  0.00    +0.000 C 
ATOM     12  C   UNL     1       7.503   6.980  17.462  0.00  0.00    +0.000 C 
ATOM     13  C   UNL     1       7.619   8.507  17.434  0.00  0.00    +0.000 C 
ATOM     14  C   UNL     1       6.134   6.568  16.915  0.00  0.00    +0.000 C 
ATOM     15  C   UNL     1       5.904   5.070  17.071  0.00  0.00    +0.000 C 
ENDBRANCH   6   7
BRANCH   5  16
ATOM     16  C   UNL     1       2.401   6.115  18.521  0.00  0.00    +0.000 A 
ATOM     17  C   UNL     1       2.599   7.089  17.541  0.00  0.00    +0.000 A 
ATOM     18  C   UNL     1       2.446   8.447  17.848  0.00  0.00    +0.000 A 
ATOM     19  C   UNL     1       2.104   8.844  19.141  0.00  0.00    +0.000 A 
ATOM     20  C   UNL     1       1.906   7.887  20.129  0.00  0.00    +0.000 A 
ATOM     21  C   UNL     1       2.048   6.533  19.819  0.00  0.00    +0.000 A 
ENDBRANCH   5  16
TORSDOF 2
ENDMDL
MODEL 7
REMARK VINA RESULT:      -7.1      1.794      2.145
REMARK  Name = 
REMARK  4 active torsions:
REMARK  status: ('A' for Active; 'I' for Inactive)
REMARK    1  A    between atoms: C_1  and  C_2
REMARK    2  A    between atoms: C_5  and  C_6
REMARK    3  A    between atoms: C_12  and  C_13
REMARK    4  A    between atoms: C_18  and  C_19
REMARK                            x       y       z     vdW  Elec       q    Type
REMARK                         _______ _______ _______ _____ _____    ______ ____
ROOT
ATOM      1  C   UNL     1       7.255   5.837  19.705  0.00  0.00    +0.000 C 
ATOM      2  C   UNL     1       7.231   5.343  18.315  0.00  0.00    +0.000 A 
ATOM      3  O   UNL     1       8.130   4.359  18.086  0.00  0.00    +0.000 OA
ATOM      4  N   UNL     1       8.098   3.989  16.776  0.00  0.00    +0.000 NA
ATOM      5  C   UNL     1       7.172   4.755  16.172  0.00  0.00    +0.000 A 
ATOM      6  C   UNL     1       6.541   5.619  17.142  0.00  0.00    +0.000 A 
ENDROOT
BRANCH   6   7
ATOM      7  C   UNL     1       5.517   6.635  16.910  0.00  0.00    +0.000 C 
ATOM      8  O   UNL     1       5.770   7.597  16.190  0.00  0.00    +0.000 OA
ATOM      9  N   UNL     1       4.245   6.472  17.475  0.00  0.00    +0.000 N 
ATOM     10  C   UNL     1       3.190   7.447  17.192  0.00  0.00    +0.000 C 
ATOM     11  C   UNL     1       2.461   7.899  18.467  0.00  0.00    +0.000 C 
ATOM     12  C   UNL     1       2.113   6.756  19.439  0.00  0.00    +0.000 C 
ATOM     13  C   UNL     1       1.760   7.312  20.822  0.00  0.00    +0.000 C 
ATOM     14  C   UNL     1       3.273   5.767  19.573  0.00  0.00    +0.000 C 
ATOM     15  C   UNL     1       3.769   5.308  18.208  0.00  0.00    +0.000 C 
ENDBRANCH   6   7
BRANCH   5  16
ATOM     16  C   UNL     1       6.967   4.583  14.723  0.00  0.00    +0.000 A 
ATOM     17  C   UNL     1       6.021   3.701  14.197  0.00  0.00    +0.000 A 
ATOM     18  C   UNL     1       5.892   3.542  12.812  0.00  0.00    +0.000 A 
ATOM     19  C   UNL     1       6.714   4.254  11.939  0.00  0.00    +0.000 A 
ATOM     20  C   UNL     1       7.663   5.134  12.447  0.00  0.00    +0.000 A 
ATOM     21  C   UNL     1       7.783   5.301  13.828  0.00  0.00    +0.000 A 
ENDBRANCH   5  16
TORSDOF 2
ENDMDL
MODEL 8
REMARK VINA RESULT:      -7.0      2.365      4.836
REMARK  Name = 
REMARK  4 active torsions:
REMARK  status: ('A' for Active; 'I' for Inactive)
REMARK    1  A    between atoms: C_1  and  C_2
REMARK    2  A    between atoms: C_5  and  C_6
REMARK    3  A    between atoms: C_12  and  C_13
REMARK    4  A    between atoms: C_18  and  C_19
REMARK                            x       y       z     vdW  Elec       q    Type
REMARK                         _______ _______ _______ _____ _____    ______ ____
ROOT
ATOM      1  C   UNL     1       6.434   3.817  15.856  0.00  0.00    +0.000 C 
ATOM      2  C   UNL     1       5.594   4.867  16.463  0.00  0.00    +0.000 A 
ATOM      3  O   UNL     1       6.230   6.055  16.580  0.00  0.00    +0.000 OA
ATOM      4  N   UNL     1       5.423   6.960  17.198  0.00  0.00    +0.000 NA
ATOM      5  C   UNL     1       4.268   6.333  17.480  0.00  0.00    +0.000 A 
ATOM      6  C   UNL     1       4.309   4.980  16.976  0.00  0.00    +0.000 A 
ENDROOT
BRANCH   6   7
ATOM      7  C   UNL     1       3.287   3.943  17.101  0.00  0.00    +0.000 C 
ATOM      8  O   UNL     1       2.524   3.728  16.164  0.00  0.00    +0.000 OA
ATOM      9  N   UNL     1       3.225   3.176  18.272  0.00  0.00    +0.000 N 
ATOM     10  C   UNL     1       2.252   2.087  18.381  0.00  0.00    +0.000 C 
ATOM     11  C   UNL     1       1.483   2.127  19.710  0.00  0.00    +0.000 C 
ATOM     12  C   UNL     1       2.362   2.403  20.945  0.00  0.00    +0.000 C 
ATOM     13  C   UNL     1       1.498   2.814  22.141  0.00  0.00    +0.000 C 
ATOM     14  C   UNL     1       3.388   3.503  20.662  0.00  0.00    +0.000 C 
ATOM     15  C   UNL     1       4.165   3.218  19.383  0.00  0.00    +0.000 C 
ENDBRANCH   6   7
BRANCH   5  16
ATOM     16  C   UNL     1       3.226   7.088  18.197  0.00  0.00    +0.000 A 
ATOM     17  C   UNL     1       2.668   8.264  17.694  0.00  0.00    +0.000 A 
ATOM     18  C   UNL     1       1.709   8.969  18.432  0.00  0.00    +0.000 A 
ATOM     19  C   UNL     1       1.306   8.509  19.686  0.00  0.00    +0.000 A 
ATOM     20  C   UNL     1       1.853   7.341  20.202  0.00  0.00    +0.000 A 
ATOM     21  C   UNL     1       2.800   6.633  19.460  0.00  0.00    +0.000 A 
ENDBRANCH   5  16
TORSDOF 2
ENDMDL
MODEL 9
REMARK VINA RESULT:      -7.0      2.891      4.491
REMARK  Name = 
REMARK  4 active torsions:
REMARK  status: ('A' for Active; 'I' for Inactive)
REMARK    1  A    between atoms: C_1  and  C_2
REMARK    2  A    between atoms: C_5  and  C_6
REMARK    3  A    between atoms: C_12  and  C_13
REMARK    4  A    between atoms: C_18  and  C_19
REMARK                            x       y       z     vdW  Elec       q    Type
REMARK                         _______ _______ _______ _____ _____    ______ ____
ROOT
ATOM      1  C   UNL     1       0.555   9.183  18.684  0.00  0.00    +0.000 C 
ATOM      2  C   UNL     1       1.804   8.508  18.280  0.00  0.00    +0.000 A 
ATOM      3  O   UNL     1       2.458   9.153  17.286  0.00  0.00    +0.000 OA
ATOM      4  N   UNL     1       3.566   8.451  16.922  0.00  0.00    +0.000 NA
ATOM      5  C   UNL     1       3.605   7.347  17.689  0.00  0.00    +0.000 A 
ATOM      6  C   UNL     1       2.507   7.362  18.626  0.00  0.00    +0.000 A 
ENDROOT
BRANCH   6   7
ATOM      7  C   UNL     1       2.150   6.343  19.610  0.00  0.00    +0.000 C 
ATOM      8  O   UNL     1       2.047   6.653  20.794  0.00  0.00    +0.000 OA
ATOM      9  N   UNL     1       1.884   5.036  19.181  0.00  0.00    +0.000 N 
ATOM     10  C   UNL     1       1.457   4.023  20.149  0.00  0.00    +0.000 C 
ATOM     11  C   UNL     1       2.240   2.710  19.998  0.00  0.00    +0.000 C 
ATOM     12  C   UNL     1       2.429   2.247  18.540  0.00  0.00    +0.000 C 
ATOM     13  C   UNL     1       3.526   1.182  18.450  0.00  0.00    +0.000 C 
ATOM     14  C   UNL     1       2.789   3.421  17.626  0.00  0.00    +0.000 C 
ATOM     15  C   UNL     1       1.813   4.577  17.802  0.00  0.00    +0.000 C 
ENDBRANCH   6   7
BRANCH   5  16
ATOM     16  C   UNL     1       4.696   6.384  17.464  0.00  0.00    +0.000 A 
ATOM     17  C   UNL     1       5.421   5.809  18.510  0.00  0.00    +0.000 A 
ATOM     18  C   UNL     1       6.478   4.930  18.243  0.00  0.00    +0.000 A 
ATOM     19  C   UNL     1       6.828   4.625  16.928  0.00  0.00    +0.000 A 
ATOM     20  C   UNL     1       6.119   5.191  15.875  0.00  0.00    +0.000 A 
ATOM     21  C   UNL     1       5.058   6.058  16.142  0.00  0.00    +0.000 A 
ENDBRANCH   5  16
TORSDOF 2
ENDMDL
