MODEL 1
REMARK VINA RESULT:      -5.0      0.000      0.000
REMARK  Name = 
REMARK  11 active torsions:
REMARK  status: ('A' for Active; 'I' for Inactive)
REMARK    1  A    between atoms: C_2  and  C_3
REMARK    2  A    between atoms: C_3  and  N_4
REMARK    3  A    between atoms: N_4  and  C_5
REMARK    4  A    between atoms: N_4  and  C_6
REMARK    5  A    between atoms: C_6  and  C_7
REMARK    6  A    between atoms: C_6  and  C_8
REMARK    7  A    between atoms: C_8  and  C_9
REMARK    8  A    between atoms: C_9  and  C_10
REMARK    9  A    between atoms: C_10  and  O_12
REMARK   10  A    between atoms: O_12  and  C_13
REMARK   11  A    between atoms: C_13  and  C_14
REMARK                            x       y       z     vdW  Elec       q    Type
REMARK                         _______ _______ _______ _____ _____    ______ ____
ROOT
ATOM      1  C   UNL     1       5.006   4.951  17.011  0.00  0.00    +0.000 C 
ATOM      2  C   UNL     1       5.190   4.162  15.698  0.00  0.00    +0.000 C 
ENDROOT
BRANCH   1   3
ATOM      3  N   UNL     1       5.987   4.526  18.042  0.00  0.00    +0.000 NA
ATOM      4  C   UNL     1       5.682   5.099  19.366  0.00  0.00    +0.000 C 
BRANCH   3   5
ATOM      5  C   UNL     1       7.351   4.899  17.643  0.00  0.00    +0.000 C 
BRANCH   5   7
ATOM      6  C   UNL     1       7.621   7.709  17.586  0.00  0.00    +0.000 C 
ATOM      7  C   UNL     1       7.497   6.411  17.612  0.00  0.00    +0.000 C 
ENDBRANCH   5   7
ENDBRANCH   3   5
ENDBRANCH   1   3
BRANCH   1   8
ATOM      8  C   UNL     1       3.552   4.766  17.505  0.00  0.00    +0.000 C 
BRANCH   8   9
ATOM      9  C   UNL     1       2.919   3.432  17.104  0.00  0.00    +0.000 C 
BRANCH   9  10
ATOM     10  C   UNL     1       2.844   2.512  18.287  0.00  0.00    +0.000 C 
ATOM     11  O   UNL     1       3.794   1.878  18.749  0.00  0.00    +0.000 OA
BRANCH  10  12
ATOM     12  O   UNL     1       1.552   2.390  18.700  0.00  0.00    +0.000 OA
BRANCH  12  13
ATOM     13  C   UNL     1       1.385   2.582  20.108  0.00  0.00    +0.000 C 
ATOM     14  C   UNL     1       1.017   4.035  20.346  0.00  0.00    +0.000 C 
ENDBRANCH  12  13
ENDBRANCH  10  12
ENDBRANCH   9  10
ENDBRANCH   8   9
ENDBRANCH   1   8
TORSDOF 8
ENDMDL
MODEL 2
REMARK VINA RESULT:      -5.0      2.694      5.614
REMARK  Name = 
REMARK  11 active torsions:
REMARK  status: ('A' for Active; 'I' for Inactive)
REMARK    1  A    between atoms: C_2  and  C_3
REMARK    2  A    between atoms: C_3  and  N_4
REMARK    3  A    between atoms: N_4  and  C_5
REMARK    4  A    between atoms: N_4  and  C_6
REMARK    5  A    between atoms: C_6  and  C_7
REMARK    6  A    between atoms: C_6  and  C_8
REMARK    7  A    between atoms: C_8  and  C_9
REMARK    8  A    between atoms: C_9  and  C_10
REMARK    9  A    between atoms: C_10  and  O_12
REMARK   10  A    between atoms: O_12  and  C_13
REMARK   11  A    between atoms: C_13  and  C_14
REMARK                            x       y       z     vdW  Elec       q    Type
REMARK                         _______ _______ _______ _____ _____    ______ ____
ROOT
ATOM      1  C   UNL     1       4.559   4.295  18.242  0.00  0.00    +0.000 C 
ATOM      2  C   UNL     1       3.608   5.348  17.636  0.00  0.00    +0.000 C 
ENDROOT
BRANCH   1   3
ATOM      3  N   UNL     1       3.868   3.457  19.254  0.00  0.00    +0.000 NA
ATOM      4  C   UNL     1       3.496   2.135  18.718  0.00  0.00    +0.000 C 
BRANCH   3   5
ATOM      5  C   UNL     1       2.669   4.140  19.760  0.00  0.00    +0.000 C 
BRANCH   5   7
ATOM      6  C   UNL     1       1.427   2.584  21.762  0.00  0.00    +0.000 C 
ATOM      7  C   UNL     1       2.000   3.303  20.838  0.00  0.00    +0.000 C 
ENDBRANCH   5   7
ENDBRANCH   3   5
ENDBRANCH   1   3
BRANCH   1   8
ATOM      8  C   UNL     1       5.784   5.019  18.850  0.00  0.00    +0.000 C 
BRANCH   8   9
ATOM      9  C   UNL     1       6.519   5.936  17.869  0.00  0.00    +0.000 C 
BRANCH   9  10
ATOM     10  C   UNL     1       7.379   5.127  16.942  0.00  0.00    +0.000 C 
ATOM     11  O   UNL     1       8.119   4.207  17.290  0.00  0.00    +0.000 OA
BRANCH  10  12
ATOM     12  O   UNL     1       7.309   5.637  15.680  0.00  0.00    +0.000 OA
BRANCH  12  13
ATOM     13  C   UNL     1       6.082   5.332  15.012  0.00  0.00    +0.000 C 
ATOM     14  C   UNL     1       6.160   3.902  14.512  0.00  0.00    +0.000 C 
ENDBRANCH  12  13
ENDBRANCH  10  12
ENDBRANCH   9  10
ENDBRANCH   8   9
ENDBRANCH   1   8
TORSDOF 8
ENDMDL
MODEL 3
REMARK VINA RESULT:      -4.9      2.612      5.397
REMARK  Name = 
REMARK  11 active torsions:
REMARK  status: ('A' for Active; 'I' for Inactive)
REMARK    1  A    between atoms: C_2  and  C_3
REMARK    2  A    between atoms: C_3  and  N_4
REMARK    3  A    between atoms: N_4  and  C_5
REMARK    4  A    between atoms: N_4  and  C_6
REMARK    5  A    between atoms: C_6  and  C_7
REMARK    6  A    between atoms: C_6  and  C_8
REMARK    7  A    between atoms: C_8  and  C_9
REMARK    8  A    between atoms: C_9  and  C_10
REMARK    9  A    between atoms: C_10  and  O_12
REMARK   10  A    between atoms: O_12  and  C_13
REMARK   11  A    between atoms: C_13  and  C_14
REMARK                            x       y       z     vdW  Elec       q    Type
REMARK                         _______ _______ _______ _____ _____    ______ ____
ROOT
ATOM      1  C   UNL     1       3.617   4.203  18.470  0.00  0.00    +0.000 C 
ATOM      2  C   UNL     1       4.305   5.240  19.382  0.00  0.00    +0.000 C 
ENDROOT
BRANCH   1   3
ATOM      3  N   UNL     1       4.023   2.818  18.821  0.00  0.00    +0.000 NA
ATOM      4  C   UNL     1       3.182   1.808  18.152  0.00  0.00    +0.000 C 
BRANCH   3   5
ATOM      5  C   UNL     1       3.975   2.617  20.275  0.00  0.00    +0.000 C 
BRANCH   5   7
ATOM      6  C   UNL     1       1.317   2.820  21.206  0.00  0.00    +0.000 C 
ATOM      7  C   UNL     1       2.545   2.727  20.776  0.00  0.00    +0.000 C 
ENDBRANCH   5   7
ENDBRANCH   3   5
ENDBRANCH   1   3
BRANCH   1   8
ATOM      8  C   UNL     1       3.951   4.533  16.997  0.00  0.00    +0.000 C 
BRANCH   8   9
ATOM      9  C   UNL     1       5.358   4.113  16.564  0.00  0.00    +0.000 C 
BRANCH   9  10
ATOM     10  C   UNL     1       6.152   5.311  16.132  0.00  0.00    +0.000 C 
ATOM     11  O   UNL     1       5.708   6.248  15.467  0.00  0.00    +0.000 OA
BRANCH  10  12
ATOM     12  O   UNL     1       7.459   5.153  16.482  0.00  0.00    +0.000 OA
BRANCH  12  13
ATOM     13  C   UNL     1       7.638   4.773  17.849  0.00  0.00    +0.000 C 
ATOM     14  C   UNL     1       7.790   6.037  18.674  0.00  0.00    +0.000 C 
ENDBRANCH  12  13
ENDBRANCH  10  12
ENDBRANCH   9  10
ENDBRANCH   8   9
ENDBRANCH   1   8
TORSDOF 8
ENDMDL
MODEL 4
REMARK VINA RESULT:      -4.9      2.528      5.315
REMARK  Name = 
REMARK  11 active torsions:
REMARK  status: ('A' for Active; 'I' for Inactive)
REMARK    1  A    between atoms: C_2  and  C_3
REMARK    2  A    between atoms: C_3  and  N_4
REMARK    3  A    between atoms: N_4  and  C_5
REMARK    4  A    between atoms: N_4  and  C_6
REMARK    5  A    between atoms: C_6  and  C_7
REMARK    6  A    between atoms: C_6  and  C_8
REMARK    7  A    between atoms: C_8  and  C_9
REMARK    8  A    between atoms: C_9  and  C_10
REMARK    9  A    between atoms: C_10  and  O_12
REMARK   10  A    between atoms: O_12  and  C_13
REMARK   11  A    between atoms: C_13  and  C_14
REMARK                            x       y       z     vdW  Elec       q    Type
REMARK                         _______ _______ _______ _____ _____    ______ ____
ROOT
ATOM      1  C   UNL     1       4.623   4.232  17.573  0.00  0.00    +0.000 C 
ATOM      2  C   UNL     1       3.919   2.861  17.597  0.00  0.00    +0.000 C 
ENDROOT
BRANCH   1   3
ATOM      3  N   UNL     1       3.721   5.315  18.041  0.00  0.00    +0.000 NA
ATOM      4  C   UNL     1       4.072   6.621  17.453  0.00  0.00    +0.000 C 
BRANCH   3   5
ATOM      5  C   UNL     1       3.744   5.410  19.507  0.00  0.00    +0.000 C 
BRANCH   5   7
ATOM      6  C   UNL     1       1.258   4.611  20.580  0.00  0.00    +0.000 C 
ATOM      7  C   UNL     1       2.406   4.980  20.084  0.00  0.00    +0.000 C 
ENDBRANCH   5   7
ENDBRANCH   3   5
ENDBRANCH   1   3
BRANCH   1   8
ATOM      8  C   UNL     1       5.136   4.505  16.139  0.00  0.00    +0.000 C 
BRANCH   8   9
ATOM      9  C   UNL     1       6.639   4.273  15.957  0.00  0.00    +0.000 C 
BRANCH   9  10
ATOM     10  C   UNL     1       7.408   4.942  17.058  0.00  0.00    +0.000 C 
ATOM     11  O   UNL     1       7.860   4.370  18.051  0.00  0.00    +0.000 OA
BRANCH  10  12
ATOM     12  O   UNL     1       7.431   6.289  16.856  0.00  0.00    +0.000 OA
BRANCH  12  13
ATOM     13  C   UNL     1       7.712   7.036  18.042  0.00  0.00    +0.000 C 
ATOM     14  C   UNL     1       7.884   8.493  17.654  0.00  0.00    +0.000 C 
ENDBRANCH  12  13
ENDBRANCH  10  12
ENDBRANCH   9  10
ENDBRANCH   8   9
ENDBRANCH   1   8
TORSDOF 8
ENDMDL
MODEL 5
REMARK VINA RESULT:      -4.9      1.170      2.002
REMARK  Name = 
REMARK  11 active torsions:
REMARK  status: ('A' for Active; 'I' for Inactive)
REMARK    1  A    between atoms: C_2  and  C_3
REMARK    2  A    between atoms: C_3  and  N_4
REMARK    3  A    between atoms: N_4  and  C_5
REMARK    4  A    between atoms: N_4  and  C_6
REMARK    5  A    between atoms: C_6  and  C_7
REMARK    6  A    between atoms: C_6  and  C_8
REMARK    7  A    between atoms: C_8  and  C_9
REMARK    8  A    between atoms: C_9  and  C_10
REMARK    9  A    between atoms: C_10  and  O_12
REMARK   10  A    between atoms: O_12  and  C_13
REMARK   11  A    between atoms: C_13  and  C_14
REMARK                            x       y       z     vdW  Elec       q    Type
REMARK                         _______ _______ _______ _____ _____    ______ ____
ROOT
ATOM      1  C   UNL     1       4.729   4.121  17.939  0.00  0.00    +0.000 C 
ATOM      2  C   UNL     1       4.585   4.953  19.229  0.00  0.00    +0.000 C 
ENDROOT
BRANCH   1   3
ATOM      3  N   UNL     1       5.612   4.796  16.954  0.00  0.00    +0.000 NA
ATOM      4  C   UNL     1       5.675   4.065  15.674  0.00  0.00    +0.000 C 
BRANCH   3   5
ATOM      5  C   UNL     1       6.968   4.957  17.499  0.00  0.00    +0.000 C 
BRANCH   5   7
ATOM      6  C   UNL     1       7.654   7.692  17.626  0.00  0.00    +0.000 C 
ATOM      7  C   UNL     1       7.337   6.429  17.567  0.00  0.00    +0.000 C 
ENDBRANCH   5   7
ENDBRANCH   3   5
ENDBRANCH   1   3
BRANCH   1   8
ATOM      8  C   UNL     1       3.322   3.862  17.351  0.00  0.00    +0.000 C 
BRANCH   8   9
ATOM      9  C   UNL     1       2.685   2.548  17.810  0.00  0.00    +0.000 C 
BRANCH   9  10
ATOM     10  C   UNL     1       1.411   2.818  18.557  0.00  0.00    +0.000 C 
ATOM     11  O   UNL     1       0.351   2.215  18.383  0.00  0.00    +0.000 OA
BRANCH  10  12
ATOM     12  O   UNL     1       1.569   3.901  19.367  0.00  0.00    +0.000 OA
BRANCH  12  13
ATOM     13  C   UNL     1       1.139   3.672  20.712  0.00  0.00    +0.000 C 
ATOM     14  C   UNL     1       2.303   3.079  21.484  0.00  0.00    +0.000 C 
ENDBRANCH  12  13
ENDBRANCH  10  12
ENDBRANCH   9  10
ENDBRANCH   8   9
ENDBRANCH   1   8
TORSDOF 8
ENDMDL
MODEL 6
REMARK VINA RESULT:      -4.9      2.734      5.622
REMARK  Name = 
REMARK  11 active torsions:
REMARK  status: ('A' for Active; 'I' for Inactive)
REMARK    1  A    between atoms: C_2  and  C_3
REMARK    2  A    between atoms: C_3  and  N_4
REMARK    3  A    between atoms: N_4  and  C_5
REMARK    4  A    between atoms: N_4  and  C_6
REMARK    5  A    between atoms: C_6  and  C_7
REMARK    6  A    between atoms: C_6  and  C_8
REMARK    7  A    between atoms: C_8  and  C_9
REMARK    8  A    between atoms: C_9  and  C_10
REMARK    9  A    between atoms: C_10  and  O_12
REMARK   10  A    between atoms: O_12  and  C_13
REMARK   11  A    between atoms: C_13  and  C_14
REMARK                            x       y       z     vdW  Elec       q    Type
REMARK                         _______ _______ _______ _____ _____    ______ ____
ROOT
ATOM      1  C   UNL     1       3.992   5.224  17.966  0.00  0.00    +0.000 C 
ATOM      2  C   UNL     1       3.550   6.702  17.955  0.00  0.00    +0.000 C 
ENDROOT
BRANCH   1   3
ATOM      3  N   UNL     1       3.003   4.366  18.666  0.00  0.00    +0.000 NA
ATOM      4  C   UNL     1       1.722   4.291  17.940  0.00  0.00    +0.000 C 
BRANCH   3   5
ATOM      5  C   UNL     1       2.769   4.856  20.032  0.00  0.00    +0.000 C 
BRANCH   5   7
ATOM      6  C   UNL     1       1.623   2.821  21.619  0.00  0.00    +0.000 C 
ATOM      7  C   UNL     1       2.153   3.760  20.887  0.00  0.00    +0.000 C 
ENDBRANCH   5   7
ENDBRANCH   3   5
ENDBRANCH   1   3
BRANCH   1   8
ATOM      8  C   UNL     1       5.390   5.125  18.620  0.00  0.00    +0.000 C 
BRANCH   8   9
ATOM      9  C   UNL     1       6.461   5.983  17.942  0.00  0.00    +0.000 C 
BRANCH   9  10
ATOM     10  C   UNL     1       7.276   5.150  16.997  0.00  0.00    +0.000 C 
ATOM     11  O   UNL     1       8.005   4.214  17.330  0.00  0.00    +0.000 OA
BRANCH  10  12
ATOM     12  O   UNL     1       7.184   5.654  15.735  0.00  0.00    +0.000 OA
BRANCH  12  13
ATOM     13  C   UNL     1       5.997   5.251  15.048  0.00  0.00    +0.000 C 
ATOM     14  C   UNL     1       6.337   4.055  14.179  0.00  0.00    +0.000 C 
ENDBRANCH  12  13
ENDBRANCH  10  12
ENDBRANCH   9  10
ENDBRANCH   8   9
ENDBRANCH   1   8
TORSDOF 8
ENDMDL
MODEL 7
REMARK VINA RESULT:      -4.9      1.728      2.570
REMARK  Name = 
REMARK  11 active torsions:
REMARK  status: ('A' for Active; 'I' for Inactive)
REMARK    1  A    between atoms: C_2  and  C_3
REMARK    2  A    between atoms: C_3  and  N_4
REMARK    3  A    between atoms: N_4  and  C_5
REMARK    4  A    between atoms: N_4  and  C_6
REMARK    5  A    between atoms: C_6  and  C_7
REMARK    6  A    between atoms: C_6  and  C_8
REMARK    7  A    between atoms: C_8  and  C_9
REMARK    8  A    between atoms: C_9  and  C_10
REMARK    9  A    between atoms: C_10  and  O_12
REMARK   10  A    between atoms: O_12  and  C_13
REMARK   11  A    between atoms: C_13  and  C_14
REMARK                            x       y       z     vdW  Elec       q    Type
REMARK                         _______ _______ _______ _____ _____    ______ ____
ROOT
ATOM      1  C   UNL     1       4.959   4.398  17.750  0.00  0.00    +0.000 C 
ATOM      2  C   UNL     1       4.961   3.808  19.175  0.00  0.00    +0.000 C 
ENDROOT
BRANCH   1   3
ATOM      3  N   UNL     1       6.143   5.263  17.518  0.00  0.00    +0.000 NA
ATOM      4  C   UNL     1       5.777   6.547  16.892  0.00  0.00    +0.000 C 
BRANCH   3   5
ATOM      5  C   UNL     1       7.135   4.571  16.684  0.00  0.00    +0.000 C 
BRANCH   5   7
ATOM      6  C   UNL     1       6.050   4.004  14.140  0.00  0.00    +0.000 C 
ATOM      7  C   UNL     1       6.551   4.265  15.315  0.00  0.00    +0.000 C 
ENDBRANCH   5   7
ENDBRANCH   3   5
ENDBRANCH   1   3
BRANCH   1   8
ATOM      8  C   UNL     1       3.640   5.175  17.533  0.00  0.00    +0.000 C 
BRANCH   8   9
ATOM      9  C   UNL     1       2.666   5.097  18.712  0.00  0.00    +0.000 C 
BRANCH   9  10
ATOM     10  C   UNL     1       1.525   4.178  18.387  0.00  0.00    +0.000 C 
ATOM     11  O   UNL     1       1.110   3.943  17.252  0.00  0.00    +0.000 OA
BRANCH  10  12
ATOM     12  O   UNL     1       0.943   3.737  19.537  0.00  0.00    +0.000 OA
BRANCH  12  13
ATOM     13  C   UNL     1       1.577   2.578  20.085  0.00  0.00    +0.000 C 
ATOM     14  C   UNL     1       1.724   2.783  21.581  0.00  0.00    +0.000 C 
ENDBRANCH  12  13
ENDBRANCH  10  12
ENDBRANCH   9  10
ENDBRANCH   8   9
ENDBRANCH   1   8
TORSDOF 8
ENDMDL
MODEL 8
REMARK VINA RESULT:      -4.8      2.969      6.004
REMARK  Name = 
REMARK  11 active torsions:
REMARK  status: ('A' for Active; 'I' for Inactive)
REMARK    1  A    between atoms: C_2  and  C_3
REMARK    2  A    between atoms: C_3  and  N_4
REMARK    3  A    between atoms: N_4  and  C_5
REMARK    4  A    between atoms: N_4  and  C_6
REMARK    5  A    between atoms: C_6  and  C_7
REMARK    6  A    between atoms: C_6  and  C_8
REMARK    7  A    between atoms: C_8  and  C_9
REMARK    8  A    between atoms: C_9  and  C_10
REMARK    9  A    between atoms: C_10  and  O_12
REMARK   10  A    between atoms: O_12  and  C_13
REMARK   11  A    between atoms: C_13  and  C_14
REMARK                            x       y       z     vdW  Elec       q    Type
REMARK                         _______ _______ _______ _____ _____    ______ ____
ROOT
ATOM      1  C   UNL     1       3.475   4.722  17.415  0.00  0.00    +0.000 C 
ATOM      2  C   UNL     1       3.697   6.134  17.995  0.00  0.00    +0.000 C 
ENDROOT
BRANCH   1   3
ATOM      3  N   UNL     1       3.031   3.768  18.463  0.00  0.00    +0.000 NA
ATOM      4  C   UNL     1       2.705   2.443  17.903  0.00  0.00    +0.000 C 
BRANCH   3   5
ATOM      5  C   UNL     1       1.868   4.299  19.187  0.00  0.00    +0.000 C 
BRANCH   5   7
ATOM      6  C   UNL     1       1.360   2.752  21.493  0.00  0.00    +0.000 C 
ATOM      7  C   UNL     1       1.595   3.467  20.429  0.00  0.00    +0.000 C 
ENDBRANCH   5   7
ENDBRANCH   3   5
ENDBRANCH   1   3
BRANCH   1   8
ATOM      8  C   UNL     1       4.783   4.249  16.738  0.00  0.00    +0.000 C 
BRANCH   8   9
ATOM      9  C   UNL     1       5.542   5.356  16.002  0.00  0.00    +0.000 C 
BRANCH   9  10
ATOM     10  C   UNL     1       6.900   4.870  15.585  0.00  0.00    +0.000 C 
ATOM     11  O   UNL     1       7.802   4.548  16.359  0.00  0.00    +0.000 OA
BRANCH  10  12
ATOM     12  O   UNL     1       7.026   4.949  14.231  0.00  0.00    +0.000 OA
BRANCH  12  13
ATOM     13  C   UNL     1       6.316   3.923  13.534  0.00  0.00    +0.000 C 
ATOM     14  C   UNL     1       6.839   3.870  12.111  0.00  0.00    +0.000 C 
ENDBRANCH  12  13
ENDBRANCH  10  12
ENDBRANCH   9  10
ENDBRANCH   8   9
ENDBRANCH   1   8
TORSDOF 8
ENDMDL
MODEL 9
REMARK VINA RESULT:      -4.8      1.799      2.432
REMARK  Name = 
REMARK  11 active torsions:
REMARK  status: ('A' for Active; 'I' for Inactive)
REMARK    1  A    between atoms: C_2  and  C_3
REMARK    2  A    between atoms: C_3  and  N_4
REMARK    3  A    between atoms: N_4  and  C_5
REMARK    4  A    between atoms: N_4  and  C_6
REMARK    5  A    between atoms: C_6  and  C_7
REMARK    6  A    between atoms: C_6  and  C_8
REMARK    7  A    between atoms: C_8  and  C_9
REMARK    8  A    between atoms: C_9  and  C_10
REMARK    9  A    between atoms: C_10  and  O_12
REMARK   10  A    between atoms: O_12  and  C_13
REMARK   11  A    between atoms: C_13  and  C_14
REMARK                            x       y       z     vdW  Elec       q    Type
REMARK                         _______ _______ _______ _____ _____    ______ ____
ROOT
ATOM      1  C   UNL     1       4.306   4.562  17.645  0.00  0.00    +0.000 C 
ATOM      2  C   UNL     1       4.970   3.947  18.894  0.00  0.00    +0.000 C 
ENDROOT
BRANCH   1   3
ATOM      3  N   UNL     1       4.562   6.022  17.557  0.00  0.00    +0.000 NA
ATOM      4  C   UNL     1       3.396   6.816  17.986  0.00  0.00    +0.000 C 
BRANCH   3   5
ATOM      5  C   UNL     1       4.940   6.399  16.188  0.00  0.00    +0.000 C 
BRANCH   5   7
ATOM      6  C   UNL     1       6.617   4.429  15.056  0.00  0.00    +0.000 C 
ATOM      7  C   UNL     1       5.843   5.338  15.579  0.00  0.00    +0.000 C 
ENDBRANCH   5   7
ENDBRANCH   3   5
ENDBRANCH   1   3
BRANCH   1   8
ATOM      8  C   UNL     1       2.790   4.256  17.683  0.00  0.00    +0.000 C 
BRANCH   8   9
ATOM      9  C   UNL     1       2.448   2.769  17.555  0.00  0.00    +0.000 C 
BRANCH   9  10
ATOM     10  C   UNL     1       1.478   2.362  18.625  0.00  0.00    +0.000 C 
ATOM     11  O   UNL     1       0.257   2.289  18.479  0.00  0.00    +0.000 OA
BRANCH  10  12
ATOM     12  O   UNL     1       2.133   2.199  19.808  0.00  0.00    +0.000 OA
BRANCH  12  13
ATOM     13  C   UNL     1       1.431   2.748  20.926  0.00  0.00    +0.000 C 
ATOM     14  C   UNL     1       2.006   4.122  21.216  0.00  0.00    +0.000 C 
ENDBRANCH  12  13
ENDBRANCH  10  12
ENDBRANCH   9  10
ENDBRANCH   8   9
ENDBRANCH   1   8
TORSDOF 8
ENDMDL
