MODEL 1
REMARK VINA RESULT:      -8.9      0.000      0.000
REMARK  Name = 
REMARK  8 active torsions:
REMARK  status: ('A' for Active; 'I' for Inactive)
REMARK    1  A    between atoms: C_1  and  C_2
REMARK    2  A    between atoms: C_2  and  C_3
REMARK    3  A    between atoms: C_2  and  C_4
REMARK    4  A    between atoms: C_2  and  C_5
REMARK    5  A    between atoms: C_8  and  S_9
REMARK    6  A    between atoms: S_9  and  N_12
REMARK    7  A    between atoms: N_15  and  C_16
REMARK    8  A    between atoms: C_16  and  C_17
REMARK                            x       y       z     vdW  Elec       q    Type
REMARK                         _______ _______ _______ _____ _____    ______ ____
ROOT
ATOM      1  N   UNL     1      -0.524  10.918  21.563  0.00  0.00    +0.000 NA
ATOM      2  C   UNL     1      -0.579  10.241  20.258  0.00  0.00    +0.000 C 
ATOM      3  C   UNL     1       0.760   9.539  19.931  0.00  0.00    +0.000 C 
ATOM      4  N   UNL     1       1.289   8.673  20.981  0.00  0.00    +0.000 NA
ATOM      5  C   UNL     1       1.192   9.263  22.330  0.00  0.00    +0.000 C 
ATOM      6  C   UNL     1      -0.121  10.034  22.673  0.00  0.00    +0.000 C 
ENDROOT
BRANCH   1   7
ATOM      7  S   UNL     1      -0.769  12.567  21.732  0.00  0.00    +0.000 S 
ATOM      8  O   UNL     1      -0.335  13.203  20.498  0.00  0.00    +0.000 OA
ATOM      9  O   UNL     1      -0.250  12.991  23.002  0.00  0.00    +0.000 OA
BRANCH   7  13
ATOM     10  C   UNL     1      -5.381  12.854  21.911  0.00  0.00    +0.000 A 
ATOM     11  C   UNL     1      -4.702  12.848  20.678  0.00  0.00    +0.000 A 
ATOM     12  C   UNL     1      -3.298  12.789  20.613  0.00  0.00    +0.000 A 
ATOM     13  C   UNL     1      -2.548  12.753  21.788  0.00  0.00    +0.000 A 
ATOM     14  C   UNL     1      -3.199  12.713  23.021  0.00  0.00    +0.000 A 
ATOM     15  C   UNL     1      -4.594  12.778  23.078  0.00  0.00    +0.000 A 
BRANCH  10  17
ATOM     16  C   UNL     1      -7.414  13.041  23.493  0.00  0.00    +0.000 C 
ATOM     17  C   UNL     1      -6.917  12.928  22.034  0.00  0.00    +0.000 C 
ATOM     18  C   UNL     1      -7.548  11.655  21.426  0.00  0.00    +0.000 C 
ATOM     19  C   UNL     1      -7.465  14.156  21.272  0.00  0.00    +0.000 C 
ENDBRANCH  10  17
ENDBRANCH   7  13
ENDBRANCH   1   7
BRANCH   4  20
ATOM     20  C   UNL     1       1.525   7.207  20.734  0.00  0.00    +0.000 C 
BRANCH  20  21
ATOM     21  C   UNL     1       2.417   6.914  19.504  0.00  0.00    +0.000 C 
ATOM     22  O   UNL     1       2.609   7.894  18.751  0.00  0.00    +0.000 OA
ATOM     23  N   UNL     1       3.160   5.735  19.232  0.00  0.00    +0.000 N 
ATOM     24  C   UNL     1       4.389   6.114  18.515  0.00  0.00    +0.000 C 
ATOM     25  C   UNL     1       5.429   5.082  18.827  0.00  0.00    +0.000 C 
ATOM     26  O   UNL     1       6.209   5.135  19.771  0.00  0.00    +0.000 OA
ATOM     27  N   UNL     1       5.154   3.929  18.130  0.00  0.00    +0.000 N 
ATOM     28  C   UNL     1       3.846   3.451  18.383  0.00  0.00    +0.000 A 
ATOM     29  C   UNL     1       3.672   2.107  17.994  0.00  0.00    +0.000 A 
ATOM     30  C   UNL     1       2.532   1.455  18.392  0.00  0.00    +0.000 A 
ATOM     31  C   UNL     1       1.581   2.163  19.139  0.00  0.00    +0.000 A 
ATOM     32  C   UNL     1       1.716   3.560  19.453  0.00  0.00    +0.000 A 
ATOM     33  C   UNL     1       2.856   4.269  19.075  0.00  0.00    +0.000 A 
ATOM     34  H   UNL     1       5.303   3.990  17.125  0.00  0.00    +0.000 HD
ENDBRANCH  20  21
ENDBRANCH   4  20
TORSDOF 5
ENDMDL
MODEL 2
REMARK VINA RESULT:      -8.9      0.436      1.248
REMARK  Name = 
REMARK  8 active torsions:
REMARK  status: ('A' for Active; 'I' for Inactive)
REMARK    1  A    between atoms: C_1  and  C_2
REMARK    2  A    between atoms: C_2  and  C_3
REMARK    3  A    between atoms: C_2  and  C_4
REMARK    4  A    between atoms: C_2  and  C_5
REMARK    5  A    between atoms: C_8  and  S_9
REMARK    6  A    between atoms: S_9  and  N_12
REMARK    7  A    between atoms: N_15  and  C_16
REMARK    8  A    between atoms: C_16  and  C_17
REMARK                            x       y       z     vdW  Elec       q    Type
REMARK                         _______ _______ _______ _____ _____    ______ ____
ROOT
ATOM      1  N   UNL     1      -0.621  10.879  21.641  0.00  0.00    +0.000 NA
ATOM      2  C   UNL     1      -0.693  10.189  20.343  0.00  0.00    +0.000 C 
ATOM      3  C   UNL     1       0.654   9.517  19.987  0.00  0.00    +0.000 C 
ATOM      4  N   UNL     1       1.233   8.675  21.030  0.00  0.00    +0.000 NA
ATOM      5  C   UNL     1       1.157   9.275  22.375  0.00  0.00    +0.000 C 
ATOM      6  C   UNL     1      -0.166  10.016  22.747  0.00  0.00    +0.000 C 
ENDROOT
BRANCH   1   7
ATOM      7  S   UNL     1      -0.903  12.523  21.802  0.00  0.00    +0.000 S 
ATOM      8  O   UNL     1      -0.676  13.136  20.502  0.00  0.00    +0.000 OA
ATOM      9  O   UNL     1      -0.223  13.003  22.972  0.00  0.00    +0.000 OA
BRANCH   7  13
ATOM     10  C   UNL     1      -5.434  13.038  22.567  0.00  0.00    +0.000 A 
ATOM     11  C   UNL     1      -4.530  12.892  23.636  0.00  0.00    +0.000 A 
ATOM     12  C   UNL     1      -3.154  12.707  23.414  0.00  0.00    +0.000 A 
ATOM     13  C   UNL     1      -2.662  12.648  22.111  0.00  0.00    +0.000 A 
ATOM     14  C   UNL     1      -3.530  12.835  21.035  0.00  0.00    +0.000 A 
ATOM     15  C   UNL     1      -4.897  13.012  21.264  0.00  0.00    +0.000 A 
BRANCH  10  17
ATOM     16  C   UNL     1      -7.655  13.855  21.531  0.00  0.00    +0.000 C 
ATOM     17  C   UNL     1      -6.952  13.234  22.759  0.00  0.00    +0.000 C 
ATOM     18  C   UNL     1      -7.207  14.169  23.962  0.00  0.00    +0.000 C 
ATOM     19  C   UNL     1      -7.644  11.879  23.040  0.00  0.00    +0.000 C 
ENDBRANCH  10  17
ENDBRANCH   7  13
ENDBRANCH   1   7
BRANCH   4  20
ATOM     20  C   UNL     1       1.499   7.213  20.789  0.00  0.00    +0.000 C 
BRANCH  20  21
ATOM     21  C   UNL     1       2.375   6.932  19.544  0.00  0.00    +0.000 C 
ATOM     22  O   UNL     1       2.559   7.920  18.801  0.00  0.00    +0.000 OA
ATOM     23  N   UNL     1       3.110   5.754  19.249  0.00  0.00    +0.000 N 
ATOM     24  C   UNL     1       4.331   6.138  18.521  0.00  0.00    +0.000 C 
ATOM     25  C   UNL     1       5.371   5.098  18.807  0.00  0.00    +0.000 C 
ATOM     26  O   UNL     1       6.164   5.139  19.741  0.00  0.00    +0.000 OA
ATOM     27  N   UNL     1       5.083   3.955  18.100  0.00  0.00    +0.000 N 
ATOM     28  C   UNL     1       3.778   3.478  18.364  0.00  0.00    +0.000 A 
ATOM     29  C   UNL     1       3.594   2.140  17.962  0.00  0.00    +0.000 A 
ATOM     30  C   UNL     1       2.457   1.486  18.367  0.00  0.00    +0.000 A 
ATOM     31  C   UNL     1       1.518   2.188  19.135  0.00  0.00    +0.000 A 
ATOM     32  C   UNL     1       1.661   3.581  19.463  0.00  0.00    +0.000 A 
ATOM     33  C   UNL     1       2.799   4.291  19.079  0.00  0.00    +0.000 A 
ATOM     34  H   UNL     1       5.220   4.028  17.094  0.00  0.00    +0.000 HD
ENDBRANCH  20  21
ENDBRANCH   4  20
TORSDOF 5
ENDMDL
MODEL 3
REMARK VINA RESULT:      -8.8      1.584      2.238
REMARK  Name = 
REMARK  8 active torsions:
REMARK  status: ('A' for Active; 'I' for Inactive)
REMARK    1  A    between atoms: C_1  and  C_2
REMARK    2  A    between atoms: C_2  and  C_3
REMARK    3  A    between atoms: C_2  and  C_4
REMARK    4  A    between atoms: C_2  and  C_5
REMARK    5  A    between atoms: C_8  and  S_9
REMARK    6  A    between atoms: S_9  and  N_12
REMARK    7  A    between atoms: N_15  and  C_16
REMARK    8  A    between atoms: C_16  and  C_17
REMARK                            x       y       z     vdW  Elec       q    Type
REMARK                         _______ _______ _______ _____ _____    ______ ____
ROOT
ATOM      1  N   UNL     1       0.217  12.066  19.874  0.00  0.00    +0.000 NA
ATOM      2  C   UNL     1      -0.252  11.071  20.851  0.00  0.00    +0.000 C 
ATOM      3  C   UNL     1      -0.245   9.645  20.252  0.00  0.00    +0.000 C 
ATOM      4  N   UNL     1       1.001   9.241  19.606  0.00  0.00    +0.000 NA
ATOM      5  C   UNL     1       1.586  10.293  18.754  0.00  0.00    +0.000 C 
ATOM      6  C   UNL     1       1.539  11.754  19.299  0.00  0.00    +0.000 C 
ENDROOT
BRANCH   1   7
ATOM      7  S   UNL     1      -0.733  13.351  19.372  0.00  0.00    +0.000 S 
ATOM      8  O   UNL     1      -0.476  13.560  17.955  0.00  0.00    +0.000 OA
ATOM      9  O   UNL     1      -0.600  14.429  20.311  0.00  0.00    +0.000 OA
BRANCH   7  13
ATOM     10  C   UNL     1      -5.122  11.904  19.535  0.00  0.00    +0.000 A 
ATOM     11  C   UNL     1      -4.597  12.742  20.537  0.00  0.00    +0.000 A 
ATOM     12  C   UNL     1      -3.256  13.166  20.512  0.00  0.00    +0.000 A 
ATOM     13  C   UNL     1      -2.412  12.740  19.487  0.00  0.00    +0.000 A 
ATOM     14  C   UNL     1      -2.919  11.945  18.459  0.00  0.00    +0.000 A 
ATOM     15  C   UNL     1      -4.251  11.523  18.495  0.00  0.00    +0.000 A 
BRANCH  10  17
ATOM     16  C   UNL     1      -7.226  11.350  20.928  0.00  0.00    +0.000 C 
ATOM     17  C   UNL     1      -6.582  11.405  19.524  0.00  0.00    +0.000 C 
ATOM     18  C   UNL     1      -6.638   9.979  18.932  0.00  0.00    +0.000 C 
ATOM     19  C   UNL     1      -7.466  12.329  18.656  0.00  0.00    +0.000 C 
ENDBRANCH  10  17
ENDBRANCH   7  13
ENDBRANCH   1   7
BRANCH   4  20
ATOM     20  C   UNL     1       1.773   8.042  20.089  0.00  0.00    +0.000 C 
BRANCH  20  21
ATOM     21  C   UNL     1       2.554   7.308  18.972  0.00  0.00    +0.000 C 
ATOM     22  O   UNL     1       2.866   8.023  17.995  0.00  0.00    +0.000 OA
ATOM     23  N   UNL     1       3.088   5.993  19.008  0.00  0.00    +0.000 N 
ATOM     24  C   UNL     1       4.330   5.973  18.217  0.00  0.00    +0.000 C 
ATOM     25  C   UNL     1       5.206   4.895  18.780  0.00  0.00    +0.000 C 
ATOM     26  O   UNL     1       6.024   5.055  19.678  0.00  0.00    +0.000 OA
ATOM     27  N   UNL     1       4.721   3.666  18.399  0.00  0.00    +0.000 N 
ATOM     28  C   UNL     1       3.367   3.488  18.766  0.00  0.00    +0.000 A 
ATOM     29  C   UNL     1       2.965   2.138  18.732  0.00  0.00    +0.000 A 
ATOM     30  C   UNL     1       1.754   1.802  19.283  0.00  0.00    +0.000 A 
ATOM     31  C   UNL     1       0.960   2.820  19.828  0.00  0.00    +0.000 A 
ATOM     32  C   UNL     1       1.328   4.210  19.776  0.00  0.00    +0.000 A 
ATOM     33  C   UNL     1       2.549   4.605  19.229  0.00  0.00    +0.000 A 
ATOM     34  H   UNL     1       4.836   3.449  17.411  0.00  0.00    +0.000 HD
ENDBRANCH  20  21
ENDBRANCH   4  20
TORSDOF 5
ENDMDL
MODEL 4
REMARK VINA RESULT:      -8.6      1.700      2.328
REMARK  Name = 
REMARK  8 active torsions:
REMARK  status: ('A' for Active; 'I' for Inactive)
REMARK    1  A    between atoms: C_1  and  C_2
REMARK    2  A    between atoms: C_2  and  C_3
REMARK    3  A    between atoms: C_2  and  C_4
REMARK    4  A    between atoms: C_2  and  C_5
REMARK    5  A    between atoms: C_8  and  S_9
REMARK    6  A    between atoms: S_9  and  N_12
REMARK    7  A    between atoms: N_15  and  C_16
REMARK    8  A    between atoms: C_16  and  C_17
REMARK                            x       y       z     vdW  Elec       q    Type
REMARK                         _______ _______ _______ _____ _____    ______ ____
ROOT
ATOM      1  N   UNL     1      -0.062  11.705  22.081  0.00  0.00    +0.000 NA
ATOM      2  C   UNL     1      -0.296  10.413  22.745  0.00  0.00    +0.000 C 
ATOM      3  C   UNL     1      -0.376   9.259  21.718  0.00  0.00    +0.000 C 
ATOM      4  N   UNL     1       0.720   9.196  20.755  0.00  0.00    +0.000 NA
ATOM      5  C   UNL     1       1.093  10.514  20.206  0.00  0.00    +0.000 C 
ATOM      6  C   UNL     1       1.122  11.714  21.202  0.00  0.00    +0.000 C 
ENDROOT
BRANCH   1   7
ATOM      7  S   UNL     1      -1.127  12.992  22.218  0.00  0.00    +0.000 S 
ATOM      8  O   UNL     1      -0.415  14.195  21.814  0.00  0.00    +0.000 OA
ATOM      9  O   UNL     1      -1.790  12.921  23.489  0.00  0.00    +0.000 OA
BRANCH   7  13
ATOM     10  C   UNL     1      -4.347  12.051  19.036  0.00  0.00    +0.000 A 
ATOM     11  C   UNL     1      -2.982  11.840  18.770  0.00  0.00    +0.000 A 
ATOM     12  C   UNL     1      -1.992  12.148  19.720  0.00  0.00    +0.000 A 
ATOM     13  C   UNL     1      -2.356  12.693  20.951  0.00  0.00    +0.000 A 
ATOM     14  C   UNL     1      -3.705  12.870  21.256  0.00  0.00    +0.000 A 
ATOM     15  C   UNL     1      -4.682  12.567  20.304  0.00  0.00    +0.000 A 
BRANCH  10  17
ATOM     16  C   UNL     1      -6.428  10.619  18.490  0.00  0.00    +0.000 C 
ATOM     17  C   UNL     1      -5.468  11.738  18.023  0.00  0.00    +0.000 C 
ATOM     18  C   UNL     1      -4.846  11.286  16.684  0.00  0.00    +0.000 C 
ATOM     19  C   UNL     1      -6.331  12.994  17.760  0.00  0.00    +0.000 C 
ENDBRANCH  10  17
ENDBRANCH   7  13
ENDBRANCH   1   7
BRANCH   4  20
ATOM     20  C   UNL     1       1.605   7.981  20.663  0.00  0.00    +0.000 C 
BRANCH  20  21
ATOM     21  C   UNL     1       2.053   7.640  19.221  0.00  0.00    +0.000 C 
ATOM     22  O   UNL     1       1.997   8.595  18.416  0.00  0.00    +0.000 OA
ATOM     23  N   UNL     1       2.664   6.443  18.763  0.00  0.00    +0.000 N 
ATOM     24  C   UNL     1       3.599   6.783  17.678  0.00  0.00    +0.000 C 
ATOM     25  C   UNL     1       4.679   5.745  17.673  0.00  0.00    +0.000 C 
ATOM     26  O   UNL     1       5.721   5.814  18.314  0.00  0.00    +0.000 OA
ATOM     27  N   UNL     1       4.189   4.577  17.138  0.00  0.00    +0.000 N 
ATOM     28  C   UNL     1       3.030   4.125  17.813  0.00  0.00    +0.000 A 
ATOM     29  C   UNL     1       2.734   2.774  17.543  0.00  0.00    +0.000 A 
ATOM     30  C   UNL     1       1.779   2.150  18.307  0.00  0.00    +0.000 A 
ATOM     31  C   UNL     1       1.122   2.893  19.297  0.00  0.00    +0.000 A 
ATOM     32  C   UNL     1       1.357   4.297  19.506  0.00  0.00    +0.000 A 
ATOM     33  C   UNL     1       2.319   4.978  18.760  0.00  0.00    +0.000 A 
ATOM     34  H   UNL     1       4.008   4.607  16.137  0.00  0.00    +0.000 HD
ENDBRANCH  20  21
ENDBRANCH   4  20
TORSDOF 5
ENDMDL
MODEL 5
REMARK VINA RESULT:      -8.5      1.476      2.734
REMARK  Name = 
REMARK  8 active torsions:
REMARK  status: ('A' for Active; 'I' for Inactive)
REMARK    1  A    between atoms: C_1  and  C_2
REMARK    2  A    between atoms: C_2  and  C_3
REMARK    3  A    between atoms: C_2  and  C_4
REMARK    4  A    between atoms: C_2  and  C_5
REMARK    5  A    between atoms: C_8  and  S_9
REMARK    6  A    between atoms: S_9  and  N_12
REMARK    7  A    between atoms: N_15  and  C_16
REMARK    8  A    between atoms: C_16  and  C_17
REMARK                            x       y       z     vdW  Elec       q    Type
REMARK                         _______ _______ _______ _____ _____    ______ ____
ROOT
ATOM      1  N   UNL     1      -0.267  10.980  20.052  0.00  0.00    +0.000 NA
ATOM      2  C   UNL     1       0.030  10.808  18.621  0.00  0.00    +0.000 C 
ATOM      3  C   UNL     1       1.371  10.065  18.409  0.00  0.00    +0.000 C 
ATOM      4  N   UNL     1       1.528   8.823  19.161  0.00  0.00    +0.000 NA
ATOM      5  C   UNL     1       1.069   8.923  20.559  0.00  0.00    +0.000 C 
ATOM      6  C   UNL     1      -0.248   9.720  20.817  0.00  0.00    +0.000 C 
ENDROOT
BRANCH   1   7
ATOM      7  S   UNL     1      -0.470  12.488  20.753  0.00  0.00    +0.000 S 
ATOM      8  O   UNL     1      -0.113  13.487  19.757  0.00  0.00    +0.000 OA
ATOM      9  O   UNL     1       0.144  12.490  22.051  0.00  0.00    +0.000 OA
BRANCH   7  13
ATOM     10  C   UNL     1      -5.042  12.679  21.419  0.00  0.00    +0.000 A 
ATOM     11  C   UNL     1      -4.500  12.619  20.121  0.00  0.00    +0.000 A 
ATOM     12  C   UNL     1      -3.111  12.589  19.906  0.00  0.00    +0.000 A 
ATOM     13  C   UNL     1      -2.238  12.636  20.993  0.00  0.00    +0.000 A 
ATOM     14  C   UNL     1      -2.750  12.651  22.290  0.00  0.00    +0.000 A 
ATOM     15  C   UNL     1      -4.132  12.687  22.495  0.00  0.00    +0.000 A 
BRANCH  10  17
ATOM     16  C   UNL     1      -7.337  11.537  21.095  0.00  0.00    +0.000 C 
ATOM     17  C   UNL     1      -6.557  12.724  21.705  0.00  0.00    +0.000 C 
ATOM     18  C   UNL     1      -7.157  14.023  21.121  0.00  0.00    +0.000 C 
ATOM     19  C   UNL     1      -6.824  12.707  23.228  0.00  0.00    +0.000 C 
ENDBRANCH  10  17
ENDBRANCH   7  13
ENDBRANCH   1   7
BRANCH   4  20
ATOM     20  C   UNL     1       1.754   7.512  18.455  0.00  0.00    +0.000 C 
BRANCH  20  21
ATOM     21  C   UNL     1       2.528   6.472  19.300  0.00  0.00    +0.000 C 
ATOM     22  O   UNL     1       2.069   6.285  20.449  0.00  0.00    +0.000 OA
ATOM     23  N   UNL     1       3.567   5.606  18.871  0.00  0.00    +0.000 N 
ATOM     24  C   UNL     1       3.463   4.344  19.622  0.00  0.00    +0.000 C 
ATOM     25  C   UNL     1       4.036   3.259  18.763  0.00  0.00    +0.000 C 
ATOM     26  O   UNL     1       3.397   2.592  17.957  0.00  0.00    +0.000 OA
ATOM     27  N   UNL     1       5.408   3.358  18.754  0.00  0.00    +0.000 N 
ATOM     28  C   UNL     1       5.848   4.639  18.345  0.00  0.00    +0.000 A 
ATOM     29  C   UNL     1       7.206   4.655  17.970  0.00  0.00    +0.000 A 
ATOM     30  C   UNL     1       7.696   5.771  17.339  0.00  0.00    +0.000 A 
ATOM     31  C   UNL     1       6.833   6.854  17.125  0.00  0.00    +0.000 A 
ATOM     32  C   UNL     1       5.473   6.874  17.595  0.00  0.00    +0.000 A 
ATOM     33  C   UNL     1       4.925   5.764  18.239  0.00  0.00    +0.000 A 
ATOM     34  H   UNL     1       5.860   3.107  19.630  0.00  0.00    +0.000 HD
ENDBRANCH  20  21
ENDBRANCH   4  20
TORSDOF 5
ENDMDL
MODEL 6
REMARK VINA RESULT:      -8.5      0.626      1.125
REMARK  Name = 
REMARK  8 active torsions:
REMARK  status: ('A' for Active; 'I' for Inactive)
REMARK    1  A    between atoms: C_1  and  C_2
REMARK    2  A    between atoms: C_2  and  C_3
REMARK    3  A    between atoms: C_2  and  C_4
REMARK    4  A    between atoms: C_2  and  C_5
REMARK    5  A    between atoms: C_8  and  S_9
REMARK    6  A    between atoms: S_9  and  N_12
REMARK    7  A    between atoms: N_15  and  C_16
REMARK    8  A    between atoms: C_16  and  C_17
REMARK                            x       y       z     vdW  Elec       q    Type
REMARK                         _______ _______ _______ _____ _____    ______ ____
ROOT
ATOM      1  N   UNL     1      -0.653  10.913  21.068  0.00  0.00    +0.000 NA
ATOM      2  C   UNL     1      -0.640  10.120  19.829  0.00  0.00    +0.000 C 
ATOM      3  C   UNL     1       0.748   9.482  19.583  0.00  0.00    +0.000 C 
ATOM      4  N   UNL     1       1.313   8.751  20.713  0.00  0.00    +0.000 NA
ATOM      5  C   UNL     1       1.153   9.451  22.002  0.00  0.00    +0.000 C 
ATOM      6  C   UNL     1      -0.213  10.160  22.258  0.00  0.00    +0.000 C 
ENDROOT
BRANCH   1   7
ATOM      7  S   UNL     1      -1.008  12.550  21.085  0.00  0.00    +0.000 S 
ATOM      8  O   UNL     1      -0.586  13.103  19.807  0.00  0.00    +0.000 OA
ATOM      9  O   UNL     1      -0.549  13.118  22.320  0.00  0.00    +0.000 OA
BRANCH   7  13
ATOM     10  C   UNL     1      -5.617  12.920  21.037  0.00  0.00    +0.000 A 
ATOM     11  C   UNL     1      -4.895  13.003  22.242  0.00  0.00    +0.000 A 
ATOM     12  C   UNL     1      -3.496  12.865  22.272  0.00  0.00    +0.000 A 
ATOM     13  C   UNL     1      -2.797  12.622  21.090  0.00  0.00    +0.000 A 
ATOM     14  C   UNL     1      -3.484  12.579  19.877  0.00  0.00    +0.000 A 
ATOM     15  C   UNL     1      -4.875  12.711  19.857  0.00  0.00    +0.000 A 
BRANCH  10  17
ATOM     16  C   UNL     1      -7.912  11.932  21.696  0.00  0.00    +0.000 C 
ATOM     17  C   UNL     1      -7.152  13.055  20.954  0.00  0.00    +0.000 C 
ATOM     18  C   UNL     1      -7.597  13.018  19.476  0.00  0.00    +0.000 C 
ATOM     19  C   UNL     1      -7.613  14.397  21.569  0.00  0.00    +0.000 C 
ENDBRANCH  10  17
ENDBRANCH   7  13
ENDBRANCH   1   7
BRANCH   4  20
ATOM     20  C   UNL     1       1.648   7.287  20.603  0.00  0.00    +0.000 C 
BRANCH  20  21
ATOM     21  C   UNL     1       2.545   6.939  19.390  0.00  0.00    +0.000 C 
ATOM     22  O   UNL     1       2.787   7.900  18.626  0.00  0.00    +0.000 OA
ATOM     23  N   UNL     1       3.243   5.728  19.147  0.00  0.00    +0.000 N 
ATOM     24  C   UNL     1       4.497   6.046  18.443  0.00  0.00    +0.000 C 
ATOM     25  C   UNL     1       5.489   4.977  18.786  0.00  0.00    +0.000 C 
ATOM     26  O   UNL     1       6.257   5.013  19.740  0.00  0.00    +0.000 OA
ATOM     27  N   UNL     1       5.177   3.825  18.101  0.00  0.00    +0.000 N 
ATOM     28  C   UNL     1       3.848   3.404  18.342  0.00  0.00    +0.000 A 
ATOM     29  C   UNL     1       3.625   2.063  17.971  0.00  0.00    +0.000 A 
ATOM     30  C   UNL     1       2.453   1.464  18.361  0.00  0.00    +0.000 A 
ATOM     31  C   UNL     1       1.521   2.221  19.084  0.00  0.00    +0.000 A 
ATOM     32  C   UNL     1       1.709   3.616  19.379  0.00  0.00    +0.000 A 
ATOM     33  C   UNL     1       2.882   4.272  19.007  0.00  0.00    +0.000 A 
ATOM     34  H   UNL     1       5.344   3.865  17.098  0.00  0.00    +0.000 HD
ENDBRANCH  20  21
ENDBRANCH   4  20
TORSDOF 5
ENDMDL
MODEL 7
REMARK VINA RESULT:      -8.5      1.438      2.818
REMARK  Name = 
REMARK  8 active torsions:
REMARK  status: ('A' for Active; 'I' for Inactive)
REMARK    1  A    between atoms: C_1  and  C_2
REMARK    2  A    between atoms: C_2  and  C_3
REMARK    3  A    between atoms: C_2  and  C_4
REMARK    4  A    between atoms: C_2  and  C_5
REMARK    5  A    between atoms: C_8  and  S_9
REMARK    6  A    between atoms: S_9  and  N_12
REMARK    7  A    between atoms: N_15  and  C_16
REMARK    8  A    between atoms: C_16  and  C_17
REMARK                            x       y       z     vdW  Elec       q    Type
REMARK                         _______ _______ _______ _____ _____    ______ ____
ROOT
ATOM      1  N   UNL     1      -0.367  11.005  20.082  0.00  0.00    +0.000 NA
ATOM      2  C   UNL     1      -0.118  10.836  18.641  0.00  0.00    +0.000 C 
ATOM      3  C   UNL     1       1.245  10.150  18.383  0.00  0.00    +0.000 C 
ATOM      4  N   UNL     1       1.484   8.921  19.134  0.00  0.00    +0.000 NA
ATOM      5  C   UNL     1       1.075   9.011  20.548  0.00  0.00    +0.000 C 
ATOM      6  C   UNL     1      -0.265   9.752  20.853  0.00  0.00    +0.000 C 
ENDROOT
BRANCH   1   7
ATOM      7  S   UNL     1      -0.608  12.509  20.782  0.00  0.00    +0.000 S 
ATOM      8  O   UNL     1      -0.419  13.511  19.744  0.00  0.00    +0.000 OA
ATOM      9  O   UNL     1       0.126  12.576  22.014  0.00  0.00    +0.000 OA
BRANCH   7  13
ATOM     10  C   UNL     1      -5.111  12.777  21.797  0.00  0.00    +0.000 A 
ATOM     11  C   UNL     1      -4.141  12.723  22.815  0.00  0.00    +0.000 A 
ATOM     12  C   UNL     1      -2.770  12.613  22.517  0.00  0.00    +0.000 A 
ATOM     13  C   UNL     1      -2.351  12.538  21.190  0.00  0.00    +0.000 A 
ATOM     14  C   UNL     1      -3.289  12.635  20.162  0.00  0.00    +0.000 A 
ATOM     15  C   UNL     1      -4.649  12.737  20.466  0.00  0.00    +0.000 A 
BRANCH  10  17
ATOM     16  C   UNL     1      -7.242  14.227  21.608  0.00  0.00    +0.000 C 
ATOM     17  C   UNL     1      -6.625  12.887  22.072  0.00  0.00    +0.000 C 
ATOM     18  C   UNL     1      -6.888  12.757  23.589  0.00  0.00    +0.000 C 
ATOM     19  C   UNL     1      -7.394  11.759  21.346  0.00  0.00    +0.000 C 
ENDBRANCH  10  17
ENDBRANCH   7  13
ENDBRANCH   1   7
BRANCH   4  20
ATOM     20  C   UNL     1       1.740   7.616  18.428  0.00  0.00    +0.000 C 
BRANCH  20  21
ATOM     21  C   UNL     1       2.484   6.570  19.294  0.00  0.00    +0.000 C 
ATOM     22  O   UNL     1       2.007   6.404  20.438  0.00  0.00    +0.000 OA
ATOM     23  N   UNL     1       3.514   5.683  18.887  0.00  0.00    +0.000 N 
ATOM     24  C   UNL     1       3.378   4.431  19.649  0.00  0.00    +0.000 C 
ATOM     25  C   UNL     1       3.944   3.327  18.808  0.00  0.00    +0.000 C 
ATOM     26  O   UNL     1       3.304   2.663  18.000  0.00  0.00    +0.000 OA
ATOM     27  N   UNL     1       5.317   3.403  18.816  0.00  0.00    +0.000 N 
ATOM     28  C   UNL     1       5.784   4.672  18.401  0.00  0.00    +0.000 A 
ATOM     29  C   UNL     1       7.147   4.661  18.043  0.00  0.00    +0.000 A 
ATOM     30  C   UNL     1       7.665   5.762  17.408  0.00  0.00    +0.000 A 
ATOM     31  C   UNL     1       6.823   6.857  17.172  0.00  0.00    +0.000 A 
ATOM     32  C   UNL     1       5.458   6.905  17.624  0.00  0.00    +0.000 A 
ATOM     33  C   UNL     1       4.882   5.812  18.271  0.00  0.00    +0.000 A 
ATOM     34  H   UNL     1       5.754   3.153  19.700  0.00  0.00    +0.000 HD
ENDBRANCH  20  21
ENDBRANCH   4  20
TORSDOF 5
ENDMDL
MODEL 8
REMARK VINA RESULT:      -8.5      0.623      1.012
REMARK  Name = 
REMARK  8 active torsions:
REMARK  status: ('A' for Active; 'I' for Inactive)
REMARK    1  A    between atoms: C_1  and  C_2
REMARK    2  A    between atoms: C_2  and  C_3
REMARK    3  A    between atoms: C_2  and  C_4
REMARK    4  A    between atoms: C_2  and  C_5
REMARK    5  A    between atoms: C_8  and  S_9
REMARK    6  A    between atoms: S_9  and  N_12
REMARK    7  A    between atoms: N_15  and  C_16
REMARK    8  A    between atoms: C_16  and  C_17
REMARK                            x       y       z     vdW  Elec       q    Type
REMARK                         _______ _______ _______ _____ _____    ______ ____
ROOT
ATOM      1  N   UNL     1      -0.571  11.178  20.907  0.00  0.00    +0.000 NA
ATOM      2  C   UNL     1      -0.556  10.384  19.669  0.00  0.00    +0.000 C 
ATOM      3  C   UNL     1       0.808   9.680  19.468  0.00  0.00    +0.000 C 
ATOM      4  N   UNL     1       1.301   8.925  20.616  0.00  0.00    +0.000 NA
ATOM      5  C   UNL     1       1.133   9.633  21.899  0.00  0.00    +0.000 C 
ATOM      6  C   UNL     1      -0.206  10.407  22.110  0.00  0.00    +0.000 C 
ENDROOT
BRANCH   1   7
ATOM      7  S   UNL     1      -0.848  12.831  20.912  0.00  0.00    +0.000 S 
ATOM      8  O   UNL     1      -0.757  13.294  19.537  0.00  0.00    +0.000 OA
ATOM      9  O   UNL     1      -0.059  13.436  21.948  0.00  0.00    +0.000 OA
BRANCH   7  13
ATOM     10  C   UNL     1      -5.280  13.081  22.208  0.00  0.00    +0.000 A 
ATOM     11  C   UNL     1      -4.928  12.735  20.890  0.00  0.00    +0.000 A 
ATOM     12  C   UNL     1      -3.584  12.683  20.477  0.00  0.00    +0.000 A 
ATOM     13  C   UNL     1      -2.568  12.995  21.380  0.00  0.00    +0.000 A 
ATOM     14  C   UNL     1      -2.888  13.298  22.703  0.00  0.00    +0.000 A 
ATOM     15  C   UNL     1      -4.226  13.353  23.103  0.00  0.00    +0.000 A 
BRANCH  10  17
ATOM     16  C   UNL     1      -7.760  12.539  21.725  0.00  0.00    +0.000 C 
ATOM     17  C   UNL     1      -6.738  13.162  22.704  0.00  0.00    +0.000 C 
ATOM     18  C   UNL     1      -7.135  14.640  22.911  0.00  0.00    +0.000 C 
ATOM     19  C   UNL     1      -6.895  12.422  24.053  0.00  0.00    +0.000 C 
ENDBRANCH  10  17
ENDBRANCH   7  13
ENDBRANCH   1   7
BRANCH   4  20
ATOM     20  C   UNL     1       1.570   7.447  20.516  0.00  0.00    +0.000 C 
BRANCH  20  21
ATOM     21  C   UNL     1       2.481   7.054  19.328  0.00  0.00    +0.000 C 
ATOM     22  O   UNL     1       2.752   7.991  18.545  0.00  0.00    +0.000 OA
ATOM     23  N   UNL     1       3.162   5.825  19.126  0.00  0.00    +0.000 N 
ATOM     24  C   UNL     1       4.432   6.105  18.437  0.00  0.00    +0.000 C 
ATOM     25  C   UNL     1       5.401   5.028  18.822  0.00  0.00    +0.000 C 
ATOM     26  O   UNL     1       6.153   5.076  19.789  0.00  0.00    +0.000 OA
ATOM     27  N   UNL     1       5.081   3.866  18.161  0.00  0.00    +0.000 N 
ATOM     28  C   UNL     1       3.741   3.473  18.390  0.00  0.00    +0.000 A 
ATOM     29  C   UNL     1       3.501   2.127  18.047  0.00  0.00    +0.000 A 
ATOM     30  C   UNL     1       2.313   1.557  18.432  0.00  0.00    +0.000 A 
ATOM     31  C   UNL     1       1.382   2.347  19.120  0.00  0.00    +0.000 A 
ATOM     32  C   UNL     1       1.588   3.746  19.384  0.00  0.00    +0.000 A 
ATOM     33  C   UNL     1       2.779   4.373  19.017  0.00  0.00    +0.000 A 
ATOM     34  H   UNL     1       5.265   3.878  17.161  0.00  0.00    +0.000 HD
ENDBRANCH  20  21
ENDBRANCH   4  20
TORSDOF 5
ENDMDL
MODEL 9
REMARK VINA RESULT:      -8.5      1.536      2.271
REMARK  Name = 
REMARK  8 active torsions:
REMARK  status: ('A' for Active; 'I' for Inactive)
REMARK    1  A    between atoms: C_1  and  C_2
REMARK    2  A    between atoms: C_2  and  C_3
REMARK    3  A    between atoms: C_2  and  C_4
REMARK    4  A    between atoms: C_2  and  C_5
REMARK    5  A    between atoms: C_8  and  S_9
REMARK    6  A    between atoms: S_9  and  N_12
REMARK    7  A    between atoms: N_15  and  C_16
REMARK    8  A    between atoms: C_16  and  C_17
REMARK                            x       y       z     vdW  Elec       q    Type
REMARK                         _______ _______ _______ _____ _____    ______ ____
ROOT
ATOM      1  N   UNL     1       0.851  11.978  19.488  0.00  0.00    +0.000 NA
ATOM      2  C   UNL     1       0.808  11.293  20.790  0.00  0.00    +0.000 C 
ATOM      3  C   UNL     1       0.418   9.805  20.630  0.00  0.00    +0.000 C 
ATOM      4  N   UNL     1       1.182   9.057  19.636  0.00  0.00    +0.000 NA
ATOM      5  C   UNL     1       1.391   9.799  18.379  0.00  0.00    +0.000 C 
ATOM      6  C   UNL     1       1.725  11.319  18.500  0.00  0.00    +0.000 C 
ENDROOT
BRANCH   1   7
ATOM      7  S   UNL     1      -0.112  13.304  19.136  0.00  0.00    +0.000 S 
ATOM      8  O   UNL     1      -0.817  13.017  17.896  0.00  0.00    +0.000 OA
ATOM      9  O   UNL     1       0.665  14.501  19.282  0.00  0.00    +0.000 OA
BRANCH   7  13
ATOM     10  C   UNL     1      -3.426  13.443  22.358  0.00  0.00    +0.000 A 
ATOM     11  C   UNL     1      -2.220  14.149  22.527  0.00  0.00    +0.000 A 
ATOM     12  C   UNL     1      -1.195  14.092  21.567  0.00  0.00    +0.000 A 
ATOM     13  C   UNL     1      -1.355  13.308  20.425  0.00  0.00    +0.000 A 
ATOM     14  C   UNL     1      -2.558  12.634  20.213  0.00  0.00    +0.000 A 
ATOM     15  C   UNL     1      -3.570  12.692  21.175  0.00  0.00    +0.000 A 
BRANCH  10  17
ATOM     16  C   UNL     1      -4.339  12.538  24.599  0.00  0.00    +0.000 C 
ATOM     17  C   UNL     1      -4.576  13.467  23.387  0.00  0.00    +0.000 C 
ATOM     18  C   UNL     1      -5.889  13.019  22.708  0.00  0.00    +0.000 C 
ATOM     19  C   UNL     1      -4.778  14.895  23.944  0.00  0.00    +0.000 C 
ENDBRANCH  10  17
ENDBRANCH   7  13
ENDBRANCH   1   7
BRANCH   4  20
ATOM     20  C   UNL     1       1.988   7.846  20.026  0.00  0.00    +0.000 C 
BRANCH  20  21
ATOM     21  C   UNL     1       2.725   7.176  18.841  0.00  0.00    +0.000 C 
ATOM     22  O   UNL     1       3.072   7.959  17.930  0.00  0.00    +0.000 OA
ATOM     23  N   UNL     1       3.190   5.837  18.754  0.00  0.00    +0.000 N 
ATOM     24  C   UNL     1       4.426   5.825  17.955  0.00  0.00    +0.000 C 
ATOM     25  C   UNL     1       5.246   4.656  18.412  0.00  0.00    +0.000 C 
ATOM     26  O   UNL     1       6.074   4.691  19.314  0.00  0.00    +0.000 OA
ATOM     27  N   UNL     1       4.696   3.493  17.925  0.00  0.00    +0.000 N 
ATOM     28  C   UNL     1       3.336   3.353  18.286  0.00  0.00    +0.000 A 
ATOM     29  C   UNL     1       2.863   2.034  18.133  0.00  0.00    +0.000 A 
ATOM     30  C   UNL     1       1.638   1.713  18.662  0.00  0.00    +0.000 A 
ATOM     31  C   UNL     1       0.901   2.719  19.302  0.00  0.00    +0.000 A 
ATOM     32  C   UNL     1       1.341   4.086  19.373  0.00  0.00    +0.000 A 
ATOM     33  C   UNL     1       2.579   4.464  18.854  0.00  0.00    +0.000 A 
ATOM     34  H   UNL     1       4.796   3.360  16.921  0.00  0.00    +0.000 HD
ENDBRANCH  20  21
ENDBRANCH   4  20
TORSDOF 5
ENDMDL
