MODEL 1
REMARK VINA RESULT:      -9.4      0.000      0.000
REMARK  Name = 
REMARK  5 active torsions:
REMARK  status: ('A' for Active; 'I' for Inactive)
REMARK    1  A    between atoms: N_3  and  C_4
REMARK    2  A    between atoms: C_7  and  C_8
REMARK    3  A    between atoms: C_8  and  C_9
REMARK    4  A    between atoms: N_20  and  C_21
REMARK    5  A    between atoms: C_24  and  C_25
REMARK                            x       y       z     vdW  Elec       q    Type
REMARK                         _______ _______ _______ _____ _____    ______ ____
ROOT
ATOM      1  O   UNL     1       1.731   8.604  19.254  0.00  0.00    +0.000 OA
ATOM      2  C   UNL     1       1.869   7.881  20.229  0.00  0.00    +0.000 C 
ATOM      3  N   UNL     1       1.359   8.154  21.488  0.00  0.00    +0.000 N 
ATOM      4  N   UNL     1       2.569   6.691  20.221  0.00  0.00    +0.000 N 
ATOM      5  H   UNL     1       1.716   7.569  22.228  0.00  0.00    +0.000 HD
ATOM      6  H   UNL     1       2.530   6.169  21.083  0.00  0.00    +0.000 HD
ENDROOT
BRANCH   3   7
ATOM      7  C   UNL     1       0.590   9.299  21.819  0.00  0.00    +0.000 A 
ATOM      8  C   UNL     1      -0.334   9.299  22.866  0.00  0.00    +0.000 A 
ATOM      9  C   UNL     1      -1.114  10.420  23.148  0.00  0.00    +0.000 A 
ATOM     10  C   UNL     1      -0.983  11.597  22.406  0.00  0.00    +0.000 A 
ATOM     11  C   UNL     1      -0.063  11.605  21.347  0.00  0.00    +0.000 A 
ATOM     12  C   UNL     1       0.733  10.473  21.071  0.00  0.00    +0.000 A 
BRANCH  10  13
ATOM     13  C   UNL     1      -1.926  12.735  22.741  0.00  0.00    +0.000 C 
BRANCH  13  14
ATOM     14  C   UNL     1      -3.301  12.681  22.165  0.00  0.00    +0.000 A 
ATOM     15  N   UNL     1      -4.420  12.648  22.860  0.00  0.00    +0.000 NA
ATOM     16  C   UNL     1      -5.433  12.644  21.938  0.00  0.00    +0.000 A 
ATOM     17  C   UNL     1      -6.820  12.613  22.139  0.00  0.00    +0.000 A 
ATOM     18  C   UNL     1      -7.659  12.573  21.020  0.00  0.00    +0.000 A 
ATOM     19  C   UNL     1      -7.125  12.572  19.729  0.00  0.00    +0.000 A 
ATOM     20  C   UNL     1      -5.742  12.635  19.509  0.00  0.00    +0.000 A 
ATOM     21  C   UNL     1      -4.928  12.674  20.644  0.00  0.00    +0.000 A 
ATOM     22  N   UNL     1      -3.567  12.745  20.816  0.00  0.00    +0.000 N 
ATOM     23  H   UNL     1      -2.876  12.817  20.083  0.00  0.00    +0.000 HD
ENDBRANCH  13  14
ENDBRANCH  10  13
ENDBRANCH   3   7
BRANCH   4  24
ATOM     24  C   UNL     1       3.292   6.158  19.125  0.00  0.00    +0.000 A 
ATOM     25  C   UNL     1       3.038   4.895  18.571  0.00  0.00    +0.000 A 
ATOM     26  C   UNL     1       3.740   4.424  17.452  0.00  0.00    +0.000 A 
ATOM     27  C   UNL     1       4.717   5.216  16.854  0.00  0.00    +0.000 A 
ATOM     28  C   UNL     1       4.988   6.472  17.418  0.00  0.00    +0.000 A 
ATOM     29  C   UNL     1       4.289   6.939  18.541  0.00  0.00    +0.000 A 
BRANCH  27  30
ATOM     30  C   UNL     1       5.391   4.843  15.608  0.00  0.00    +0.000 A 
ATOM     31  N   UNL     1       6.475   5.441  15.153  0.00  0.00    +0.000 NA
ATOM     32  C   UNL     1       6.725   4.895  13.928  0.00  0.00    +0.000 A 
ATOM     33  C   UNL     1       7.723   5.221  13.002  0.00  0.00    +0.000 A 
ATOM     34  C   UNL     1       7.762   4.528  11.790  0.00  0.00    +0.000 A 
ATOM     35  C   UNL     1       6.831   3.521  11.514  0.00  0.00    +0.000 A 
ATOM     36  C   UNL     1       5.832   3.174  12.435  0.00  0.00    +0.000 A 
ATOM     37  C   UNL     1       5.811   3.896  13.633  0.00  0.00    +0.000 A 
ATOM     38  N   UNL     1       4.989   3.858  14.734  0.00  0.00    +0.000 N 
ATOM     39  H   UNL     1       4.217   3.222  14.862  0.00  0.00    +0.000 HD
ENDBRANCH  27  30
ENDBRANCH   4  24
TORSDOF 5
ENDMDL
MODEL 2
REMARK VINA RESULT:      -9.4      0.623      1.269
REMARK  Name = 
REMARK  5 active torsions:
REMARK  status: ('A' for Active; 'I' for Inactive)
REMARK    1  A    between atoms: N_3  and  C_4
REMARK    2  A    between atoms: C_7  and  C_8
REMARK    3  A    between atoms: C_8  and  C_9
REMARK    4  A    between atoms: N_20  and  C_21
REMARK    5  A    between atoms: C_24  and  C_25
REMARK                            x       y       z     vdW  Elec       q    Type
REMARK                         _______ _______ _______ _____ _____    ______ ____
ROOT
ATOM      1  O   UNL     1       1.820   8.818  19.354  0.00  0.00    +0.000 OA
ATOM      2  C   UNL     1       1.713   7.975  20.231  0.00  0.00    +0.000 C 
ATOM      3  N   UNL     1       1.063   8.175  21.439  0.00  0.00    +0.000 N 
ATOM      4  N   UNL     1       2.238   6.700  20.153  0.00  0.00    +0.000 N 
ATOM      5  H   UNL     1       1.224   7.461  22.132  0.00  0.00    +0.000 HD
ATOM      6  H   UNL     1       2.001   6.094  20.924  0.00  0.00    +0.000 HD
ENDROOT
BRANCH   3   7
ATOM      7  C   UNL     1       0.416   9.379  21.819  0.00  0.00    +0.000 A 
ATOM      8  C   UNL     1      -0.410   9.458  22.943  0.00  0.00    +0.000 A 
ATOM      9  C   UNL     1      -1.074  10.637  23.276  0.00  0.00    +0.000 A 
ATOM     10  C   UNL     1      -0.920  11.796  22.509  0.00  0.00    +0.000 A 
ATOM     11  C   UNL     1      -0.099  11.724  21.374  0.00  0.00    +0.000 A 
ATOM     12  C   UNL     1       0.581  10.532  21.045  0.00  0.00    +0.000 A 
BRANCH  10  13
ATOM     13  C   UNL     1      -1.740  13.006  22.909  0.00  0.00    +0.000 C 
BRANCH  13  14
ATOM     14  C   UNL     1      -3.223  12.900  22.791  0.00  0.00    +0.000 A 
ATOM     15  N   UNL     1      -3.888  12.685  21.672  0.00  0.00    +0.000 NA
ATOM     16  C   UNL     1      -5.208  12.621  22.029  0.00  0.00    +0.000 A 
ATOM     17  C   UNL     1      -6.338  12.412  21.225  0.00  0.00    +0.000 A 
ATOM     18  C   UNL     1      -7.601  12.431  21.826  0.00  0.00    +0.000 A 
ATOM     19  C   UNL     1      -7.733  12.645  23.201  0.00  0.00    +0.000 A 
ATOM     20  C   UNL     1      -6.613  12.823  24.024  0.00  0.00    +0.000 A 
ATOM     21  C   UNL     1      -5.364  12.801  23.398  0.00  0.00    +0.000 A 
ATOM     22  N   UNL     1      -4.080  12.929  23.868  0.00  0.00    +0.000 N 
ATOM     23  H   UNL     1      -3.807  13.041  24.833  0.00  0.00    +0.000 HD
ENDBRANCH  13  14
ENDBRANCH  10  13
ENDBRANCH   3   7
BRANCH   4  24
ATOM     24  C   UNL     1       3.038   6.193  19.098  0.00  0.00    +0.000 A 
ATOM     25  C   UNL     1       3.023   4.851  18.693  0.00  0.00    +0.000 A 
ATOM     26  C   UNL     1       3.789   4.398  17.609  0.00  0.00    +0.000 A 
ATOM     27  C   UNL     1       4.590   5.287  16.898  0.00  0.00    +0.000 A 
ATOM     28  C   UNL     1       4.623   6.627  17.314  0.00  0.00    +0.000 A 
ATOM     29  C   UNL     1       3.860   7.077  18.401  0.00  0.00    +0.000 A 
BRANCH  27  30
ATOM     30  C   UNL     1       5.309   4.910  15.679  0.00  0.00    +0.000 A 
ATOM     31  N   UNL     1       6.392   5.526  15.245  0.00  0.00    +0.000 NA
ATOM     32  C   UNL     1       6.690   4.966  14.037  0.00  0.00    +0.000 A 
ATOM     33  C   UNL     1       7.707   5.300  13.136  0.00  0.00    +0.000 A 
ATOM     34  C   UNL     1       7.798   4.588  11.937  0.00  0.00    +0.000 A 
ATOM     35  C   UNL     1       6.899   3.555  11.651  0.00  0.00    +0.000 A 
ATOM     36  C   UNL     1       5.882   3.200  12.549  0.00  0.00    +0.000 A 
ATOM     37  C   UNL     1       5.809   3.940  13.733  0.00  0.00    +0.000 A 
ATOM     38  N   UNL     1       4.956   3.901  14.810  0.00  0.00    +0.000 N 
ATOM     39  H   UNL     1       4.195   3.249  14.927  0.00  0.00    +0.000 HD
ENDBRANCH  27  30
ENDBRANCH   4  24
TORSDOF 5
ENDMDL
MODEL 3
REMARK VINA RESULT:      -9.2      0.650      1.814
REMARK  Name = 
REMARK  5 active torsions:
REMARK  status: ('A' for Active; 'I' for Inactive)
REMARK    1  A    between atoms: N_3  and  C_4
REMARK    2  A    between atoms: C_7  and  C_8
REMARK    3  A    between atoms: C_8  and  C_9
REMARK    4  A    between atoms: N_20  and  C_21
REMARK    5  A    between atoms: C_24  and  C_25
REMARK                            x       y       z     vdW  Elec       q    Type
REMARK                         _______ _______ _______ _____ _____    ______ ____
ROOT
ATOM      1  O   UNL     1       1.597   8.684  19.212  0.00  0.00    +0.000 OA
ATOM      2  C   UNL     1       1.811   7.977  20.184  0.00  0.00    +0.000 C 
ATOM      3  N   UNL     1       1.348   8.238  21.464  0.00  0.00    +0.000 N 
ATOM      4  N   UNL     1       2.562   6.818  20.152  0.00  0.00    +0.000 N 
ATOM      5  H   UNL     1       1.764   7.675  22.190  0.00  0.00    +0.000 HD
ATOM      6  H   UNL     1       2.586   6.303  21.019  0.00  0.00    +0.000 HD
ENDROOT
BRANCH   3   7
ATOM      7  C   UNL     1       0.545   9.351  21.822  0.00  0.00    +0.000 A 
ATOM      8  C   UNL     1       0.618  10.571  21.146  0.00  0.00    +0.000 A 
ATOM      9  C   UNL     1      -0.146  11.669  21.540  0.00  0.00    +0.000 A 
ATOM     10  C   UNL     1      -1.034  11.582  22.615  0.00  0.00    +0.000 A 
ATOM     11  C   UNL     1      -1.110  10.363  23.306  0.00  0.00    +0.000 A 
ATOM     12  C   UNL     1      -0.343   9.251  22.898  0.00  0.00    +0.000 A 
BRANCH  10  13
ATOM     13  C   UNL     1      -1.766  12.848  23.013  0.00  0.00    +0.000 C 
BRANCH  13  14
ATOM     14  C   UNL     1      -3.252  12.853  22.882  0.00  0.00    +0.000 A 
ATOM     15  N   UNL     1      -3.920  12.794  21.747  0.00  0.00    +0.000 NA
ATOM     16  C   UNL     1      -5.245  12.782  22.093  0.00  0.00    +0.000 A 
ATOM     17  C   UNL     1      -6.379  12.728  21.271  0.00  0.00    +0.000 A 
ATOM     18  C   UNL     1      -7.643  12.771  21.869  0.00  0.00    +0.000 A 
ATOM     19  C   UNL     1      -7.772  12.857  23.257  0.00  0.00    +0.000 A 
ATOM     20  C   UNL     1      -6.649  12.879  24.096  0.00  0.00    +0.000 A 
ATOM     21  C   UNL     1      -5.400  12.836  23.473  0.00  0.00    +0.000 A 
ATOM     22  N   UNL     1      -4.113  12.832  23.955  0.00  0.00    +0.000 N 
ATOM     23  H   UNL     1      -3.842  12.830  24.928  0.00  0.00    +0.000 HD
ENDBRANCH  13  14
ENDBRANCH  10  13
ENDBRANCH   3   7
BRANCH   4  24
ATOM     24  C   UNL     1       3.257   6.308  19.027  0.00  0.00    +0.000 A 
ATOM     25  C   UNL     1       3.088   5.005  18.539  0.00  0.00    +0.000 A 
ATOM     26  C   UNL     1       3.754   4.554  17.391  0.00  0.00    +0.000 A 
ATOM     27  C   UNL     1       4.609   5.406  16.697  0.00  0.00    +0.000 A 
ATOM     28  C   UNL     1       4.797   6.705  17.195  0.00  0.00    +0.000 A 
ATOM     29  C   UNL     1       4.133   7.153  18.346  0.00  0.00    +0.000 A 
BRANCH  27  30
ATOM     30  C   UNL     1       5.230   5.044  15.420  0.00  0.00    +0.000 A 
ATOM     31  N   UNL     1       4.775   4.093  14.628  0.00  0.00    +0.000 NA
ATOM     32  C   UNL     1       5.679   3.980  13.611  0.00  0.00    +0.000 A 
ATOM     33  C   UNL     1       5.697   3.079  12.541  0.00  0.00    +0.000 A 
ATOM     34  C   UNL     1       6.753   3.146  11.629  0.00  0.00    +0.000 A 
ATOM     35  C   UNL     1       7.763   4.102  11.776  0.00  0.00    +0.000 A 
ATOM     36  C   UNL     1       7.754   5.020  12.837  0.00  0.00    +0.000 A 
ATOM     37  C   UNL     1       6.692   4.918  13.740  0.00  0.00    +0.000 A 
ATOM     38  N   UNL     1       6.366   5.607  14.883  0.00  0.00    +0.000 N 
ATOM     39  H   UNL     1       6.887   6.383  15.264  0.00  0.00    +0.000 HD
ENDBRANCH  27  30
ENDBRANCH   4  24
TORSDOF 5
ENDMDL
MODEL 4
REMARK VINA RESULT:      -9.1      0.711      1.579
REMARK  Name = 
REMARK  5 active torsions:
REMARK  status: ('A' for Active; 'I' for Inactive)
REMARK    1  A    between atoms: N_3  and  C_4
REMARK    2  A    between atoms: C_7  and  C_8
REMARK    3  A    between atoms: C_8  and  C_9
REMARK    4  A    between atoms: N_20  and  C_21
REMARK    5  A    between atoms: C_24  and  C_25
REMARK                            x       y       z     vdW  Elec       q    Type
REMARK                         _______ _______ _______ _____ _____    ______ ____
ROOT
ATOM      1  O   UNL     1       1.704   8.712  19.171  0.00  0.00    +0.000 OA
ATOM      2  C   UNL     1       1.912   7.995  20.137  0.00  0.00    +0.000 C 
ATOM      3  N   UNL     1       1.431   8.239  21.414  0.00  0.00    +0.000 N 
ATOM      4  N   UNL     1       2.672   6.843  20.102  0.00  0.00    +0.000 N 
ATOM      5  H   UNL     1       1.842   7.672  22.139  0.00  0.00    +0.000 HD
ATOM      6  H   UNL     1       2.689   6.318  20.964  0.00  0.00    +0.000 HD
ENDROOT
BRANCH   3   7
ATOM      7  C   UNL     1       0.615   9.342  21.775  0.00  0.00    +0.000 A 
ATOM      8  C   UNL     1       0.743  10.593  21.168  0.00  0.00    +0.000 A 
ATOM      9  C   UNL     1      -0.037  11.678  21.566  0.00  0.00    +0.000 A 
ATOM     10  C   UNL     1      -0.996  11.548  22.574  0.00  0.00    +0.000 A 
ATOM     11  C   UNL     1      -1.128  10.297  23.195  0.00  0.00    +0.000 A 
ATOM     12  C   UNL     1      -0.345   9.197  22.783  0.00  0.00    +0.000 A 
BRANCH  10  13
ATOM     13  C   UNL     1      -1.742  12.801  22.986  0.00  0.00    +0.000 C 
BRANCH  13  14
ATOM     14  C   UNL     1      -3.233  12.757  22.944  0.00  0.00    +0.000 A 
ATOM     15  N   UNL     1      -4.028  12.762  23.996  0.00  0.00    +0.000 NA
ATOM     16  C   UNL     1      -5.304  12.755  23.499  0.00  0.00    +0.000 A 
ATOM     17  C   UNL     1      -6.526  12.754  24.186  0.00  0.00    +0.000 A 
ATOM     18  C   UNL     1      -7.712  12.702  23.445  0.00  0.00    +0.000 A 
ATOM     19  C   UNL     1      -7.678  12.660  22.049  0.00  0.00    +0.000 A 
ATOM     20  C   UNL     1      -6.466  12.693  21.345  0.00  0.00    +0.000 A 
ATOM     21  C   UNL     1      -5.298  12.744  22.110  0.00  0.00    +0.000 A 
ATOM     22  N   UNL     1      -3.966  12.794  21.780  0.00  0.00    +0.000 N 
ATOM     23  H   UNL     1      -3.584  12.836  20.846  0.00  0.00    +0.000 HD
ENDBRANCH  13  14
ENDBRANCH  10  13
ENDBRANCH   3   7
BRANCH   4  24
ATOM     24  C   UNL     1       3.385   6.351  18.981  0.00  0.00    +0.000 A 
ATOM     25  C   UNL     1       3.580   4.986  18.726  0.00  0.00    +0.000 A 
ATOM     26  C   UNL     1       4.245   4.536  17.577  0.00  0.00    +0.000 A 
ATOM     27  C   UNL     1       4.730   5.450  16.646  0.00  0.00    +0.000 A 
ATOM     28  C   UNL     1       4.556   6.818  16.908  0.00  0.00    +0.000 A 
ATOM     29  C   UNL     1       3.894   7.266  18.060  0.00  0.00    +0.000 A 
BRANCH  27  30
ATOM     30  C   UNL     1       5.314   5.047  15.364  0.00  0.00    +0.000 A 
ATOM     31  N   UNL     1       4.809   4.103  14.593  0.00  0.00    +0.000 NA
ATOM     32  C   UNL     1       5.689   3.942  13.563  0.00  0.00    +0.000 A 
ATOM     33  C   UNL     1       5.653   3.026  12.505  0.00  0.00    +0.000 A 
ATOM     34  C   UNL     1       6.695   3.040  11.574  0.00  0.00    +0.000 A 
ATOM     35  C   UNL     1       7.743   3.959  11.690  0.00  0.00    +0.000 A 
ATOM     36  C   UNL     1       7.788   4.891  12.737  0.00  0.00    +0.000 A 
ATOM     37  C   UNL     1       6.739   4.842  13.660  0.00  0.00    +0.000 A 
ATOM     38  N   UNL     1       6.461   5.559  14.799  0.00  0.00    +0.000 N 
ATOM     39  H   UNL     1       7.017   6.319  15.160  0.00  0.00    +0.000 HD
ENDBRANCH  27  30
ENDBRANCH   4  24
TORSDOF 5
ENDMDL
MODEL 5
REMARK VINA RESULT:      -9.0      1.904     13.437
REMARK  Name = 
REMARK  5 active torsions:
REMARK  status: ('A' for Active; 'I' for Inactive)
REMARK    1  A    between atoms: N_3  and  C_4
REMARK    2  A    between atoms: C_7  and  C_8
REMARK    3  A    between atoms: C_8  and  C_9
REMARK    4  A    between atoms: N_20  and  C_21
REMARK    5  A    between atoms: C_24  and  C_25
REMARK                            x       y       z     vdW  Elec       q    Type
REMARK                         _______ _______ _______ _____ _____    ______ ____
ROOT
ATOM      1  O   UNL     1       2.297   8.628  20.334  0.00  0.00    +0.000 OA
ATOM      2  C   UNL     1       1.446   7.756  20.421  0.00  0.00    +0.000 C 
ATOM      3  N   UNL     1       1.602   6.457  19.964  0.00  0.00    +0.000 N 
ATOM      4  N   UNL     1       0.195   7.943  20.976  0.00  0.00    +0.000 N 
ATOM      5  H   UNL     1       0.754   5.913  19.931  0.00  0.00    +0.000 HD
ATOM      6  H   UNL     1      -0.368   7.109  21.046  0.00  0.00    +0.000 HD
ENDROOT
BRANCH   3   7
ATOM      7  C   UNL     1       2.776   5.951  19.349  0.00  0.00    +0.000 A 
ATOM      8  C   UNL     1       3.703   5.170  20.041  0.00  0.00    +0.000 A 
ATOM      9  C   UNL     1       4.874   4.719  19.433  0.00  0.00    +0.000 A 
ATOM     10  C   UNL     1       5.153   5.013  18.096  0.00  0.00    +0.000 A 
ATOM     11  C   UNL     1       4.231   5.804  17.393  0.00  0.00    +0.000 A 
ATOM     12  C   UNL     1       3.042   6.250  18.008  0.00  0.00    +0.000 A 
BRANCH  10  13
ATOM     13  C   UNL     1       6.484   4.541  17.546  0.00  0.00    +0.000 C 
BRANCH  13  14
ATOM     14  C   UNL     1       6.638   4.499  16.062  0.00  0.00    +0.000 A 
ATOM     15  N   UNL     1       7.367   5.331  15.345  0.00  0.00    +0.000 NA
ATOM     16  C   UNL     1       7.254   4.904  14.049  0.00  0.00    +0.000 A 
ATOM     17  C   UNL     1       7.828   5.433  12.884  0.00  0.00    +0.000 A 
ATOM     18  C   UNL     1       7.525   4.836  11.656  0.00  0.00    +0.000 A 
ATOM     19  C   UNL     1       6.675   3.730  11.593  0.00  0.00    +0.000 A 
ATOM     20  C   UNL     1       6.118   3.167  12.750  0.00  0.00    +0.000 A 
ATOM     21  C   UNL     1       6.437   3.784  13.962  0.00  0.00    +0.000 A 
ATOM     22  N   UNL     1       6.095   3.517  15.266  0.00  0.00    +0.000 N 
ATOM     23  H   UNL     1       5.530   2.744  15.587  0.00  0.00    +0.000 HD
ENDBRANCH  13  14
ENDBRANCH  10  13
ENDBRANCH   3   7
BRANCH   4  24
ATOM     24  C   UNL     1      -0.326   9.170  21.457  0.00  0.00    +0.000 A 
ATOM     25  C   UNL     1      -0.669  10.244  20.624  0.00  0.00    +0.000 A 
ATOM     26  C   UNL     1      -1.233  11.423  21.132  0.00  0.00    +0.000 A 
ATOM     27  C   UNL     1      -1.472  11.552  22.497  0.00  0.00    +0.000 A 
ATOM     28  C   UNL     1      -1.111  10.487  23.337  0.00  0.00    +0.000 A 
ATOM     29  C   UNL     1      -0.543   9.311  22.827  0.00  0.00    +0.000 A 
BRANCH  27  30
ATOM     30  C   UNL     1      -2.179  12.698  23.076  0.00  0.00    +0.000 A 
ATOM     31  N   UNL     1      -3.470  12.918  22.921  0.00  0.00    +0.000 NA
ATOM     32  C   UNL     1      -3.723  14.126  23.501  0.00  0.00    +0.000 A 
ATOM     33  C   UNL     1      -4.922  14.845  23.559  0.00  0.00    +0.000 A 
ATOM     34  C   UNL     1      -4.925  16.088  24.197  0.00  0.00    +0.000 A 
ATOM     35  C   UNL     1      -3.759  16.596  24.776  0.00  0.00    +0.000 A 
ATOM     36  C   UNL     1      -2.551  15.883  24.738  0.00  0.00    +0.000 A 
ATOM     37  C   UNL     1      -2.577  14.650  24.080  0.00  0.00    +0.000 A 
ATOM     38  N   UNL     1      -1.612  13.705  23.825  0.00  0.00    +0.000 N 
ATOM     39  H   UNL     1      -0.651  13.758  24.126  0.00  0.00    +0.000 HD
ENDBRANCH  27  30
ENDBRANCH   4  24
TORSDOF 5
ENDMDL
MODEL 6
REMARK VINA RESULT:      -9.0      0.790      1.114
REMARK  Name = 
REMARK  5 active torsions:
REMARK  status: ('A' for Active; 'I' for Inactive)
REMARK    1  A    between atoms: N_3  and  C_4
REMARK    2  A    between atoms: C_7  and  C_8
REMARK    3  A    between atoms: C_8  and  C_9
REMARK    4  A    between atoms: N_20  and  C_21
REMARK    5  A    between atoms: C_24  and  C_25
REMARK                            x       y       z     vdW  Elec       q    Type
REMARK                         _______ _______ _______ _____ _____    ______ ____
ROOT
ATOM      1  O   UNL     1       1.475   8.815  19.169  0.00  0.00    +0.000 OA
ATOM      2  C   UNL     1       1.573   8.102  20.155  0.00  0.00    +0.000 C 
ATOM      3  N   UNL     1       0.980   8.369  21.380  0.00  0.00    +0.000 N 
ATOM      4  N   UNL     1       2.304   6.931  20.199  0.00  0.00    +0.000 N 
ATOM      5  H   UNL     1       1.308   7.798  22.144  0.00  0.00    +0.000 HD
ATOM      6  H   UNL     1       2.227   6.414  21.061  0.00  0.00    +0.000 HD
ENDROOT
BRANCH   3   7
ATOM      7  C   UNL     1       0.162   9.494  21.655  0.00  0.00    +0.000 A 
ATOM      8  C   UNL     1      -0.118  10.465  20.691  0.00  0.00    +0.000 A 
ATOM      9  C   UNL     1      -0.887  11.589  20.991  0.00  0.00    +0.000 A 
ATOM     10  C   UNL     1      -1.428  11.774  22.266  0.00  0.00    +0.000 A 
ATOM     11  C   UNL     1      -1.147  10.808  23.243  0.00  0.00    +0.000 A 
ATOM     12  C   UNL     1      -0.377   9.666  22.934  0.00  0.00    +0.000 A 
BRANCH  10  13
ATOM     13  C   UNL     1      -2.188  13.061  22.515  0.00  0.00    +0.000 C 
BRANCH  13  14
ATOM     14  C   UNL     1      -3.521  13.209  21.861  0.00  0.00    +0.000 A 
ATOM     15  N   UNL     1      -4.528  12.367  21.978  0.00  0.00    +0.000 NA
ATOM     16  C   UNL     1      -5.555  12.909  21.252  0.00  0.00    +0.000 A 
ATOM     17  C   UNL     1      -6.852  12.420  21.042  0.00  0.00    +0.000 A 
ATOM     18  C   UNL     1      -7.716  13.145  20.215  0.00  0.00    +0.000 A 
ATOM     19  C   UNL     1      -7.299  14.337  19.618  0.00  0.00    +0.000 A 
ATOM     20  C   UNL     1      -6.017  14.858  19.844  0.00  0.00    +0.000 A 
ATOM     21  C   UNL     1      -5.174  14.113  20.672  0.00  0.00    +0.000 A 
ATOM     22  N   UNL     1      -3.888  14.306  21.115  0.00  0.00    +0.000 N 
ATOM     23  H   UNL     1      -3.303  15.105  20.917  0.00  0.00    +0.000 HD
ENDBRANCH  13  14
ENDBRANCH  10  13
ENDBRANCH   3   7
BRANCH   4  24
ATOM     24  C   UNL     1       3.106   6.412  19.152  0.00  0.00    +0.000 A 
ATOM     25  C   UNL     1       3.302   5.041  18.935  0.00  0.00    +0.000 A 
ATOM     26  C   UNL     1       4.060   4.564  17.857  0.00  0.00    +0.000 A 
ATOM     27  C   UNL     1       4.640   5.458  16.960  0.00  0.00    +0.000 A 
ATOM     28  C   UNL     1       4.464   6.831  17.186  0.00  0.00    +0.000 A 
ATOM     29  C   UNL     1       3.709   7.306  18.269  0.00  0.00    +0.000 A 
BRANCH  27  30
ATOM     30  C   UNL     1       5.329   5.027  15.741  0.00  0.00    +0.000 A 
ATOM     31  N   UNL     1       6.418   5.604  15.271  0.00  0.00    +0.000 NA
ATOM     32  C   UNL     1       6.683   5.001  14.076  0.00  0.00    +0.000 A 
ATOM     33  C   UNL     1       7.692   5.284  13.148  0.00  0.00    +0.000 A 
ATOM     34  C   UNL     1       7.746   4.534  11.971  0.00  0.00    +0.000 A 
ATOM     35  C   UNL     1       6.819   3.514  11.732  0.00  0.00    +0.000 A 
ATOM     36  C   UNL     1       5.810   3.210  12.656  0.00  0.00    +0.000 A 
ATOM     37  C   UNL     1       5.773   3.987  13.818  0.00  0.00    +0.000 A 
ATOM     38  N   UNL     1       4.939   4.000  14.910  0.00  0.00    +0.000 N 
ATOM     39  H   UNL     1       4.165   3.371  15.059  0.00  0.00    +0.000 HD
ENDBRANCH  27  30
ENDBRANCH   4  24
TORSDOF 5
ENDMDL
MODEL 7
REMARK VINA RESULT:      -8.9      2.134     13.468
REMARK  Name = 
REMARK  5 active torsions:
REMARK  status: ('A' for Active; 'I' for Inactive)
REMARK    1  A    between atoms: N_3  and  C_4
REMARK    2  A    between atoms: C_7  and  C_8
REMARK    3  A    between atoms: C_8  and  C_9
REMARK    4  A    between atoms: N_20  and  C_21
REMARK    5  A    between atoms: C_24  and  C_25
REMARK                            x       y       z     vdW  Elec       q    Type
REMARK                         _______ _______ _______ _____ _____    ______ ____
ROOT
ATOM      1  O   UNL     1       2.189   9.265  20.369  0.00  0.00    +0.000 OA
ATOM      2  C   UNL     1       1.297   8.433  20.425  0.00  0.00    +0.000 C 
ATOM      3  N   UNL     1       1.411   7.126  19.978  0.00  0.00    +0.000 N 
ATOM      4  N   UNL     1       0.035   8.679  20.929  0.00  0.00    +0.000 N 
ATOM      5  H   UNL     1       0.541   6.621  19.912  0.00  0.00    +0.000 HD
ATOM      6  H   UNL     1      -0.568   7.872  20.978  0.00  0.00    +0.000 HD
ENDROOT
BRANCH   3   7
ATOM      7  C   UNL     1       2.584   6.565  19.411  0.00  0.00    +0.000 A 
ATOM      8  C   UNL     1       3.321   5.570  20.056  0.00  0.00    +0.000 A 
ATOM      9  C   UNL     1       4.497   5.062  19.505  0.00  0.00    +0.000 A 
ATOM     10  C   UNL     1       4.971   5.515  18.271  0.00  0.00    +0.000 A 
ATOM     11  C   UNL     1       4.242   6.520  17.618  0.00  0.00    +0.000 A 
ATOM     12  C   UNL     1       3.047   7.025  18.173  0.00  0.00    +0.000 A 
BRANCH  10  13
ATOM     13  C   UNL     1       6.295   4.955  17.790  0.00  0.00    +0.000 C 
BRANCH  13  14
ATOM     14  C   UNL     1       6.457   4.741  16.322  0.00  0.00    +0.000 A 
ATOM     15  N   UNL     1       5.761   3.894  15.591  0.00  0.00    +0.000 NA
ATOM     16  C   UNL     1       6.207   4.055  14.306  0.00  0.00    +0.000 A 
ATOM     17  C   UNL     1       5.802   3.398  13.135  0.00  0.00    +0.000 A 
ATOM     18  C   UNL     1       6.447   3.712  11.934  0.00  0.00    +0.000 A 
ATOM     19  C   UNL     1       7.467   4.666  11.901  0.00  0.00    +0.000 A 
ATOM     20  C   UNL     1       7.862   5.355  13.056  0.00  0.00    +0.000 A 
ATOM     21  C   UNL     1       7.202   5.021  14.242  0.00  0.00    +0.000 A 
ATOM     22  N   UNL     1       7.310   5.479  15.533  0.00  0.00    +0.000 N 
ATOM     23  H   UNL     1       7.920   6.217  15.854  0.00  0.00    +0.000 HD
ENDBRANCH  13  14
ENDBRANCH  10  13
ENDBRANCH   3   7
BRANCH   4  24
ATOM     24  C   UNL     1      -0.449   9.930  21.385  0.00  0.00    +0.000 A 
ATOM     25  C   UNL     1      -0.770  10.994  20.530  0.00  0.00    +0.000 A 
ATOM     26  C   UNL     1      -1.296  12.200  21.015  0.00  0.00    +0.000 A 
ATOM     27  C   UNL     1      -1.522  12.366  22.379  0.00  0.00    +0.000 A 
ATOM     28  C   UNL     1      -1.183  11.312  23.240  0.00  0.00    +0.000 A 
ATOM     29  C   UNL     1      -0.651  10.109  22.753  0.00  0.00    +0.000 A 
BRANCH  27  30
ATOM     30  C   UNL     1      -2.192  13.544  22.936  0.00  0.00    +0.000 A 
ATOM     31  N   UNL     1      -1.570  14.488  23.617  0.00  0.00    +0.000 NA
ATOM     32  C   UNL     1      -2.540  15.338  24.061  0.00  0.00    +0.000 A 
ATOM     33  C   UNL     1      -2.419  16.468  24.878  0.00  0.00    +0.000 A 
ATOM     34  C   UNL     1      -3.576  17.173  25.220  0.00  0.00    +0.000 A 
ATOM     35  C   UNL     1      -4.826  16.765  24.745  0.00  0.00    +0.000 A 
ATOM     36  C   UNL     1      -4.964  15.642  23.916  0.00  0.00    +0.000 A 
ATOM     37  C   UNL     1      -3.790  14.950  23.603  0.00  0.00    +0.000 A 
ATOM     38  N   UNL     1      -3.539  13.821  22.860  0.00  0.00    +0.000 N 
ATOM     39  H   UNL     1      -4.232  13.286  22.361  0.00  0.00    +0.000 HD
ENDBRANCH  27  30
ENDBRANCH   4  24
TORSDOF 5
ENDMDL
MODEL 8
REMARK VINA RESULT:      -8.9      2.422     13.528
REMARK  Name = 
REMARK  5 active torsions:
REMARK  status: ('A' for Active; 'I' for Inactive)
REMARK    1  A    between atoms: N_3  and  C_4
REMARK    2  A    between atoms: C_7  and  C_8
REMARK    3  A    between atoms: C_8  and  C_9
REMARK    4  A    between atoms: N_20  and  C_21
REMARK    5  A    between atoms: C_24  and  C_25
REMARK                            x       y       z     vdW  Elec       q    Type
REMARK                         _______ _______ _______ _____ _____    ______ ____
ROOT
ATOM      1  O   UNL     1       2.073   9.194  20.863  0.00  0.00    +0.000 OA
ATOM      2  C   UNL     1       1.192   8.816  20.106  0.00  0.00    +0.000 C 
ATOM      3  N   UNL     1       1.367   7.876  19.103  0.00  0.00    +0.000 N 
ATOM      4  N   UNL     1      -0.107   9.285  20.130  0.00  0.00    +0.000 N 
ATOM      5  H   UNL     1       0.607   7.811  18.443  0.00  0.00    +0.000 HD
ATOM      6  H   UNL     1      -0.738   8.822  19.493  0.00  0.00    +0.000 HD
ENDROOT
BRANCH   3   7
ATOM      7  C   UNL     1       2.586   7.205  18.826  0.00  0.00    +0.000 A 
ATOM      8  C   UNL     1       3.417   7.577  17.767  0.00  0.00    +0.000 A 
ATOM      9  C   UNL     1       4.589   6.879  17.482  0.00  0.00    +0.000 A 
ATOM     10  C   UNL     1       4.990   5.791  18.262  0.00  0.00    +0.000 A 
ATOM     11  C   UNL     1       4.159   5.405  19.324  0.00  0.00    +0.000 A 
ATOM     12  C   UNL     1       2.978   6.120  19.617  0.00  0.00    +0.000 A 
BRANCH  10  13
ATOM     13  C   UNL     1       6.240   5.051  17.829  0.00  0.00    +0.000 C 
BRANCH  13  14
ATOM     14  C   UNL     1       6.407   4.779  16.371  0.00  0.00    +0.000 A 
ATOM     15  N   UNL     1       5.672   3.947  15.660  0.00  0.00    +0.000 NA
ATOM     16  C   UNL     1       6.140   4.040  14.376  0.00  0.00    +0.000 A 
ATOM     17  C   UNL     1       5.713   3.367  13.223  0.00  0.00    +0.000 A 
ATOM     18  C   UNL     1       6.387   3.604  12.020  0.00  0.00    +0.000 A 
ATOM     19  C   UNL     1       7.458   4.499  11.968  0.00  0.00    +0.000 A 
ATOM     20  C   UNL     1       7.878   5.204  13.105  0.00  0.00    +0.000 A 
ATOM     21  C   UNL     1       7.188   4.948  14.292  0.00  0.00    +0.000 A 
ATOM     22  N   UNL     1       7.307   5.442  15.569  0.00  0.00    +0.000 N 
ATOM     23  H   UNL     1       7.953   6.156  15.873  0.00  0.00    +0.000 HD
ENDBRANCH  13  14
ENDBRANCH  10  13
ENDBRANCH   3   7
BRANCH   4  24
ATOM     24  C   UNL     1      -0.605  10.314  20.967  0.00  0.00    +0.000 A 
ATOM     25  C   UNL     1      -0.696  10.200  22.362  0.00  0.00    +0.000 A 
ATOM     26  C   UNL     1      -1.144  11.260  23.162  0.00  0.00    +0.000 A 
ATOM     27  C   UNL     1      -1.509  12.471  22.579  0.00  0.00    +0.000 A 
ATOM     28  C   UNL     1      -1.439  12.582  21.182  0.00  0.00    +0.000 A 
ATOM     29  C   UNL     1      -0.995  11.518  20.383  0.00  0.00    +0.000 A 
BRANCH  27  30
ATOM     30  C   UNL     1      -1.857  13.658  23.364  0.00  0.00    +0.000 A 
ATOM     31  N   UNL     1      -3.096  14.058  23.580  0.00  0.00    +0.000 NA
ATOM     32  C   UNL     1      -3.002  15.247  24.242  0.00  0.00    +0.000 A 
ATOM     33  C   UNL     1      -4.022  16.114  24.651  0.00  0.00    +0.000 A 
ATOM     34  C   UNL     1      -3.671  17.300  25.299  0.00  0.00    +0.000 A 
ATOM     35  C   UNL     1      -2.329  17.608  25.546  0.00  0.00    +0.000 A 
ATOM     36  C   UNL     1      -1.295  16.746  25.153  0.00  0.00    +0.000 A 
ATOM     37  C   UNL     1      -1.678  15.574  24.494  0.00  0.00    +0.000 A 
ATOM     38  N   UNL     1      -0.967  14.529  23.954  0.00  0.00    +0.000 N 
ATOM     39  H   UNL     1       0.036  14.433  23.978  0.00  0.00    +0.000 HD
ENDBRANCH  27  30
ENDBRANCH   4  24
TORSDOF 5
ENDMDL
MODEL 9
REMARK VINA RESULT:      -8.8      2.409     13.432
REMARK  Name = 
REMARK  5 active torsions:
REMARK  status: ('A' for Active; 'I' for Inactive)
REMARK    1  A    between atoms: N_3  and  C_4
REMARK    2  A    between atoms: C_7  and  C_8
REMARK    3  A    between atoms: C_8  and  C_9
REMARK    4  A    between atoms: N_20  and  C_21
REMARK    5  A    between atoms: C_24  and  C_25
REMARK                            x       y       z     vdW  Elec       q    Type
REMARK                         _______ _______ _______ _____ _____    ______ ____
ROOT
ATOM      1  O   UNL     1       2.264   9.112  20.726  0.00  0.00    +0.000 OA
ATOM      2  C   UNL     1       1.339   8.521  20.190  0.00  0.00    +0.000 C 
ATOM      3  N   UNL     1       1.488   7.438  19.337  0.00  0.00    +0.000 N 
ATOM      4  N   UNL     1       0.009   8.856  20.344  0.00  0.00    +0.000 N 
ATOM      5  H   UNL     1       0.657   7.183  18.825  0.00  0.00    +0.000 HD
ATOM      6  H   UNL     1      -0.642   8.227  19.899  0.00  0.00    +0.000 HD
ENDROOT
BRANCH   3   7
ATOM      7  C   UNL     1       2.730   6.853  18.981  0.00  0.00    +0.000 A 
ATOM      8  C   UNL     1       3.457   7.269  17.864  0.00  0.00    +0.000 A 
ATOM      9  C   UNL     1       4.654   6.652  17.503  0.00  0.00    +0.000 A 
ATOM     10  C   UNL     1       5.186   5.606  18.263  0.00  0.00    +0.000 A 
ATOM     11  C   UNL     1       4.459   5.176  19.384  0.00  0.00    +0.000 A 
ATOM     12  C   UNL     1       3.253   5.809  19.752  0.00  0.00    +0.000 A 
BRANCH  10  13
ATOM     13  C   UNL     1       6.452   4.952  17.750  0.00  0.00    +0.000 C 
BRANCH  13  14
ATOM     14  C   UNL     1       6.551   4.703  16.282  0.00  0.00    +0.000 A 
ATOM     15  N   UNL     1       5.818   3.844  15.602  0.00  0.00    +0.000 NA
ATOM     16  C   UNL     1       6.210   3.972  14.296  0.00  0.00    +0.000 A 
ATOM     17  C   UNL     1       5.752   3.292  13.158  0.00  0.00    +0.000 A 
ATOM     18  C   UNL     1       6.347   3.573  11.924  0.00  0.00    +0.000 A 
ATOM     19  C   UNL     1       7.371   4.518  11.825  0.00  0.00    +0.000 A 
ATOM     20  C   UNL     1       7.819   5.231  12.947  0.00  0.00    +0.000 A 
ATOM     21  C   UNL     1       7.208   4.930  14.166  0.00  0.00    +0.000 A 
ATOM     22  N   UNL     1       7.374   5.415  15.441  0.00  0.00    +0.000 N 
ATOM     23  H   UNL     1       8.001   6.156  15.719  0.00  0.00    +0.000 HD
ENDBRANCH  13  14
ENDBRANCH  10  13
ENDBRANCH   3   7
BRANCH   4  24
ATOM     24  C   UNL     1      -0.491   9.964  21.072  0.00  0.00    +0.000 A 
ATOM     25  C   UNL     1      -0.654   9.964  22.465  0.00  0.00    +0.000 A 
ATOM     26  C   UNL     1      -1.102  11.098  23.157  0.00  0.00    +0.000 A 
ATOM     27  C   UNL     1      -1.394  12.270  22.465  0.00  0.00    +0.000 A 
ATOM     28  C   UNL     1      -1.252  12.268  21.069  0.00  0.00    +0.000 A 
ATOM     29  C   UNL     1      -0.809  11.130  20.378  0.00  0.00    +0.000 A 
BRANCH  27  30
ATOM     30  C   UNL     1      -1.736  13.527  23.136  0.00  0.00    +0.000 A 
ATOM     31  N   UNL     1      -0.862  14.274  23.783  0.00  0.00    +0.000 NA
ATOM     32  C   UNL     1      -1.577  15.282  24.360  0.00  0.00    +0.000 A 
ATOM     33  C   UNL     1      -1.135  16.308  25.203  0.00  0.00    +0.000 A 
ATOM     34  C   UNL     1      -2.073  17.220  25.694  0.00  0.00    +0.000 A 
ATOM     35  C   UNL     1      -3.422  17.116  25.339  0.00  0.00    +0.000 A 
ATOM     36  C   UNL     1      -3.879  16.101  24.487  0.00  0.00    +0.000 A 
ATOM     37  C   UNL     1      -2.919  15.196  24.024  0.00  0.00    +0.000 A 
ATOM     38  N   UNL     1      -2.991  14.088  23.215  0.00  0.00    +0.000 N 
ATOM     39  H   UNL     1      -3.829  13.743  22.772  0.00  0.00    +0.000 HD
ENDBRANCH  27  30
ENDBRANCH   4  24
TORSDOF 5
ENDMDL
