MODEL 1
REMARK VINA RESULT:      -7.3      0.000      0.000
REMARK  Name = 
REMARK  9 active torsions:
REMARK  status: ('A' for Active; 'I' for Inactive)
REMARK    1  A    between atoms: C_2  and  C_4
REMARK    2  A    between atoms: C_7  and  O_8
REMARK    3  A    between atoms: O_8  and  C_9
REMARK    4  A    between atoms: C_9  and  C_10
REMARK    5  A    between atoms: C_10  and  C_11
REMARK    6  A    between atoms: C_11  and  C_12
REMARK    7  A    between atoms: C_12  and  O_13
REMARK    8  A    between atoms: O_13  and  C_14
REMARK    9  A    between atoms: C_17  and  C_18
REMARK                            x       y       z     vdW  Elec       q    Type
REMARK                         _______ _______ _______ _____ _____    ______ ____
ROOT
ATOM      1  C   UNL     1       1.166   2.872  18.712  0.00  0.00    +0.000 C 
ENDROOT
BRANCH   1   2
ATOM      2  C   UNL     1       2.186   2.857  17.566  0.00  0.00    +0.000 C 
BRANCH   2   3
ATOM      3  O   UNL     1       3.447   2.791  18.121  0.00  0.00    +0.000 OA
BRANCH   3   7
ATOM      4  C   UNL     1       6.478   5.661  17.879  0.00  0.00    +0.000 A 
ATOM      5  C   UNL     1       6.157   5.009  19.087  0.00  0.00    +0.000 A 
ATOM      6  C   UNL     1       5.163   4.034  19.131  0.00  0.00    +0.000 A 
ATOM      7  C   UNL     1       4.455   3.687  17.982  0.00  0.00    +0.000 A 
ATOM      8  C   UNL     1       4.788   4.308  16.762  0.00  0.00    +0.000 A 
ATOM      9  C   UNL     1       5.786   5.279  16.714  0.00  0.00    +0.000 A 
BRANCH   4  11
ATOM     10  N   UNL     1       7.679   7.440  16.801  0.00  0.00    +0.000 NA
ATOM     11  C   UNL     1       7.515   6.740  17.869  0.00  0.00    +0.000 C 
ATOM     12  N   UNL     1       8.348   6.998  18.995  0.00  0.00    +0.000 N 
ATOM     13  H   UNL     1       8.392   8.182  16.741  0.00  0.00    +0.000 HD
ATOM     14  H   UNL     1       9.060   7.741  18.951  0.00  0.00    +0.000 HD
ATOM     15  H   UNL     1       8.285   6.466  19.871  0.00  0.00    +0.000 HD
ENDBRANCH   4  11
ENDBRANCH   3   7
ENDBRANCH   2   3
ENDBRANCH   1   2
BRANCH   1  16
ATOM     16  C   UNL     1       1.817   2.930  20.101  0.00  0.00    +0.000 C 
BRANCH  16  17
ATOM     17  C   UNL     1       1.456   4.222  20.815  0.00  0.00    +0.000 C 
BRANCH  17  18
ATOM     18  O   UNL     1       2.430   5.182  20.646  0.00  0.00    +0.000 OA
BRANCH  18  19
ATOM     19  C   UNL     1       2.186   6.378  20.045  0.00  0.00    +0.000 A 
ATOM     20  C   UNL     1       2.505   6.609  18.695  0.00  0.00    +0.000 A 
ATOM     21  C   UNL     1       2.227   7.833  18.096  0.00  0.00    +0.000 A 
ATOM     22  C   UNL     1       1.618   8.880  18.819  0.00  0.00    +0.000 A 
ATOM     23  C   UNL     1       1.317   8.638  20.183  0.00  0.00    +0.000 A 
ATOM     24  C   UNL     1       1.599   7.404  20.783  0.00  0.00    +0.000 A 
BRANCH  22  25
ATOM     25  C   UNL     1       1.289  10.200  18.158  0.00  0.00    +0.000 C 
ATOM     26  N   UNL     1       0.071  10.578  17.959  0.00  0.00    +0.000 NA
ATOM     27  N   UNL     1       2.313  11.095  17.741  0.00  0.00    +0.000 N 
ATOM     28  H   UNL     1      -0.767  10.044  18.214  0.00  0.00    +0.000 HD
ATOM     29  H   UNL     1       3.313  10.902  17.857  0.00  0.00    +0.000 HD
ATOM     30  H   UNL     1       2.055  11.995  17.314  0.00  0.00    +0.000 HD
ENDBRANCH  22  25
ENDBRANCH  18  19
ENDBRANCH  17  18
ENDBRANCH  16  17
ENDBRANCH   1  16
TORSDOF 9
ENDMDL
MODEL 2
REMARK VINA RESULT:      -7.2      0.508      1.457
REMARK  Name = 
REMARK  9 active torsions:
REMARK  status: ('A' for Active; 'I' for Inactive)
REMARK    1  A    between atoms: C_2  and  C_4
REMARK    2  A    between atoms: C_7  and  O_8
REMARK    3  A    between atoms: O_8  and  C_9
REMARK    4  A    between atoms: C_9  and  C_10
REMARK    5  A    between atoms: C_10  and  C_11
REMARK    6  A    between atoms: C_11  and  C_12
REMARK    7  A    between atoms: C_12  and  O_13
REMARK    8  A    between atoms: O_13  and  C_14
REMARK    9  A    between atoms: C_17  and  C_18
REMARK                            x       y       z     vdW  Elec       q    Type
REMARK                         _______ _______ _______ _____ _____    ______ ____
ROOT
ATOM      1  C   UNL     1       1.789   2.373  19.732  0.00  0.00    +0.000 C 
ENDROOT
BRANCH   1   2
ATOM      2  C   UNL     1       1.881   3.152  18.414  0.00  0.00    +0.000 C 
BRANCH   2   3
ATOM      3  O   UNL     1       3.126   2.918  17.869  0.00  0.00    +0.000 OA
BRANCH   3   7
ATOM      4  C   UNL     1       6.287   5.656  17.885  0.00  0.00    +0.000 A 
ATOM      5  C   UNL     1       5.980   4.858  19.006  0.00  0.00    +0.000 A 
ATOM      6  C   UNL     1       4.940   3.931  18.961  0.00  0.00    +0.000 A 
ATOM      7  C   UNL     1       4.172   3.779  17.809  0.00  0.00    +0.000 A 
ATOM      8  C   UNL     1       4.489   4.548  16.671  0.00  0.00    +0.000 A 
ATOM      9  C   UNL     1       5.532   5.470  16.712  0.00  0.00    +0.000 A 
BRANCH   4  11
ATOM     10  N   UNL     1       8.174   6.654  18.986  0.00  0.00    +0.000 NA
ATOM     11  C   UNL     1       7.375   6.679  17.976  0.00  0.00    +0.000 C 
ATOM     12  N   UNL     1       7.537   7.699  16.995  0.00  0.00    +0.000 N 
ATOM     13  H   UNL     1       8.926   7.349  19.101  0.00  0.00    +0.000 HD
ATOM     14  H   UNL     1       8.290   8.395  17.094  0.00  0.00    +0.000 HD
ATOM     15  H   UNL     1       6.926   7.790  16.176  0.00  0.00    +0.000 HD
ENDBRANCH   4  11
ENDBRANCH   3   7
ENDBRANCH   2   3
ENDBRANCH   1   2
BRANCH   1  16
ATOM     16  C   UNL     1       1.889   3.269  20.974  0.00  0.00    +0.000 C 
BRANCH  16  17
ATOM     17  C   UNL     1       1.321   4.650  20.691  0.00  0.00    +0.000 C 
BRANCH  17  18
ATOM     18  O   UNL     1       2.322   5.584  20.525  0.00  0.00    +0.000 OA
BRANCH  18  19
ATOM     19  C   UNL     1       2.104   6.800  19.957  0.00  0.00    +0.000 A 
ATOM     20  C   UNL     1       1.356   7.799  20.605  0.00  0.00    +0.000 A 
ATOM     21  C   UNL     1       1.164   9.043  20.014  0.00  0.00    +0.000 A 
ATOM     22  C   UNL     1       1.711   9.344  18.749  0.00  0.00    +0.000 A 
ATOM     23  C   UNL     1       2.448   8.322  18.100  0.00  0.00    +0.000 A 
ATOM     24  C   UNL     1       2.639   7.070  18.699  0.00  0.00    +0.000 A 
BRANCH  22  25
ATOM     25  C   UNL     1       1.527  10.707  18.121  0.00  0.00    +0.000 C 
ATOM     26  N   UNL     1       2.460  11.273  17.431  0.00  0.00    +0.000 NA
ATOM     27  N   UNL     1       0.303  11.422  18.247  0.00  0.00    +0.000 N 
ATOM     28  H   UNL     1       3.389  10.875  17.248  0.00  0.00    +0.000 HD
ATOM     29  H   UNL     1      -0.508  11.066  18.763  0.00  0.00    +0.000 HD
ATOM     30  H   UNL     1       0.203  12.338  17.788  0.00  0.00    +0.000 HD
ENDBRANCH  22  25
ENDBRANCH  18  19
ENDBRANCH  17  18
ENDBRANCH  16  17
ENDBRANCH   1  16
TORSDOF 9
ENDMDL
MODEL 3
REMARK VINA RESULT:      -7.1      1.354      2.081
REMARK  Name = 
REMARK  9 active torsions:
REMARK  status: ('A' for Active; 'I' for Inactive)
REMARK    1  A    between atoms: C_2  and  C_4
REMARK    2  A    between atoms: C_7  and  O_8
REMARK    3  A    between atoms: O_8  and  C_9
REMARK    4  A    between atoms: C_9  and  C_10
REMARK    5  A    between atoms: C_10  and  C_11
REMARK    6  A    between atoms: C_11  and  C_12
REMARK    7  A    between atoms: C_12  and  O_13
REMARK    8  A    between atoms: O_13  and  C_14
REMARK    9  A    between atoms: C_17  and  C_18
REMARK                            x       y       z     vdW  Elec       q    Type
REMARK                         _______ _______ _______ _____ _____    ______ ____
ROOT
ATOM      1  C   UNL     1       1.383   2.747  20.548  0.00  0.00    +0.000 C 
ENDROOT
BRANCH   1   2
ATOM      2  C   UNL     1       2.867   2.573  20.899  0.00  0.00    +0.000 C 
BRANCH   2   3
ATOM      3  O   UNL     1       3.532   2.198  19.751  0.00  0.00    +0.000 OA
BRANCH   3   7
ATOM      4  C   UNL     1       5.341   4.877  17.099  0.00  0.00    +0.000 A 
ATOM      5  C   UNL     1       5.687   4.825  18.464  0.00  0.00    +0.000 A 
ATOM      6  C   UNL     1       5.090   3.899  19.319  0.00  0.00    +0.000 A 
ATOM      7  C   UNL     1       4.128   3.011  18.844  0.00  0.00    +0.000 A 
ATOM      8  C   UNL     1       3.796   3.032  17.475  0.00  0.00    +0.000 A 
ATOM      9  C   UNL     1       4.396   3.952  16.617  0.00  0.00    +0.000 A 
BRANCH   4  11
ATOM     10  N   UNL     1       5.194   6.727  15.574  0.00  0.00    +0.000 NA
ATOM     11  C   UNL     1       5.960   5.914  16.214  0.00  0.00    +0.000 C 
ATOM     12  N   UNL     1       7.370   6.009  16.035  0.00  0.00    +0.000 N 
ATOM     13  H   UNL     1       5.574   7.445  14.939  0.00  0.00    +0.000 HD
ATOM     14  H   UNL     1       7.762   6.727  15.409  0.00  0.00    +0.000 HD
ATOM     15  H   UNL     1       8.037   5.382  16.498  0.00  0.00    +0.000 HD
ENDBRANCH   4  11
ENDBRANCH   3   7
ENDBRANCH   2   3
ENDBRANCH   1   2
BRANCH   1  16
ATOM     16  C   UNL     1       1.031   4.170  20.097  0.00  0.00    +0.000 C 
BRANCH  16  17
ATOM     17  C   UNL     1       1.894   5.195  20.814  0.00  0.00    +0.000 C 
BRANCH  17  18
ATOM     18  O   UNL     1       2.555   6.012  19.922  0.00  0.00    +0.000 OA
BRANCH  18  19
ATOM     19  C   UNL     1       2.124   7.266  19.618  0.00  0.00    +0.000 A 
ATOM     20  C   UNL     1       1.438   8.063  20.551  0.00  0.00    +0.000 A 
ATOM     21  C   UNL     1       1.026   9.350  20.224  0.00  0.00    +0.000 A 
ATOM     22  C   UNL     1       1.281   9.898  18.949  0.00  0.00    +0.000 A 
ATOM     23  C   UNL     1       1.959   9.078  18.014  0.00  0.00    +0.000 A 
ATOM     24  C   UNL     1       2.372   7.782  18.347  0.00  0.00    +0.000 A 
BRANCH  22  25
ATOM     25  C   UNL     1       0.859  11.309  18.606  0.00  0.00    +0.000 C 
ATOM     26  N   UNL     1       1.700  12.187  18.171  0.00  0.00    +0.000 NA
ATOM     27  N   UNL     1      -0.495  11.727  18.728  0.00  0.00    +0.000 N 
ATOM     28  H   UNL     1       2.703  12.027  18.024  0.00  0.00    +0.000 HD
ATOM     29  H   UNL     1      -1.249  11.113  19.053  0.00  0.00    +0.000 HD
ATOM     30  H   UNL     1      -0.753  12.689  18.464  0.00  0.00    +0.000 HD
ENDBRANCH  22  25
ENDBRANCH  18  19
ENDBRANCH  17  18
ENDBRANCH  16  17
ENDBRANCH   1  16
TORSDOF 9
ENDMDL
MODEL 4
REMARK VINA RESULT:      -7.1      0.636      5.445
REMARK  Name = 
REMARK  9 active torsions:
REMARK  status: ('A' for Active; 'I' for Inactive)
REMARK    1  A    between atoms: C_2  and  C_4
REMARK    2  A    between atoms: C_7  and  O_8
REMARK    3  A    between atoms: O_8  and  C_9
REMARK    4  A    between atoms: C_9  and  C_10
REMARK    5  A    between atoms: C_10  and  C_11
REMARK    6  A    between atoms: C_11  and  C_12
REMARK    7  A    between atoms: C_12  and  O_13
REMARK    8  A    between atoms: O_13  and  C_14
REMARK    9  A    between atoms: C_17  and  C_18
REMARK                            x       y       z     vdW  Elec       q    Type
REMARK                         _______ _______ _______ _____ _____    ______ ____
ROOT
ATOM      1  C   UNL     1       0.747   4.078  20.004  0.00  0.00    +0.000 C 
ENDROOT
BRANCH   1   2
ATOM      2  C   UNL     1       1.895   4.057  21.022  0.00  0.00    +0.000 C 
BRANCH   2   3
ATOM      3  O   UNL     1       2.599   5.236  20.891  0.00  0.00    +0.000 OA
BRANCH   3   7
ATOM      4  C   UNL     1       1.579   8.742  18.854  0.00  0.00    +0.000 A 
ATOM      5  C   UNL     1       2.294   7.696  18.236  0.00  0.00    +0.000 A 
ATOM      6  C   UNL     1       2.593   6.525  18.930  0.00  0.00    +0.000 A 
ATOM      7  C   UNL     1       2.199   6.366  20.257  0.00  0.00    +0.000 A 
ATOM      8  C   UNL     1       1.456   7.390  20.877  0.00  0.00    +0.000 A 
ATOM      9  C   UNL     1       1.151   8.559  20.182  0.00  0.00    +0.000 A 
BRANCH   4  11
ATOM     10  N   UNL     1       2.308  10.653  17.594  0.00  0.00    +0.000 NA
ATOM     11  C   UNL     1       1.315  10.009  18.102  0.00  0.00    +0.000 C 
ATOM     12  N   UNL     1       0.002  10.541  17.956  0.00  0.00    +0.000 N 
ATOM     13  H   UNL     1       2.177  11.539  17.084  0.00  0.00    +0.000 HD
ATOM     14  H   UNL     1      -0.143  11.422  17.442  0.00  0.00    +0.000 HD
ATOM     15  H   UNL     1      -0.831  10.091  18.350  0.00  0.00    +0.000 HD
ENDBRANCH   4  11
ENDBRANCH   3   7
ENDBRANCH   2   3
ENDBRANCH   1   2
BRANCH   1  16
ATOM     16  C   UNL     1       1.012   3.200  18.774  0.00  0.00    +0.000 C 
BRANCH  16  17
ATOM     17  C   UNL     1       2.126   2.203  19.050  0.00  0.00    +0.000 C 
BRANCH  17  18
ATOM     18  O   UNL     1       3.085   2.230  18.061  0.00  0.00    +0.000 OA
BRANCH  18  19
ATOM     19  C   UNL     1       4.028   3.208  17.979  0.00  0.00    +0.000 A 
ATOM     20  C   UNL     1       4.229   3.948  16.802  0.00  0.00    +0.000 A 
ATOM     21  C   UNL     1       5.184   4.957  16.747  0.00  0.00    +0.000 A 
ATOM     22  C   UNL     1       5.981   5.271  17.868  0.00  0.00    +0.000 A 
ATOM     23  C   UNL     1       5.779   4.505  19.044  0.00  0.00    +0.000 A 
ATOM     24  C   UNL     1       4.816   3.490  19.094  0.00  0.00    +0.000 A 
BRANCH  22  25
ATOM     25  C   UNL     1       6.999   6.389  17.817  0.00  0.00    +0.000 C 
ATOM     26  N   UNL     1       7.927   6.508  18.706  0.00  0.00    +0.000 NA
ATOM     27  N   UNL     1       6.990   7.351  16.770  0.00  0.00    +0.000 N 
ATOM     28  H   UNL     1       8.063   5.885  19.511  0.00  0.00    +0.000 HD
ATOM     29  H   UNL     1       6.305   7.349  16.006  0.00  0.00    +0.000 HD
ATOM     30  H   UNL     1       7.711   8.086  16.752  0.00  0.00    +0.000 HD
ENDBRANCH  22  25
ENDBRANCH  18  19
ENDBRANCH  17  18
ENDBRANCH  16  17
ENDBRANCH   1  16
TORSDOF 9
ENDMDL
MODEL 5
REMARK VINA RESULT:      -7.1      0.896      1.921
REMARK  Name = 
REMARK  9 active torsions:
REMARK  status: ('A' for Active; 'I' for Inactive)
REMARK    1  A    between atoms: C_2  and  C_4
REMARK    2  A    between atoms: C_7  and  O_8
REMARK    3  A    between atoms: O_8  and  C_9
REMARK    4  A    between atoms: C_9  and  C_10
REMARK    5  A    between atoms: C_10  and  C_11
REMARK    6  A    between atoms: C_11  and  C_12
REMARK    7  A    between atoms: C_12  and  O_13
REMARK    8  A    between atoms: O_13  and  C_14
REMARK    9  A    between atoms: C_17  and  C_18
REMARK                            x       y       z     vdW  Elec       q    Type
REMARK                         _______ _______ _______ _____ _____    ______ ____
ROOT
ATOM      1  C   UNL     1       1.065   2.208  19.252  0.00  0.00    +0.000 C 
ENDROOT
BRANCH   1   2
ATOM      2  C   UNL     1       2.257   1.924  18.327  0.00  0.00    +0.000 C 
BRANCH   2   3
ATOM      3  O   UNL     1       3.378   2.491  18.895  0.00  0.00    +0.000 OA
BRANCH   3   7
ATOM      4  C   UNL     1       6.090   4.995  16.930  0.00  0.00    +0.000 A 
ATOM      5  C   UNL     1       5.018   4.375  16.257  0.00  0.00    +0.000 A 
ATOM      6  C   UNL     1       4.111   3.570  16.944  0.00  0.00    +0.000 A 
ATOM      7  C   UNL     1       4.249   3.352  18.313  0.00  0.00    +0.000 A 
ATOM      8  C   UNL     1       5.298   3.991  19.004  0.00  0.00    +0.000 A 
ATOM      9  C   UNL     1       6.202   4.802  18.320  0.00  0.00    +0.000 A 
BRANCH   4  11
ATOM     10  N   UNL     1       7.533   6.899  16.681  0.00  0.00    +0.000 NA
ATOM     11  C   UNL     1       7.079   5.813  16.160  0.00  0.00    +0.000 C 
ATOM     12  N   UNL     1       7.510   5.443  14.854  0.00  0.00    +0.000 N 
ATOM     13  H   UNL     1       8.201   7.503  16.180  0.00  0.00    +0.000 HD
ATOM     14  H   UNL     1       8.183   6.034  14.346  0.00  0.00    +0.000 HD
ATOM     15  H   UNL     1       7.175   4.602  14.371  0.00  0.00    +0.000 HD
ENDBRANCH   4  11
ENDBRANCH   3   7
ENDBRANCH   2   3
ENDBRANCH   1   2
BRANCH   1  16
ATOM     16  C   UNL     1       0.826   3.705  19.489  0.00  0.00    +0.000 C 
BRANCH  16  17
ATOM     17  C   UNL     1       1.427   4.147  20.813  0.00  0.00    +0.000 C 
BRANCH  17  18
ATOM     18  O   UNL     1       2.407   5.099  20.631  0.00  0.00    +0.000 OA
BRANCH  18  19
ATOM     19  C   UNL     1       2.148   6.330  20.114  0.00  0.00    +0.000 A 
ATOM     20  C   UNL     1       1.465   7.315  20.849  0.00  0.00    +0.000 A 
ATOM     21  C   UNL     1       1.229   8.574  20.308  0.00  0.00    +0.000 A 
ATOM     22  C   UNL     1       1.667   8.905  19.008  0.00  0.00    +0.000 A 
ATOM     23  C   UNL     1       2.339   7.897  18.273  0.00  0.00    +0.000 A 
ATOM     24  C   UNL     1       2.574   6.630  18.821  0.00  0.00    +0.000 A 
BRANCH  22  25
ATOM     25  C   UNL     1       1.436  10.285  18.432  0.00  0.00    +0.000 C 
ATOM     26  N   UNL     1       2.168  10.757  17.479  0.00  0.00    +0.000 NA
ATOM     27  N   UNL     1       0.386  11.119  18.906  0.00  0.00    +0.000 N 
ATOM     28  H   UNL     1       2.952  10.268  17.033  0.00  0.00    +0.000 HD
ATOM     29  H   UNL     1      -0.261  10.844  19.652  0.00  0.00    +0.000 HD
ATOM     30  H   UNL     1       0.242  12.044  18.476  0.00  0.00    +0.000 HD
ENDBRANCH  22  25
ENDBRANCH  18  19
ENDBRANCH  17  18
ENDBRANCH  16  17
ENDBRANCH   1  16
TORSDOF 9
ENDMDL
MODEL 6
REMARK VINA RESULT:      -6.9      0.749      5.549
REMARK  Name = 
REMARK  9 active torsions:
REMARK  status: ('A' for Active; 'I' for Inactive)
REMARK    1  A    between atoms: C_2  and  C_4
REMARK    2  A    between atoms: C_7  and  O_8
REMARK    3  A    between atoms: O_8  and  C_9
REMARK    4  A    between atoms: C_9  and  C_10
REMARK    5  A    between atoms: C_10  and  C_11
REMARK    6  A    between atoms: C_11  and  C_12
REMARK    7  A    between atoms: C_12  and  O_13
REMARK    8  A    between atoms: O_13  and  C_14
REMARK    9  A    between atoms: C_17  and  C_18
REMARK                            x       y       z     vdW  Elec       q    Type
REMARK                         _______ _______ _______ _____ _____    ______ ____
ROOT
ATOM      1  C   UNL     1       1.803   2.581  20.274  0.00  0.00    +0.000 C 
ENDROOT
BRANCH   1   2
ATOM      2  C   UNL     1       1.345   3.950  20.794  0.00  0.00    +0.000 C 
BRANCH   2   3
ATOM      3  O   UNL     1       2.308   4.876  20.456  0.00  0.00    +0.000 OA
BRANCH   3   7
ATOM      4  C   UNL     1       1.496   8.839  19.396  0.00  0.00    +0.000 A 
ATOM      5  C   UNL     1       1.128   8.307  20.649  0.00  0.00    +0.000 A 
ATOM      6  C   UNL     1       1.440   6.991  20.987  0.00  0.00    +0.000 A 
ATOM      7  C   UNL     1       2.115   6.167  20.089  0.00  0.00    +0.000 A 
ATOM      8  C   UNL     1       2.515   6.696  18.846  0.00  0.00    +0.000 A 
ATOM      9  C   UNL     1       2.210   8.013  18.508  0.00  0.00    +0.000 A 
BRANCH   4  11
ATOM     10  N   UNL     1       0.604  10.470  17.875  0.00  0.00    +0.000 NA
ATOM     11  C   UNL     1       1.104  10.238  19.039  0.00  0.00    +0.000 C 
ATOM     12  N   UNL     1       1.297  11.329  19.935  0.00  0.00    +0.000 N 
ATOM     13  H   UNL     1       0.336  11.420  17.579  0.00  0.00    +0.000 HD
ATOM     14  H   UNL     1       1.027  12.281  19.653  0.00  0.00    +0.000 HD
ATOM     15  H   UNL     1       1.708  11.220  20.869  0.00  0.00    +0.000 HD
ENDBRANCH   4  11
ENDBRANCH   3   7
ENDBRANCH   2   3
ENDBRANCH   1   2
BRANCH   1  16
ATOM     16  C   UNL     1       1.659   2.432  18.754  0.00  0.00    +0.000 C 
BRANCH  16  17
ATOM     17  C   UNL     1       2.975   2.003  18.125  0.00  0.00    +0.000 C 
BRANCH  17  18
ATOM     18  O   UNL     1       3.393   2.900  17.166  0.00  0.00    +0.000 OA
BRANCH  18  19
ATOM     19  C   UNL     1       4.346   3.840  17.406  0.00  0.00    +0.000 A 
ATOM     20  C   UNL     1       4.959   3.973  18.664  0.00  0.00    +0.000 A 
ATOM     21  C   UNL     1       5.946   4.928  18.880  0.00  0.00    +0.000 A 
ATOM     22  C   UNL     1       6.366   5.793  17.848  0.00  0.00    +0.000 A 
ATOM     23  C   UNL     1       5.728   5.659  16.589  0.00  0.00    +0.000 A 
ATOM     24  C   UNL     1       4.733   4.696  16.376  0.00  0.00    +0.000 A 
BRANCH  22  25
ATOM     25  C   UNL     1       7.461   6.810  18.076  0.00  0.00    +0.000 C 
ATOM     26  N   UNL     1       8.314   6.690  19.038  0.00  0.00    +0.000 NA
ATOM     27  N   UNL     1       7.612   7.940  17.225  0.00  0.00    +0.000 N 
ATOM     28  H   UNL     1       8.334   5.926  19.723  0.00  0.00    +0.000 HD
ATOM     29  H   UNL     1       6.999   8.131  16.426  0.00  0.00    +0.000 HD
ATOM     30  H   UNL     1       8.383   8.602  17.395  0.00  0.00    +0.000 HD
ENDBRANCH  22  25
ENDBRANCH  18  19
ENDBRANCH  17  18
ENDBRANCH  16  17
ENDBRANCH   1  16
TORSDOF 9
ENDMDL
MODEL 7
REMARK VINA RESULT:      -6.9      0.885      5.412
REMARK  Name = 
REMARK  9 active torsions:
REMARK  status: ('A' for Active; 'I' for Inactive)
REMARK    1  A    between atoms: C_2  and  C_4
REMARK    2  A    between atoms: C_7  and  O_8
REMARK    3  A    between atoms: O_8  and  C_9
REMARK    4  A    between atoms: C_9  and  C_10
REMARK    5  A    between atoms: C_10  and  C_11
REMARK    6  A    between atoms: C_11  and  C_12
REMARK    7  A    between atoms: C_12  and  O_13
REMARK    8  A    between atoms: O_13  and  C_14
REMARK    9  A    between atoms: C_17  and  C_18
REMARK                            x       y       z     vdW  Elec       q    Type
REMARK                         _______ _______ _______ _____ _____    ______ ____
ROOT
ATOM      1  C   UNL     1       1.335   3.295  20.499  0.00  0.00    +0.000 C 
ENDROOT
BRANCH   1   2
ATOM      2  C   UNL     1       1.629   4.672  21.108  0.00  0.00    +0.000 C 
BRANCH   2   3
ATOM      3  O   UNL     1       2.462   5.349  20.243  0.00  0.00    +0.000 OA
BRANCH   3   7
ATOM      4  C   UNL     1       1.726   9.203  18.795  0.00  0.00    +0.000 A 
ATOM      5  C   UNL     1       1.330   8.798  20.086  0.00  0.00    +0.000 A 
ATOM      6  C   UNL     1       1.616   7.517  20.554  0.00  0.00    +0.000 A 
ATOM      7  C   UNL     1       2.294   6.602  19.750  0.00  0.00    +0.000 A 
ATOM      8  C   UNL     1       2.723   7.004  18.470  0.00  0.00    +0.000 A 
ATOM      9  C   UNL     1       2.444   8.287  18.003  0.00  0.00    +0.000 A 
BRANCH   4  11
ATOM     10  N   UNL     1       0.162  10.998  18.480  0.00  0.00    +0.000 NA
ATOM     11  C   UNL     1       1.362  10.567  18.298  0.00  0.00    +0.000 C 
ATOM     12  N   UNL     1       2.293  11.391  17.604  0.00  0.00    +0.000 N 
ATOM     13  H   UNL     1      -0.139  11.923  18.139  0.00  0.00    +0.000 HD
ATOM     14  H   UNL     1       2.006  12.321  17.265  0.00  0.00    +0.000 HD
ATOM     15  H   UNL     1       3.258  11.103  17.407  0.00  0.00    +0.000 HD
ENDBRANCH   4  11
ENDBRANCH   3   7
ENDBRANCH   2   3
ENDBRANCH   1   2
BRANCH   1  16
ATOM     16  C   UNL     1       1.260   3.314  18.966  0.00  0.00    +0.000 C 
BRANCH  16  17
ATOM     17  C   UNL     1       1.977   2.112  18.374  0.00  0.00    +0.000 C 
BRANCH  17  18
ATOM     18  O   UNL     1       3.330   2.152  18.633  0.00  0.00    +0.000 OA
BRANCH  18  19
ATOM     19  C   UNL     1       4.136   3.147  18.175  0.00  0.00    +0.000 A 
ATOM     20  C   UNL     1       4.008   3.669  16.876  0.00  0.00    +0.000 A 
ATOM     21  C   UNL     1       4.830   4.700  16.436  0.00  0.00    +0.000 A 
ATOM     22  C   UNL     1       5.818   5.256  17.276  0.00  0.00    +0.000 A 
ATOM     23  C   UNL     1       5.948   4.708  18.576  0.00  0.00    +0.000 A 
ATOM     24  C   UNL     1       5.118   3.669  19.015  0.00  0.00    +0.000 A 
BRANCH  22  25
ATOM     25  C   UNL     1       6.692   6.397  16.806  0.00  0.00    +0.000 C 
ATOM     26  N   UNL     1       7.718   6.204  16.047  0.00  0.00    +0.000 NA
ATOM     27  N   UNL     1       6.407   7.744  17.165  0.00  0.00    +0.000 N 
ATOM     28  H   UNL     1       8.039   5.292  15.701  0.00  0.00    +0.000 HD
ATOM     29  H   UNL     1       5.614   8.016  17.755  0.00  0.00    +0.000 HD
ATOM     30  H   UNL     1       7.010   8.500  16.810  0.00  0.00    +0.000 HD
ENDBRANCH  22  25
ENDBRANCH  18  19
ENDBRANCH  17  18
ENDBRANCH  16  17
ENDBRANCH   1  16
TORSDOF 9
ENDMDL
MODEL 8
REMARK VINA RESULT:      -6.8      1.186      5.711
REMARK  Name = 
REMARK  9 active torsions:
REMARK  status: ('A' for Active; 'I' for Inactive)
REMARK    1  A    between atoms: C_2  and  C_4
REMARK    2  A    between atoms: C_7  and  O_8
REMARK    3  A    between atoms: O_8  and  C_9
REMARK    4  A    between atoms: C_9  and  C_10
REMARK    5  A    between atoms: C_10  and  C_11
REMARK    6  A    between atoms: C_11  and  C_12
REMARK    7  A    between atoms: C_12  and  O_13
REMARK    8  A    between atoms: O_13  and  C_14
REMARK    9  A    between atoms: C_17  and  C_18
REMARK                            x       y       z     vdW  Elec       q    Type
REMARK                         _______ _______ _______ _____ _____    ______ ____
ROOT
ATOM      1  C   UNL     1       0.988   4.346  20.521  0.00  0.00    +0.000 C 
ENDROOT
BRANCH   1   2
ATOM      2  C   UNL     1       2.284   5.021  20.989  0.00  0.00    +0.000 C 
BRANCH   2   3
ATOM      3  O   UNL     1       2.756   5.796  19.951  0.00  0.00    +0.000 OA
BRANCH   3   7
ATOM      4  C   UNL     1       1.192   9.526  18.888  0.00  0.00    +0.000 A 
ATOM      5  C   UNL     1       1.116   9.028  20.205  0.00  0.00    +0.000 A 
ATOM      6  C   UNL     1       1.674   7.795  20.537  0.00  0.00    +0.000 A 
ATOM      7  C   UNL     1       2.313   7.020  19.571  0.00  0.00    +0.000 A 
ATOM      8  C   UNL     1       2.423   7.520  18.258  0.00  0.00    +0.000 A 
ATOM      9  C   UNL     1       1.872   8.756  17.926  0.00  0.00    +0.000 A 
BRANCH   4  11
ATOM     10  N   UNL     1      -0.581  10.821  17.915  0.00  0.00    +0.000 NA
ATOM     11  C   UNL     1       0.541  10.829  18.547  0.00  0.00    +0.000 C 
ATOM     12  N   UNL     1       1.138  12.081  18.873  0.00  0.00    +0.000 N 
ATOM     13  H   UNL     1      -1.058  11.694  17.643  0.00  0.00    +0.000 HD
ATOM     14  H   UNL     1       0.669  12.960  18.613  0.00  0.00    +0.000 HD
ATOM     15  H   UNL     1       2.039  12.161  19.358  0.00  0.00    +0.000 HD
ENDBRANCH   4  11
ENDBRANCH   3   7
ENDBRANCH   2   3
ENDBRANCH   1   2
BRANCH   1  16
ATOM     16  C   UNL     1       1.092   2.817  20.452  0.00  0.00    +0.000 C 
BRANCH  16  17
ATOM     17  C   UNL     1       0.870   2.323  19.032  0.00  0.00    +0.000 C 
BRANCH  17  18
ATOM     18  O   UNL     1       2.047   1.898  18.454  0.00  0.00    +0.000 OA
BRANCH  18  19
ATOM     19  C   UNL     1       3.074   2.745  18.173  0.00  0.00    +0.000 A 
ATOM     20  C   UNL     1       3.036   3.622  17.076  0.00  0.00    +0.000 A 
ATOM     21  C   UNL     1       4.089   4.493  16.821  0.00  0.00    +0.000 A 
ATOM     22  C   UNL     1       5.228   4.527  17.653  0.00  0.00    +0.000 A 
ATOM     23  C   UNL     1       5.261   3.625  18.746  0.00  0.00    +0.000 A 
ATOM     24  C   UNL     1       4.198   2.749  18.999  0.00  0.00    +0.000 A 
BRANCH  22  25
ATOM     25  C   UNL     1       6.359   5.496  17.391  0.00  0.00    +0.000 C 
ATOM     26  N   UNL     1       6.186   6.774  17.435  0.00  0.00    +0.000 NA
ATOM     27  N   UNL     1       7.675   5.039  17.104  0.00  0.00    +0.000 N 
ATOM     28  H   UNL     1       5.298   7.248  17.638  0.00  0.00    +0.000 HD
ATOM     29  H   UNL     1       7.930   4.047  17.053  0.00  0.00    +0.000 HD
ATOM     30  H   UNL     1       8.427   5.725  16.953  0.00  0.00    +0.000 HD
ENDBRANCH  22  25
ENDBRANCH  18  19
ENDBRANCH  17  18
ENDBRANCH  16  17
ENDBRANCH   1  16
TORSDOF 9
ENDMDL
MODEL 9
REMARK VINA RESULT:      -6.8      1.093      1.738
REMARK  Name = 
REMARK  9 active torsions:
REMARK  status: ('A' for Active; 'I' for Inactive)
REMARK    1  A    between atoms: C_2  and  C_4
REMARK    2  A    between atoms: C_7  and  O_8
REMARK    3  A    between atoms: O_8  and  C_9
REMARK    4  A    between atoms: C_9  and  C_10
REMARK    5  A    between atoms: C_10  and  C_11
REMARK    6  A    between atoms: C_11  and  C_12
REMARK    7  A    between atoms: C_12  and  O_13
REMARK    8  A    between atoms: O_13  and  C_14
REMARK    9  A    between atoms: C_17  and  C_18
REMARK                            x       y       z     vdW  Elec       q    Type
REMARK                         _______ _______ _______ _____ _____    ______ ____
ROOT
ATOM      1  C   UNL     1       1.121   3.235  19.513  0.00  0.00    +0.000 C 
ENDROOT
BRANCH   1   2
ATOM      2  C   UNL     1       1.923   2.117  18.831  0.00  0.00    +0.000 C 
BRANCH   2   3
ATOM      3  O   UNL     1       3.259   2.337  19.088  0.00  0.00    +0.000 OA
BRANCH   3   7
ATOM      4  C   UNL     1       5.881   4.906  17.084  0.00  0.00    +0.000 A 
ATOM      5  C   UNL     1       6.030   4.600  18.453  0.00  0.00    +0.000 A 
ATOM      6  C   UNL     1       5.159   3.716  19.087  0.00  0.00    +0.000 A 
ATOM      7  C   UNL     1       4.114   3.120  18.384  0.00  0.00    +0.000 A 
ATOM      8  C   UNL     1       3.974   3.393  17.009  0.00  0.00    +0.000 A 
ATOM      9  C   UNL     1       4.847   4.272  16.371  0.00  0.00    +0.000 A 
BRANCH   4  11
ATOM     10  N   UNL     1       6.883   7.084  16.934  0.00  0.00    +0.000 NA
ATOM     11  C   UNL     1       6.799   5.897  16.440  0.00  0.00    +0.000 C 
ATOM     12  N   UNL     1       7.559   5.579  15.278  0.00  0.00    +0.000 N 
ATOM     13  H   UNL     1       7.488   7.805  16.513  0.00  0.00    +0.000 HD
ATOM     14  H   UNL     1       8.172   6.289  14.853  0.00  0.00    +0.000 HD
ATOM     15  H   UNL     1       7.525   4.661  14.822  0.00  0.00    +0.000 HD
ENDBRANCH   4  11
ENDBRANCH   3   7
ENDBRANCH   2   3
ENDBRANCH   1   2
BRANCH   1  16
ATOM     16  C   UNL     1       1.472   3.413  20.996  0.00  0.00    +0.000 C 
BRANCH  16  17
ATOM     17  C   UNL     1       2.187   4.734  21.228  0.00  0.00    +0.000 C 
BRANCH  17  18
ATOM     18  O   UNL     1       2.386   5.416  20.047  0.00  0.00    +0.000 OA
BRANCH  18  19
ATOM     19  C   UNL     1       2.008   6.711  19.874  0.00  0.00    +0.000 A 
ATOM     20  C   UNL     1       1.348   7.433  20.883  0.00  0.00    +0.000 A 
ATOM     21  C   UNL     1       0.989   8.763  20.692  0.00  0.00    +0.000 A 
ATOM     22  C   UNL     1       1.276   9.431  19.483  0.00  0.00    +0.000 A 
ATOM     23  C   UNL     1       1.927   8.686  18.468  0.00  0.00    +0.000 A 
ATOM     24  C   UNL     1       2.286   7.346  18.665  0.00  0.00    +0.000 A 
BRANCH  22  25
ATOM     25  C   UNL     1       0.912  10.885  19.287  0.00  0.00    +0.000 C 
ATOM     26  N   UNL     1       1.139  11.773  20.196  0.00  0.00    +0.000 NA
ATOM     27  N   UNL     1       0.318  11.345  18.079  0.00  0.00    +0.000 N 
ATOM     28  H   UNL     1       1.568  11.592  21.111  0.00  0.00    +0.000 HD
ATOM     29  H   UNL     1       0.102  10.731  17.287  0.00  0.00    +0.000 HD
ATOM     30  H   UNL     1       0.104  12.346  17.970  0.00  0.00    +0.000 HD
ENDBRANCH  22  25
ENDBRANCH  18  19
ENDBRANCH  17  18
ENDBRANCH  16  17
ENDBRANCH   1  16
TORSDOF 9
ENDMDL
