MODEL 1
REMARK VINA RESULT:      -8.3      0.000      0.000
REMARK  Name = 
REMARK  7 active torsions:
REMARK  status: ('A' for Active; 'I' for Inactive)
REMARK    1  A    between atoms: C_1  and  C_2
REMARK    2  A    between atoms: C_5  and  N_6
REMARK    3  A    between atoms: C_10  and  S_11
REMARK    4  A    between atoms: S_11  and  C_12
REMARK    5  A    between atoms: C_12  and  C_13
REMARK    6  A    between atoms: C_16  and  C_17
REMARK    7  A    between atoms: C_25  and  C_26
REMARK                            x       y       z     vdW  Elec       q    Type
REMARK                         _______ _______ _______ _____ _____    ______ ____
ROOT
ATOM      1  S   UNL     1       7.593   6.856  18.158  0.00  0.00    +0.000 S 
ENDROOT
BRANCH   1   6
ATOM      2  N   UNL     1       5.770   5.121  16.945  0.00  0.00    +0.000 N 
ATOM      3  N   UNL     1       5.690   4.434  15.779  0.00  0.00    +0.000 NA
ATOM      4  N   UNL     1       6.747   4.777  15.058  0.00  0.00    +0.000 NA
ATOM      5  N   UNL     1       7.522   5.684  15.722  0.00  0.00    +0.000 NA
ATOM      6  C   UNL     1       6.928   5.898  16.874  0.00  0.00    +0.000 A 
BRANCH   2  11
ATOM      7  C   UNL     1       1.615   4.254  20.827  0.00  0.00    +0.000 C 
ATOM      8  C   UNL     1       2.746   4.525  19.879  0.00  0.00    +0.000 A 
ATOM      9  C   UNL     1       3.745   3.582  19.670  0.00  0.00    +0.000 A 
ATOM     10  C   UNL     1       4.752   3.820  18.731  0.00  0.00    +0.000 A 
ATOM     11  C   UNL     1       4.776   4.998  17.961  0.00  0.00    +0.000 A 
ATOM     12  C   UNL     1       3.814   6.002  18.220  0.00  0.00    +0.000 A 
ATOM     13  C   UNL     1       3.702   7.343  17.541  0.00  0.00    +0.000 C 
ATOM     14  C   UNL     1       2.809   5.737  19.181  0.00  0.00    +0.000 A 
ENDBRANCH   2  11
ENDBRANCH   1   6
BRANCH   1  15
ATOM     15  C   UNL     1       7.504   8.538  17.467  0.00  0.00    +0.000 C 
BRANCH  15  16
ATOM     16  C   UNL     1       8.434   9.432  18.200  0.00  0.00    +0.000 A 
ATOM     17  N   UNL     1       9.037   9.252  19.353  0.00  0.00    +0.000 NA
ATOM     18  N   UNL     1       9.759  10.402  19.597  0.00  0.00    +0.000 NA
ATOM     19  C   UNL     1       9.558  11.209  18.576  0.00  0.00    +0.000 A 
ATOM     20  O   UNL     1       8.712  10.653  17.638  0.00  0.00    +0.000 OA
BRANCH  19  21
ATOM     21  C   UNL     1      10.036  12.562  18.311  0.00  0.00    +0.000 A 
ATOM     22  C   UNL     1      10.872  12.786  17.196  0.00  0.00    +0.000 A 
ATOM     23  C   UNL     1      11.326  14.067  16.868  0.00  0.00    +0.000 A 
ATOM     24  C   UNL     1      10.954  15.155  17.649  0.00  0.00    +0.000 A 
ATOM     25  C   UNL     1      10.142  14.958  18.762  0.00  0.00    +0.000 A 
ATOM     26  C   UNL     1       9.684  13.673  19.095  0.00  0.00    +0.000 A 
ATOM     27 BR   UNL     1       8.625  13.550  20.673  0.00  0.00    +0.000 Br
ENDBRANCH  19  21
ENDBRANCH  15  16
ENDBRANCH   1  15
TORSDOF 5
ENDMDL
MODEL 2
REMARK VINA RESULT:      -8.1      6.524      7.798
REMARK  Name = 
REMARK  7 active torsions:
REMARK  status: ('A' for Active; 'I' for Inactive)
REMARK    1  A    between atoms: C_1  and  C_2
REMARK    2  A    between atoms: C_5  and  N_6
REMARK    3  A    between atoms: C_10  and  S_11
REMARK    4  A    between atoms: S_11  and  C_12
REMARK    5  A    between atoms: C_12  and  C_13
REMARK    6  A    between atoms: C_16  and  C_17
REMARK    7  A    between atoms: C_25  and  C_26
REMARK                            x       y       z     vdW  Elec       q    Type
REMARK                         _______ _______ _______ _____ _____    ______ ____
ROOT
ATOM      1  S   UNL     1       1.578   5.483  20.182  0.00  0.00    +0.000 S 
ENDROOT
BRANCH   1   6
ATOM      2  N   UNL     1       3.478   3.435  20.132  0.00  0.00    +0.000 N 
ATOM      3  N   UNL     1       3.766   2.340  20.879  0.00  0.00    +0.000 NA
ATOM      4  N   UNL     1       2.939   2.352  21.912  0.00  0.00    +0.000 NA
ATOM      5  N   UNL     1       2.110   3.437  21.868  0.00  0.00    +0.000 NA
ATOM      6  C   UNL     1       2.438   4.101  20.783  0.00  0.00    +0.000 A 
BRANCH   2  11
ATOM      7  C   UNL     1       6.382   5.109  15.459  0.00  0.00    +0.000 C 
ATOM      8  C   UNL     1       5.659   4.589  16.665  0.00  0.00    +0.000 A 
ATOM      9  C   UNL     1       6.199   4.731  17.938  0.00  0.00    +0.000 A 
ATOM     10  C   UNL     1       5.480   4.305  19.058  0.00  0.00    +0.000 A 
ATOM     11  C   UNL     1       4.195   3.743  18.938  0.00  0.00    +0.000 A 
ATOM     12  C   UNL     1       3.668   3.516  17.645  0.00  0.00    +0.000 A 
ATOM     13  C   UNL     1       2.341   2.888  17.308  0.00  0.00    +0.000 C 
ATOM     14  C   UNL     1       4.420   3.952  16.528  0.00  0.00    +0.000 A 
ENDBRANCH   2  11
ENDBRANCH   1   6
BRANCH   1  15
ATOM     15  C   UNL     1       2.920   6.501  19.493  0.00  0.00    +0.000 C 
BRANCH  15  16
ATOM     16  C   UNL     1       2.359   7.741  18.904  0.00  0.00    +0.000 A 
ATOM     17  N   UNL     1       2.573   8.282  17.726  0.00  0.00    +0.000 NA
ATOM     18  N   UNL     1       1.836   9.449  17.694  0.00  0.00    +0.000 NA
ATOM     19  C   UNL     1       1.213   9.543  18.851  0.00  0.00    +0.000 A 
ATOM     20  O   UNL     1       1.504   8.481  19.682  0.00  0.00    +0.000 OA
BRANCH  19  21
ATOM     21  C   UNL     1       0.331  10.575  19.385  0.00  0.00    +0.000 A 
ATOM     22  C   UNL     1       0.747  11.315  20.513  0.00  0.00    +0.000 A 
ATOM     23  C   UNL     1      -0.037  12.344  21.042  0.00  0.00    +0.000 A 
ATOM     24  C   UNL     1      -1.257  12.657  20.456  0.00  0.00    +0.000 A 
ATOM     25  C   UNL     1      -1.697  11.933  19.351  0.00  0.00    +0.000 A 
ATOM     26  C   UNL     1      -0.913  10.898  18.817  0.00  0.00    +0.000 A 
ATOM     27 BR   UNL     1      -1.665   9.962  17.340  0.00  0.00    +0.000 Br
ENDBRANCH  19  21
ENDBRANCH  15  16
ENDBRANCH   1  15
TORSDOF 5
ENDMDL
MODEL 3
REMARK VINA RESULT:      -8.1      1.803      2.175
REMARK  Name = 
REMARK  7 active torsions:
REMARK  status: ('A' for Active; 'I' for Inactive)
REMARK    1  A    between atoms: C_1  and  C_2
REMARK    2  A    between atoms: C_5  and  N_6
REMARK    3  A    between atoms: C_10  and  S_11
REMARK    4  A    between atoms: S_11  and  C_12
REMARK    5  A    between atoms: C_12  and  C_13
REMARK    6  A    between atoms: C_16  and  C_17
REMARK    7  A    between atoms: C_25  and  C_26
REMARK                            x       y       z     vdW  Elec       q    Type
REMARK                         _______ _______ _______ _____ _____    ______ ____
ROOT
ATOM      1  S   UNL     1       6.667   5.623  18.836  0.00  0.00    +0.000 S 
ENDROOT
BRANCH   1   6
ATOM      2  N   UNL     1       5.380   4.267  16.759  0.00  0.00    +0.000 N 
ATOM      3  N   UNL     1       5.683   3.890  15.492  0.00  0.00    +0.000 NA
ATOM      4  N   UNL     1       6.880   4.385  15.220  0.00  0.00    +0.000 NA
ATOM      5  N   UNL     1       7.375   5.089  16.281  0.00  0.00    +0.000 NA
ATOM      6  C   UNL     1       6.460   5.021  17.222  0.00  0.00    +0.000 A 
BRANCH   2  11
ATOM      7  C   UNL     1       0.307   2.580  18.880  0.00  0.00    +0.000 C 
ATOM      8  C   UNL     1       1.658   3.035  18.413  0.00  0.00    +0.000 A 
ATOM      9  C   UNL     1       2.664   2.116  18.136  0.00  0.00    +0.000 A 
ATOM     10  C   UNL     1       3.893   2.551  17.634  0.00  0.00    +0.000 A 
ATOM     11  C   UNL     1       4.143   3.912  17.376  0.00  0.00    +0.000 A 
ATOM     12  C   UNL     1       3.160   4.865  17.730  0.00  0.00    +0.000 A 
ATOM     13  C   UNL     1       3.256   6.361  17.578  0.00  0.00    +0.000 C 
ATOM     14  C   UNL     1       1.926   4.397  18.242  0.00  0.00    +0.000 A 
ENDBRANCH   2  11
ENDBRANCH   1   6
BRANCH   1  15
ATOM     15  C   UNL     1       8.326   6.367  18.758  0.00  0.00    +0.000 C 
BRANCH  15  16
ATOM     16  C   UNL     1       8.219   7.798  18.380  0.00  0.00    +0.000 A 
ATOM     17  N   UNL     1       7.494   8.365  17.443  0.00  0.00    +0.000 NA
ATOM     18  N   UNL     1       7.790   9.713  17.486  0.00  0.00    +0.000 NA
ATOM     19  C   UNL     1       8.671   9.884  18.450  0.00  0.00    +0.000 A 
ATOM     20  O   UNL     1       8.996   8.694  19.069  0.00  0.00    +0.000 OA
BRANCH  19  21
ATOM     21  C   UNL     1       9.360  11.081  18.922  0.00  0.00    +0.000 A 
ATOM     22  C   UNL     1      10.402  10.945  19.863  0.00  0.00    +0.000 A 
ATOM     23  C   UNL     1      11.126  12.052  20.318  0.00  0.00    +0.000 A 
ATOM     24  C   UNL     1      10.823  13.321  19.842  0.00  0.00    +0.000 A 
ATOM     25  C   UNL     1       9.789  13.484  18.923  0.00  0.00    +0.000 A 
ATOM     26  C   UNL     1       9.060  12.375  18.463  0.00  0.00    +0.000 A 
ATOM     27 BR   UNL     1       7.643  12.756  17.250  0.00  0.00    +0.000 Br
ENDBRANCH  19  21
ENDBRANCH  15  16
ENDBRANCH   1  15
TORSDOF 5
ENDMDL
MODEL 4
REMARK VINA RESULT:      -8.1      6.076      7.848
REMARK  Name = 
REMARK  7 active torsions:
REMARK  status: ('A' for Active; 'I' for Inactive)
REMARK    1  A    between atoms: C_1  and  C_2
REMARK    2  A    between atoms: C_5  and  N_6
REMARK    3  A    between atoms: C_10  and  S_11
REMARK    4  A    between atoms: S_11  and  C_12
REMARK    5  A    between atoms: C_12  and  C_13
REMARK    6  A    between atoms: C_16  and  C_17
REMARK    7  A    between atoms: C_25  and  C_26
REMARK                            x       y       z     vdW  Elec       q    Type
REMARK                         _______ _______ _______ _____ _____    ______ ____
ROOT
ATOM      1  S   UNL     1       2.206   5.407  18.657  0.00  0.00    +0.000 S 
ENDROOT
BRANCH   1   6
ATOM      2  N   UNL     1       4.451   3.745  18.735  0.00  0.00    +0.000 N 
ATOM      3  N   UNL     1       4.883   2.709  19.496  0.00  0.00    +0.000 NA
ATOM      4  N   UNL     1       3.996   2.549  20.466  0.00  0.00    +0.000 NA
ATOM      5  N   UNL     1       2.987   3.464  20.367  0.00  0.00    +0.000 NA
ATOM      6  C   UNL     1       3.262   4.197  19.312  0.00  0.00    +0.000 A 
BRANCH   2  11
ATOM      7  C   UNL     1       7.452   5.151  14.034  0.00  0.00    +0.000 C 
ATOM      8  C   UNL     1       6.630   4.867  15.257  0.00  0.00    +0.000 A 
ATOM      9  C   UNL     1       5.429   4.172  15.163  0.00  0.00    +0.000 A 
ATOM     10  C   UNL     1       4.711   3.853  16.318  0.00  0.00    +0.000 A 
ATOM     11  C   UNL     1       5.182   4.202  17.598  0.00  0.00    +0.000 A 
ATOM     12  C   UNL     1       6.358   4.980  17.703  0.00  0.00    +0.000 A 
ATOM     13  C   UNL     1       6.994   5.490  18.971  0.00  0.00    +0.000 C 
ATOM     14  C   UNL     1       7.063   5.294  16.517  0.00  0.00    +0.000 A 
ENDBRANCH   2  11
ENDBRANCH   1   6
BRANCH   1  15
ATOM     15  C   UNL     1       2.863   6.933  19.399  0.00  0.00    +0.000 C 
BRANCH  15  16
ATOM     16  C   UNL     1       2.228   8.115  18.766  0.00  0.00    +0.000 A 
ATOM     17  N   UNL     1       2.416   8.629  17.571  0.00  0.00    +0.000 NA
ATOM     18  N   UNL     1       1.605   9.743  17.496  0.00  0.00    +0.000 NA
ATOM     19  C   UNL     1       0.969   9.836  18.645  0.00  0.00    +0.000 A 
ATOM     20  O   UNL     1       1.322   8.823  19.514  0.00  0.00    +0.000 OA
BRANCH  19  21
ATOM     21  C   UNL     1       0.018  10.826  19.140  0.00  0.00    +0.000 A 
ATOM     22  C   UNL     1       0.392  11.655  20.219  0.00  0.00    +0.000 A 
ATOM     23  C   UNL     1      -0.461  12.650  20.707  0.00  0.00    +0.000 A 
ATOM     24  C   UNL     1      -1.709  12.837  20.128  0.00  0.00    +0.000 A 
ATOM     25  C   UNL     1      -2.108  12.023  19.071  0.00  0.00    +0.000 A 
ATOM     26  C   UNL     1      -1.255  11.023  18.578  0.00  0.00    +0.000 A 
ATOM     27 BR   UNL     1      -1.953   9.954  17.166  0.00  0.00    +0.000 Br
ENDBRANCH  19  21
ENDBRANCH  15  16
ENDBRANCH   1  15
TORSDOF 5
ENDMDL
MODEL 5
REMARK VINA RESULT:      -8.1      0.702      1.568
REMARK  Name = 
REMARK  7 active torsions:
REMARK  status: ('A' for Active; 'I' for Inactive)
REMARK    1  A    between atoms: C_1  and  C_2
REMARK    2  A    between atoms: C_5  and  N_6
REMARK    3  A    between atoms: C_10  and  S_11
REMARK    4  A    between atoms: S_11  and  C_12
REMARK    5  A    between atoms: C_12  and  C_13
REMARK    6  A    between atoms: C_16  and  C_17
REMARK    7  A    between atoms: C_25  and  C_26
REMARK                            x       y       z     vdW  Elec       q    Type
REMARK                         _______ _______ _______ _____ _____    ______ ____
ROOT
ATOM      1  S   UNL     1       7.730   6.801  18.194  0.00  0.00    +0.000 S 
ENDROOT
BRANCH   1   6
ATOM      2  N   UNL     1       5.593   5.444  17.011  0.00  0.00    +0.000 N 
ATOM      3  N   UNL     1       5.425   4.584  15.976  0.00  0.00    +0.000 NA
ATOM      4  N   UNL     1       6.602   4.459  15.384  0.00  0.00    +0.000 NA
ATOM      5  N   UNL     1       7.548   5.225  16.004  0.00  0.00    +0.000 NA
ATOM      6  C   UNL     1       6.935   5.829  16.996  0.00  0.00    +0.000 A 
BRANCH   2  11
ATOM      7  C   UNL     1       1.464   7.337  20.539  0.00  0.00    +0.000 C 
ATOM      8  C   UNL     1       2.478   6.793  19.576  0.00  0.00    +0.000 A 
ATOM      9  C   UNL     1       2.830   7.502  18.434  0.00  0.00    +0.000 A 
ATOM     10  C   UNL     1       3.827   7.016  17.584  0.00  0.00    +0.000 A 
ATOM     11  C   UNL     1       4.512   5.818  17.863  0.00  0.00    +0.000 A 
ATOM     12  C   UNL     1       4.109   5.045  18.976  0.00  0.00    +0.000 A 
ATOM     13  C   UNL     1       4.681   3.721  19.412  0.00  0.00    +0.000 C 
ATOM     14  C   UNL     1       3.092   5.559  19.817  0.00  0.00    +0.000 A 
ENDBRANCH   2  11
ENDBRANCH   1   6
BRANCH   1  15
ATOM     15  C   UNL     1       7.601   8.470  17.481  0.00  0.00    +0.000 C 
BRANCH  15  16
ATOM     16  C   UNL     1       8.472   9.407  18.232  0.00  0.00    +0.000 A 
ATOM     17  N   UNL     1       9.005   9.281  19.426  0.00  0.00    +0.000 NA
ATOM     18  N   UNL     1       9.697  10.451  19.668  0.00  0.00    +0.000 NA
ATOM     19  C   UNL     1       9.549  11.214  18.605  0.00  0.00    +0.000 A 
ATOM     20  O   UNL     1       8.770  10.608  17.639  0.00  0.00    +0.000 OA
BRANCH  19  21
ATOM     21  C   UNL     1      10.026  12.561  18.314  0.00  0.00    +0.000 A 
ATOM     22  C   UNL     1      10.877  12.762  17.207  0.00  0.00    +0.000 A 
ATOM     23  C   UNL     1      11.331  14.038  16.856  0.00  0.00    +0.000 A 
ATOM     24  C   UNL     1      10.944  15.142  17.604  0.00  0.00    +0.000 A 
ATOM     25  C   UNL     1      10.115  14.969  18.710  0.00  0.00    +0.000 A 
ATOM     26  C   UNL     1       9.658  13.690  19.067  0.00  0.00    +0.000 A 
ATOM     27 BR   UNL     1       8.576  13.599  20.631  0.00  0.00    +0.000 Br
ENDBRANCH  19  21
ENDBRANCH  15  16
ENDBRANCH   1  15
TORSDOF 5
ENDMDL
MODEL 6
REMARK VINA RESULT:      -8.1      1.218      1.966
REMARK  Name = 
REMARK  7 active torsions:
REMARK  status: ('A' for Active; 'I' for Inactive)
REMARK    1  A    between atoms: C_1  and  C_2
REMARK    2  A    between atoms: C_5  and  N_6
REMARK    3  A    between atoms: C_10  and  S_11
REMARK    4  A    between atoms: S_11  and  C_12
REMARK    5  A    between atoms: C_12  and  C_13
REMARK    6  A    between atoms: C_16  and  C_17
REMARK    7  A    between atoms: C_25  and  C_26
REMARK                            x       y       z     vdW  Elec       q    Type
REMARK                         _______ _______ _______ _____ _____    ______ ____
ROOT
ATOM      1  S   UNL     1       7.678   6.624  18.142  0.00  0.00    +0.000 S 
ENDROOT
BRANCH   1   6
ATOM      2  N   UNL     1       5.499   5.283  17.019  0.00  0.00    +0.000 N 
ATOM      3  N   UNL     1       5.299   4.404  16.006  0.00  0.00    +0.000 NA
ATOM      4  N   UNL     1       6.466   4.243  15.402  0.00  0.00    +0.000 NA
ATOM      5  N   UNL     1       7.435   5.003  15.991  0.00  0.00    +0.000 NA
ATOM      6  C   UNL     1       6.848   5.642  16.977  0.00  0.00    +0.000 A 
BRANCH   2  11
ATOM      7  C   UNL     1       1.464   7.331  20.570  0.00  0.00    +0.000 C 
ATOM      8  C   UNL     1       2.451   6.749  19.602  0.00  0.00    +0.000 A 
ATOM      9  C   UNL     1       2.824   7.445  18.458  0.00  0.00    +0.000 A 
ATOM     10  C   UNL     1       3.797   6.922  17.603  0.00  0.00    +0.000 A 
ATOM     11  C   UNL     1       4.438   5.698  17.877  0.00  0.00    +0.000 A 
ATOM     12  C   UNL     1       4.010   4.940  18.992  0.00  0.00    +0.000 A 
ATOM     13  C   UNL     1       4.533   3.595  19.424  0.00  0.00    +0.000 C 
ATOM     14  C   UNL     1       3.018   5.491  19.838  0.00  0.00    +0.000 A 
ENDBRANCH   2  11
ENDBRANCH   1   6
BRANCH   1  15
ATOM     15  C   UNL     1       7.606   8.272  17.374  0.00  0.00    +0.000 C 
BRANCH  15  16
ATOM     16  C   UNL     1       8.374   9.243  18.192  0.00  0.00    +0.000 A 
ATOM     17  N   UNL     1       8.967   9.077  19.352  0.00  0.00    +0.000 NA
ATOM     18  N   UNL     1       9.506  10.302  19.691  0.00  0.00    +0.000 NA
ATOM     19  C   UNL     1       9.215  11.135  18.714  0.00  0.00    +0.000 A 
ATOM     20  O   UNL     1       8.485  10.524  17.715  0.00  0.00    +0.000 OA
BRANCH  19  21
ATOM     21  C   UNL     1       9.497  12.557  18.548  0.00  0.00    +0.000 A 
ATOM     22  C   UNL     1       8.458  13.416  18.130  0.00  0.00    +0.000 A 
ATOM     23  C   UNL     1       8.659  14.794  17.996  0.00  0.00    +0.000 A 
ATOM     24  C   UNL     1       9.903  15.344  18.275  0.00  0.00    +0.000 A 
ATOM     25  C   UNL     1      10.948  14.516  18.676  0.00  0.00    +0.000 A 
ATOM     26  C   UNL     1      10.752  13.132  18.812  0.00  0.00    +0.000 A 
ATOM     27 BR   UNL     1      12.283  12.119  19.316  0.00  0.00    +0.000 Br
ENDBRANCH  19  21
ENDBRANCH  15  16
ENDBRANCH   1  15
TORSDOF 5
ENDMDL
MODEL 7
REMARK VINA RESULT:      -7.9      5.973      7.113
REMARK  Name = 
REMARK  7 active torsions:
REMARK  status: ('A' for Active; 'I' for Inactive)
REMARK    1  A    between atoms: C_1  and  C_2
REMARK    2  A    between atoms: C_5  and  N_6
REMARK    3  A    between atoms: C_10  and  S_11
REMARK    4  A    between atoms: S_11  and  C_12
REMARK    5  A    between atoms: C_12  and  C_13
REMARK    6  A    between atoms: C_16  and  C_17
REMARK    7  A    between atoms: C_25  and  C_26
REMARK                            x       y       z     vdW  Elec       q    Type
REMARK                         _______ _______ _______ _____ _____    ______ ____
ROOT
ATOM      1  S   UNL     1       4.595   7.333  17.165  0.00  0.00    +0.000 S 
ENDROOT
BRANCH   1   6
ATOM      2  N   UNL     1       4.697   4.615  16.524  0.00  0.00    +0.000 N 
ATOM      3  N   UNL     1       5.298   3.847  15.582  0.00  0.00    +0.000 NA
ATOM      4  N   UNL     1       5.918   4.672  14.753  0.00  0.00    +0.000 NA
ATOM      5  N   UNL     1       5.735   5.973  15.124  0.00  0.00    +0.000 NA
ATOM      6  C   UNL     1       4.988   5.942  16.205  0.00  0.00    +0.000 A 
BRANCH   2  11
ATOM      7  C   UNL     1       1.240   2.613  20.662  0.00  0.00    +0.000 C 
ATOM      8  C   UNL     1       2.184   3.054  19.583  0.00  0.00    +0.000 A 
ATOM      9  C   UNL     1       1.820   2.982  18.243  0.00  0.00    +0.000 A 
ATOM     10  C   UNL     1       2.682   3.462  17.254  0.00  0.00    +0.000 A 
ATOM     11  C   UNL     1       3.922   4.046  17.578  0.00  0.00    +0.000 A 
ATOM     12  C   UNL     1       4.340   4.052  18.929  0.00  0.00    +0.000 A 
ATOM     13  C   UNL     1       5.642   4.583  19.469  0.00  0.00    +0.000 C 
ATOM     14  C   UNL     1       3.450   3.553  19.910  0.00  0.00    +0.000 A 
ENDBRANCH   2  11
ENDBRANCH   1   6
BRANCH   1  15
ATOM     15  C   UNL     1       2.874   6.991  17.648  0.00  0.00    +0.000 C 
BRANCH  15  16
ATOM     16  C   UNL     1       2.222   8.242  18.107  0.00  0.00    +0.000 A 
ATOM     17  N   UNL     1       2.170   9.421  17.530  0.00  0.00    +0.000 NA
ATOM     18  N   UNL     1       1.475  10.245  18.393  0.00  0.00    +0.000 NA
ATOM     19  C   UNL     1       1.141   9.517  19.437  0.00  0.00    +0.000 A 
ATOM     20  O   UNL     1       1.591   8.217  19.325  0.00  0.00    +0.000 OA
BRANCH  19  21
ATOM     21  C   UNL     1       0.434   9.864  20.665  0.00  0.00    +0.000 A 
ATOM     22  C   UNL     1       0.697   9.127  21.839  0.00  0.00    +0.000 A 
ATOM     23  C   UNL     1       0.081   9.443  23.055  0.00  0.00    +0.000 A 
ATOM     24  C   UNL     1      -0.813  10.503  23.123  0.00  0.00    +0.000 A 
ATOM     25  C   UNL     1      -1.101  11.238  21.976  0.00  0.00    +0.000 A 
ATOM     26  C   UNL     1      -0.485  10.924  20.753  0.00  0.00    +0.000 A 
ATOM     27 BR   UNL     1      -1.014  11.980  19.260  0.00  0.00    +0.000 Br
ENDBRANCH  19  21
ENDBRANCH  15  16
ENDBRANCH   1  15
TORSDOF 5
ENDMDL
MODEL 8
REMARK VINA RESULT:      -7.8      1.098      1.485
REMARK  Name = 
REMARK  7 active torsions:
REMARK  status: ('A' for Active; 'I' for Inactive)
REMARK    1  A    between atoms: C_1  and  C_2
REMARK    2  A    between atoms: C_5  and  N_6
REMARK    3  A    between atoms: C_10  and  S_11
REMARK    4  A    between atoms: S_11  and  C_12
REMARK    5  A    between atoms: C_12  and  C_13
REMARK    6  A    between atoms: C_16  and  C_17
REMARK    7  A    between atoms: C_25  and  C_26
REMARK                            x       y       z     vdW  Elec       q    Type
REMARK                         _______ _______ _______ _____ _____    ______ ____
ROOT
ATOM      1  S   UNL     1       7.590   7.058  18.204  0.00  0.00    +0.000 S 
ENDROOT
BRANCH   1   6
ATOM      2  N   UNL     1       5.863   5.193  17.044  0.00  0.00    +0.000 N 
ATOM      3  N   UNL     1       5.821   4.470  15.897  0.00  0.00    +0.000 NA
ATOM      4  N   UNL     1       6.857   4.849  15.166  0.00  0.00    +0.000 NA
ATOM      5  N   UNL     1       7.582   5.816  15.802  0.00  0.00    +0.000 NA
ATOM      6  C   UNL     1       6.977   6.029  16.949  0.00  0.00    +0.000 A 
BRANCH   2  11
ATOM      7  C   UNL     1       1.758   4.216  20.952  0.00  0.00    +0.000 C 
ATOM      8  C   UNL     1       2.873   4.519  19.996  0.00  0.00    +0.000 A 
ATOM      9  C   UNL     1       3.912   3.615  19.801  0.00  0.00    +0.000 A 
ATOM     10  C   UNL     1       4.905   3.880  18.855  0.00  0.00    +0.000 A 
ATOM     11  C   UNL     1       4.878   5.045  18.065  0.00  0.00    +0.000 A 
ATOM     12  C   UNL     1       3.875   6.011  18.309  0.00  0.00    +0.000 A 
ATOM     13  C   UNL     1       3.704   7.334  17.608  0.00  0.00    +0.000 C 
ATOM     14  C   UNL     1       2.884   5.720  19.277  0.00  0.00    +0.000 A 
ENDBRANCH   2  11
ENDBRANCH   1   6
BRANCH   1  15
ATOM     15  C   UNL     1       7.753   8.655  17.346  0.00  0.00    +0.000 C 
BRANCH  15  16
ATOM     16  C   UNL     1       8.488   9.615  18.205  0.00  0.00    +0.000 A 
ATOM     17  N   UNL     1       9.186   9.399  19.296  0.00  0.00    +0.000 NA
ATOM     18  N   UNL     1       9.630  10.635  19.724  0.00  0.00    +0.000 NA
ATOM     19  C   UNL     1       9.181  11.525  18.864  0.00  0.00    +0.000 A 
ATOM     20  O   UNL     1       8.434  10.942  17.860  0.00  0.00    +0.000 OA
BRANCH  19  21
ATOM     21  C   UNL     1       9.308  12.978  18.831  0.00  0.00    +0.000 A 
ATOM     22  C   UNL     1       8.346  13.766  19.498  0.00  0.00    +0.000 A 
ATOM     23  C   UNL     1       8.441  15.160  19.535  0.00  0.00    +0.000 A 
ATOM     24  C   UNL     1       9.502  15.800  18.905  0.00  0.00    +0.000 A 
ATOM     25  C   UNL     1      10.457  15.046  18.229  0.00  0.00    +0.000 A 
ATOM     26  C   UNL     1      10.365  13.646  18.188  0.00  0.00    +0.000 A 
ATOM     27 BR   UNL     1      11.712  12.752  17.182  0.00  0.00    +0.000 Br
ENDBRANCH  19  21
ENDBRANCH  15  16
ENDBRANCH   1  15
TORSDOF 5
ENDMDL
MODEL 9
REMARK VINA RESULT:      -7.8      5.742      7.875
REMARK  Name = 
REMARK  7 active torsions:
REMARK  status: ('A' for Active; 'I' for Inactive)
REMARK    1  A    between atoms: C_1  and  C_2
REMARK    2  A    between atoms: C_5  and  N_6
REMARK    3  A    between atoms: C_10  and  S_11
REMARK    4  A    between atoms: S_11  and  C_12
REMARK    5  A    between atoms: C_12  and  C_13
REMARK    6  A    between atoms: C_16  and  C_17
REMARK    7  A    between atoms: C_25  and  C_26
REMARK                            x       y       z     vdW  Elec       q    Type
REMARK                         _______ _______ _______ _____ _____    ______ ____
ROOT
ATOM      1  S   UNL     1       2.364   5.467  18.380  0.00  0.00    +0.000 S 
ENDROOT
BRANCH   1   6
ATOM      2  N   UNL     1       4.624   3.829  18.506  0.00  0.00    +0.000 N 
ATOM      3  N   UNL     1       5.070   2.826  19.302  0.00  0.00    +0.000 NA
ATOM      4  N   UNL     1       4.191   2.695  20.283  0.00  0.00    +0.000 NA
ATOM      5  N   UNL     1       3.173   3.596  20.157  0.00  0.00    +0.000 NA
ATOM      6  C   UNL     1       3.435   4.292  19.074  0.00  0.00    +0.000 A 
BRANCH   2  11
ATOM      7  C   UNL     1       7.564   5.084  13.725  0.00  0.00    +0.000 C 
ATOM      8  C   UNL     1       6.760   4.840  14.968  0.00  0.00    +0.000 A 
ATOM      9  C   UNL     1       5.537   4.182  14.909  0.00  0.00    +0.000 A 
ATOM     10  C   UNL     1       4.835   3.900  16.083  0.00  0.00    +0.000 A 
ATOM     11  C   UNL     1       5.344   4.250  17.348  0.00  0.00    +0.000 A 
ATOM     12  C   UNL     1       6.546   4.991  17.418  0.00  0.00    +0.000 A 
ATOM     13  C   UNL     1       7.225   5.497  18.665  0.00  0.00    +0.000 C 
ATOM     14  C   UNL     1       7.234   5.269  16.213  0.00  0.00    +0.000 A 
ENDBRANCH   2  11
ENDBRANCH   1   6
BRANCH   1  15
ATOM     15  C   UNL     1       2.716   6.946  19.381  0.00  0.00    +0.000 C 
BRANCH  15  16
ATOM     16  C   UNL     1       2.172   8.151  18.709  0.00  0.00    +0.000 A 
ATOM     17  N   UNL     1       2.652   8.833  17.694  0.00  0.00    +0.000 NA
ATOM     18  N   UNL     1       1.782   9.884  17.486  0.00  0.00    +0.000 NA
ATOM     19  C   UNL     1       0.823   9.773  18.381  0.00  0.00    +0.000 A 
ATOM     20  O   UNL     1       1.008   8.682  19.205  0.00  0.00    +0.000 OA
BRANCH  19  21
ATOM     21  C   UNL     1      -0.339  10.614  18.653  0.00  0.00    +0.000 A 
ATOM     22  C   UNL     1      -1.554  10.336  17.993  0.00  0.00    +0.000 A 
ATOM     23  C   UNL     1      -2.711  11.081  18.247  0.00  0.00    +0.000 A 
ATOM     24  C   UNL     1      -2.678  12.121  19.167  0.00  0.00    +0.000 A 
ATOM     25  C   UNL     1      -1.487  12.423  19.823  0.00  0.00    +0.000 A 
ATOM     26  C   UNL     1      -0.323  11.679  19.570  0.00  0.00    +0.000 A 
ATOM     27 BR   UNL     1       1.242  12.239  20.499  0.00  0.00    +0.000 Br
ENDBRANCH  19  21
ENDBRANCH  15  16
ENDBRANCH   1  15
TORSDOF 5
ENDMDL
