MODEL 1
REMARK VINA RESULT:      -8.4      0.000      0.000
REMARK  Name = 
REMARK  10 active torsions:
REMARK  status: ('A' for Active; 'I' for Inactive)
REMARK    1  A    between atoms: C_4  and  C_5
REMARK    2  A    between atoms: C_10  and  C_11
REMARK    3  A    between atoms: C_15  and  C_16
REMARK    4  A    between atoms: C_16  and  C_17
REMARK    5  A    between atoms: C_16  and  C_18
REMARK    6  A    between atoms: C_18  and  C_19
REMARK    7  A    between atoms: C_19  and  S_20
REMARK    8  A    between atoms: S_20  and  C_23
REMARK    9  A    between atoms: C_30  and  O_31
REMARK   10  A    between atoms: C_33  and  O_34
REMARK                            x       y       z     vdW  Elec       q    Type
REMARK                         _______ _______ _______ _____ _____    ______ ____
ROOT
ATOM      1  C   UNL     1       1.285   7.847  20.235  0.00  0.00    +0.000 C 
ATOM      2  C   UNL     1       0.362   8.645  20.799  0.00  0.00    +0.000 C 
ATOM      3  C   UNL     1      -0.188   8.451  22.208  0.00  0.00    +0.000 C 
ATOM      4  C   UNL     1      -0.211   9.743  23.027  0.00  0.00    +0.000 C 
ATOM      5  C   UNL     1      -0.909  10.875  22.274  0.00  0.00    +0.000 C 
ATOM      6  C   UNL     1      -0.326  11.108  20.871  0.00  0.00    +0.000 C 
ATOM      7  C   UNL     1       1.119  11.683  21.034  0.00  0.00    +0.000 C 
ATOM      8  C   UNL     1      -0.313   9.783  20.076  0.00  0.00    +0.000 C 
ATOM      9  C   UNL     1       0.036  10.234  18.654  0.00  0.00    +0.000 C 
ATOM     10  C   UNL     1      -0.614  11.628  18.517  0.00  0.00    +0.000 C 
ATOM     11  C   UNL     1      -1.130  12.053  19.928  0.00  0.00    +0.000 C 
ENDROOT
BRANCH   1  15
ATOM     12  C   UNL     1       2.931   6.209  18.004  0.00  0.00    +0.000 C 
ATOM     13  C   UNL     1       2.296   5.325  18.797  0.00  0.00    +0.000 C 
ATOM     14  C   UNL     1       2.216   5.525  20.245  0.00  0.00    +0.000 C 
ATOM     15  C   UNL     1       1.798   6.647  20.856  0.00  0.00    +0.000 C 
ATOM     16  C   UNL     1       2.627   4.326  21.079  0.00  0.00    +0.000 C 
ATOM     17  C   UNL     1       1.932   3.041  20.620  0.00  0.00    +0.000 C 
ATOM     18  C   UNL     1       2.091   2.825  19.116  0.00  0.00    +0.000 C 
ATOM     19  C   UNL     1       1.640   4.046  18.306  0.00  0.00    +0.000 C 
BRANCH  17  20
ATOM     20  O   UNL     1       0.549   3.051  20.979  0.00  0.00    +0.000 OA
ATOM     21  H   UNL     1       0.173   2.171  20.796  0.00  0.00    +0.000 HD
ENDBRANCH  17  20
BRANCH  19  22
ATOM     22  O   UNL     1       1.933   3.803  16.931  0.00  0.00    +0.000 OA
ATOM     23  H   UNL     1       2.792   3.348  16.901  0.00  0.00    +0.000 HD
ENDBRANCH  19  22
ENDBRANCH   1  15
BRANCH  11  24
ATOM     24  C   UNL     1      -2.708  12.081  19.977  0.00  0.00    +0.000 C 
ATOM     25  C   UNL     1      -3.347  12.024  18.579  0.00  0.00    +0.000 C 
BRANCH  24  26
ATOM     26  C   UNL     1      -3.303  13.205  20.849  0.00  0.00    +0.000 C 
BRANCH  26  27
ATOM     27  C   UNL     1      -4.024  12.741  22.106  0.00  0.00    +0.000 C 
BRANCH  27  28
ATOM     28  S   UNL     1      -5.714  13.343  22.124  0.00  0.00    +0.000 S 
ATOM     29  N   UNL     1      -6.517  12.541  23.162  0.00  0.00    +0.000 NA
ATOM     30  O   UNL     1      -5.647  14.792  22.096  0.00  0.00    +0.000 OA
ATOM     31  H   UNL     1      -6.308  12.859  24.109  0.00  0.00    +0.000 HD
BRANCH  28  32
ATOM     32  C   UNL     1      -6.306  12.811  20.531  0.00  0.00    +0.000 A 
ATOM     33  C   UNL     1      -6.501  11.444  20.308  0.00  0.00    +0.000 A 
ATOM     34  C   UNL     1      -6.902  11.003  19.050  0.00  0.00    +0.000 A 
ATOM     35  C   UNL     1      -7.119  11.928  18.029  0.00  0.00    +0.000 A 
ATOM     36  C   UNL     1      -6.941  13.293  18.264  0.00  0.00    +0.000 A 
ATOM     37  C   UNL     1      -6.533  13.744  19.518  0.00  0.00    +0.000 A 
ENDBRANCH  28  32
ENDBRANCH  27  28
ENDBRANCH  26  27
ENDBRANCH  24  26
ENDBRANCH  11  24
TORSDOF 8
ENDMDL
MODEL 2
REMARK VINA RESULT:      -8.0      5.253     10.132
REMARK  Name = 
REMARK  10 active torsions:
REMARK  status: ('A' for Active; 'I' for Inactive)
REMARK    1  A    between atoms: C_4  and  C_5
REMARK    2  A    between atoms: C_10  and  C_11
REMARK    3  A    between atoms: C_15  and  C_16
REMARK    4  A    between atoms: C_16  and  C_17
REMARK    5  A    between atoms: C_16  and  C_18
REMARK    6  A    between atoms: C_18  and  C_19
REMARK    7  A    between atoms: C_19  and  S_20
REMARK    8  A    between atoms: S_20  and  C_23
REMARK    9  A    between atoms: C_30  and  O_31
REMARK   10  A    between atoms: C_33  and  O_34
REMARK                            x       y       z     vdW  Elec       q    Type
REMARK                         _______ _______ _______ _____ _____    ______ ____
ROOT
ATOM      1  C   UNL     1       1.162   9.634  18.287  0.00  0.00    +0.000 C 
ATOM      2  C   UNL     1       1.788   8.646  18.949  0.00  0.00    +0.000 C 
ATOM      3  C   UNL     1       1.495   8.269  20.396  0.00  0.00    +0.000 C 
ATOM      4  C   UNL     1       1.320   6.763  20.601  0.00  0.00    +0.000 C 
ATOM      5  C   UNL     1       2.490   5.975  20.014  0.00  0.00    +0.000 C 
ATOM      6  C   UNL     1       2.760   6.315  18.539  0.00  0.00    +0.000 C 
ATOM      7  C   UNL     1       1.562   5.779  17.689  0.00  0.00    +0.000 C 
ATOM      8  C   UNL     1       2.925   7.842  18.370  0.00  0.00    +0.000 C 
ATOM      9  C   UNL     1       3.440   7.979  16.934  0.00  0.00    +0.000 C 
ATOM     10  C   UNL     1       4.299   6.717  16.706  0.00  0.00    +0.000 C 
ATOM     11  C   UNL     1       4.085   5.768  17.927  0.00  0.00    +0.000 C 
ENDROOT
BRANCH   1  15
ATOM     12  C   UNL     1       2.355  12.621  18.122  0.00  0.00    +0.000 C 
ATOM     13  C   UNL     1       1.696  12.491  19.289  0.00  0.00    +0.000 C 
ATOM     14  C   UNL     1       0.426  11.767  19.366  0.00  0.00    +0.000 C 
ATOM     15  C   UNL     1       0.203  10.528  18.896  0.00  0.00    +0.000 C 
ATOM     16  C   UNL     1      -0.694  12.514  20.068  0.00  0.00    +0.000 C 
ATOM     17  C   UNL     1      -0.249  13.076  21.422  0.00  0.00    +0.000 C 
ATOM     18  C   UNL     1       1.042  13.882  21.296  0.00  0.00    +0.000 C 
ATOM     19  C   UNL     1       2.156  13.086  20.608  0.00  0.00    +0.000 C 
BRANCH  17  20
ATOM     20  O   UNL     1      -0.093  12.031  22.383  0.00  0.00    +0.000 OA
ATOM     21  H   UNL     1       0.740  11.560  22.199  0.00  0.00    +0.000 HD
ENDBRANCH  17  20
BRANCH  19  22
ATOM     22  O   UNL     1       3.277  13.950  20.428  0.00  0.00    +0.000 OA
ATOM     23  H   UNL     1       2.949  14.752  19.987  0.00  0.00    +0.000 HD
ENDBRANCH  19  22
ENDBRANCH   1  15
BRANCH  11  24
ATOM     24  C   UNL     1       5.391   5.662  18.807  0.00  0.00    +0.000 C 
ATOM     25  C   UNL     1       6.605   6.341  18.153  0.00  0.00    +0.000 C 
BRANCH  24  26
ATOM     26  C   UNL     1       5.713   4.239  19.306  0.00  0.00    +0.000 C 
BRANCH  26  27
ATOM     27  C   UNL     1       5.170   3.108  18.443  0.00  0.00    +0.000 C 
BRANCH  27  28
ATOM     28  S   UNL     1       4.540   1.778  19.470  0.00  0.00    +0.000 S 
ATOM     29  N   UNL     1       4.415   0.506  18.614  0.00  0.00    +0.000 NA
ATOM     30  O   UNL     1       5.257   1.839  20.729  0.00  0.00    +0.000 OA
ATOM     31  H   UNL     1       5.327   0.072  18.471  0.00  0.00    +0.000 HD
BRANCH  28  32
ATOM     32  C   UNL     1       2.873   2.320  19.784  0.00  0.00    +0.000 A 
ATOM     33  C   UNL     1       2.516   2.678  21.088  0.00  0.00    +0.000 A 
ATOM     34  C   UNL     1       1.202   3.043  21.367  0.00  0.00    +0.000 A 
ATOM     35  C   UNL     1       0.257   3.060  20.340  0.00  0.00    +0.000 A 
ATOM     36  C   UNL     1       0.624   2.721  19.037  0.00  0.00    +0.000 A 
ATOM     37  C   UNL     1       1.936   2.348  18.750  0.00  0.00    +0.000 A 
ENDBRANCH  28  32
ENDBRANCH  27  28
ENDBRANCH  26  27
ENDBRANCH  24  26
ENDBRANCH  11  24
TORSDOF 8
ENDMDL
MODEL 3
REMARK VINA RESULT:      -8.0      1.863      2.992
REMARK  Name = 
REMARK  10 active torsions:
REMARK  status: ('A' for Active; 'I' for Inactive)
REMARK    1  A    between atoms: C_4  and  C_5
REMARK    2  A    between atoms: C_10  and  C_11
REMARK    3  A    between atoms: C_15  and  C_16
REMARK    4  A    between atoms: C_16  and  C_17
REMARK    5  A    between atoms: C_16  and  C_18
REMARK    6  A    between atoms: C_18  and  C_19
REMARK    7  A    between atoms: C_19  and  S_20
REMARK    8  A    between atoms: S_20  and  C_23
REMARK    9  A    between atoms: C_30  and  O_31
REMARK   10  A    between atoms: C_33  and  O_34
REMARK                            x       y       z     vdW  Elec       q    Type
REMARK                         _______ _______ _______ _____ _____    ______ ____
ROOT
ATOM      1  C   UNL     1       1.209   7.900  20.270  0.00  0.00    +0.000 C 
ATOM      2  C   UNL     1       0.312   8.700  20.872  0.00  0.00    +0.000 C 
ATOM      3  C   UNL     1      -0.178   8.508  22.303  0.00  0.00    +0.000 C 
ATOM      4  C   UNL     1      -0.164   9.801  23.120  0.00  0.00    +0.000 C 
ATOM      5  C   UNL     1      -0.892  10.933  22.396  0.00  0.00    +0.000 C 
ATOM      6  C   UNL     1      -0.369  11.164  20.970  0.00  0.00    +0.000 C 
ATOM      7  C   UNL     1       1.082  11.737  21.071  0.00  0.00    +0.000 C 
ATOM      8  C   UNL     1      -0.392   9.838  20.177  0.00  0.00    +0.000 C 
ATOM      9  C   UNL     1      -0.103  10.287  18.741  0.00  0.00    +0.000 C 
ATOM     10  C   UNL     1      -0.755  11.682  18.630  0.00  0.00    +0.000 C 
ATOM     11  C   UNL     1      -1.211  12.109  20.061  0.00  0.00    +0.000 C 
ENDROOT
BRANCH   1  15
ATOM     12  C   UNL     1       2.871   6.324  18.006  0.00  0.00    +0.000 C 
ATOM     13  C   UNL     1       2.256   5.418  18.789  0.00  0.00    +0.000 C 
ATOM     14  C   UNL     1       2.180   5.595  20.240  0.00  0.00    +0.000 C 
ATOM     15  C   UNL     1       1.746   6.700  20.871  0.00  0.00    +0.000 C 
ATOM     16  C   UNL     1       2.617   4.391  21.054  0.00  0.00    +0.000 C 
ATOM     17  C   UNL     1       1.942   3.101  20.580  0.00  0.00    +0.000 C 
ATOM     18  C   UNL     1       2.096   2.910  19.072  0.00  0.00    +0.000 C 
ATOM     19  C   UNL     1       1.619   4.135  18.283  0.00  0.00    +0.000 C 
BRANCH  17  20
ATOM     20  O   UNL     1       0.561   3.081  20.946  0.00  0.00    +0.000 OA
ATOM     21  H   UNL     1       0.153   3.922  20.670  0.00  0.00    +0.000 HD
ENDBRANCH  17  20
BRANCH  19  22
ATOM     22  O   UNL     1       1.909   3.918  16.903  0.00  0.00    +0.000 OA
ATOM     23  H   UNL     1       1.083   3.622  16.483  0.00  0.00    +0.000 HD
ENDBRANCH  19  22
ENDBRANCH   1  15
BRANCH  11  24
ATOM     24  C   UNL     1      -2.785  12.139  20.176  0.00  0.00    +0.000 C 
ATOM     25  C   UNL     1      -3.483  12.052  18.808  0.00  0.00    +0.000 C 
BRANCH  24  26
ATOM     26  C   UNL     1      -3.343  13.283  21.047  0.00  0.00    +0.000 C 
BRANCH  26  27
ATOM     27  C   UNL     1      -4.779  13.100  21.519  0.00  0.00    +0.000 C 
BRANCH  27  28
ATOM     28  S   UNL     1      -4.834  12.867  23.297  0.00  0.00    +0.000 S 
ATOM     29  N   UNL     1      -6.271  12.495  23.705  0.00  0.00    +0.000 NA
ATOM     30  O   UNL     1      -3.664  12.090  23.658  0.00  0.00    +0.000 OA
ATOM     31  H   UNL     1      -6.469  11.518  23.489  0.00  0.00    +0.000 HD
BRANCH  28  32
ATOM     32  C   UNL     1      -4.572  14.525  23.890  0.00  0.00    +0.000 A 
ATOM     33  C   UNL     1      -3.454  14.786  24.688  0.00  0.00    +0.000 A 
ATOM     34  C   UNL     1      -3.266  16.060  25.215  0.00  0.00    +0.000 A 
ATOM     35  C   UNL     1      -4.187  17.069  24.930  0.00  0.00    +0.000 A 
ATOM     36  C   UNL     1      -5.290  16.807  24.115  0.00  0.00    +0.000 A 
ATOM     37  C   UNL     1      -5.491  15.533  23.589  0.00  0.00    +0.000 A 
ENDBRANCH  28  32
ENDBRANCH  27  28
ENDBRANCH  26  27
ENDBRANCH  24  26
ENDBRANCH  11  24
TORSDOF 8
ENDMDL
MODEL 4
REMARK VINA RESULT:      -8.0      2.019      2.973
REMARK  Name = 
REMARK  10 active torsions:
REMARK  status: ('A' for Active; 'I' for Inactive)
REMARK    1  A    between atoms: C_4  and  C_5
REMARK    2  A    between atoms: C_10  and  C_11
REMARK    3  A    between atoms: C_15  and  C_16
REMARK    4  A    between atoms: C_16  and  C_17
REMARK    5  A    between atoms: C_16  and  C_18
REMARK    6  A    between atoms: C_18  and  C_19
REMARK    7  A    between atoms: C_19  and  S_20
REMARK    8  A    between atoms: S_20  and  C_23
REMARK    9  A    between atoms: C_30  and  O_31
REMARK   10  A    between atoms: C_33  and  O_34
REMARK                            x       y       z     vdW  Elec       q    Type
REMARK                         _______ _______ _______ _____ _____    ______ ____
ROOT
ATOM      1  C   UNL     1       1.251   7.814  20.245  0.00  0.00    +0.000 C 
ATOM      2  C   UNL     1       0.366   8.626  20.849  0.00  0.00    +0.000 C 
ATOM      3  C   UNL     1      -0.113   8.448  22.286  0.00  0.00    +0.000 C 
ATOM      4  C   UNL     1      -0.080   9.746  23.095  0.00  0.00    +0.000 C 
ATOM      5  C   UNL     1      -0.803  10.880  22.370  0.00  0.00    +0.000 C 
ATOM      6  C   UNL     1      -0.290  11.097  20.938  0.00  0.00    +0.000 C 
ATOM      7  C   UNL     1       1.167  11.657  21.022  0.00  0.00    +0.000 C 
ATOM      8  C   UNL     1      -0.333   9.766  20.153  0.00  0.00    +0.000 C 
ATOM      9  C   UNL     1      -0.053  10.203  18.712  0.00  0.00    +0.000 C 
ATOM     10  C   UNL     1      -0.693  11.604  18.598  0.00  0.00    +0.000 C 
ATOM     11  C   UNL     1      -1.132  12.044  20.030  0.00  0.00    +0.000 C 
ENDROOT
BRANCH   1  15
ATOM     12  C   UNL     1       2.876   6.207  17.976  0.00  0.00    +0.000 C 
ATOM     13  C   UNL     1       2.259   5.312  18.770  0.00  0.00    +0.000 C 
ATOM     14  C   UNL     1       2.199   5.500  20.221  0.00  0.00    +0.000 C 
ATOM     15  C   UNL     1       1.781   6.613  20.848  0.00  0.00    +0.000 C 
ATOM     16  C   UNL     1       2.632   4.296  21.039  0.00  0.00    +0.000 C 
ATOM     17  C   UNL     1       1.939   3.010  20.580  0.00  0.00    +0.000 C 
ATOM     18  C   UNL     1       2.078   2.808  19.072  0.00  0.00    +0.000 C 
ATOM     19  C   UNL     1       1.606   4.032  18.279  0.00  0.00    +0.000 C 
BRANCH  17  20
ATOM     20  O   UNL     1       0.562   3.006  20.959  0.00  0.00    +0.000 OA
ATOM     21  H   UNL     1       0.021   2.831  20.168  0.00  0.00    +0.000 HD
ENDBRANCH  17  20
BRANCH  19  22
ATOM     22  O   UNL     1       1.880   3.803  16.897  0.00  0.00    +0.000 OA
ATOM     23  H   UNL     1       2.740   3.352  16.851  0.00  0.00    +0.000 HD
ENDBRANCH  19  22
ENDBRANCH   1  15
BRANCH  11  24
ATOM     24  C   UNL     1      -2.705  12.089  20.159  0.00  0.00    +0.000 C 
ATOM     25  C   UNL     1      -3.417  11.944  18.804  0.00  0.00    +0.000 C 
BRANCH  24  26
ATOM     26  C   UNL     1      -3.247  13.276  20.982  0.00  0.00    +0.000 C 
BRANCH  26  27
ATOM     27  C   UNL     1      -4.355  12.931  21.967  0.00  0.00    +0.000 C 
BRANCH  27  28
ATOM     28  S   UNL     1      -3.801  13.185  23.655  0.00  0.00    +0.000 S 
ATOM     29  N   UNL     1      -4.528  12.186  24.572  0.00  0.00    +0.000 NA
ATOM     30  O   UNL     1      -2.359  13.339  23.608  0.00  0.00    +0.000 OA
ATOM     31  H   UNL     1      -4.120  11.255  24.492  0.00  0.00    +0.000 HD
BRANCH  28  32
ATOM     32  C   UNL     1      -4.492  14.783  24.028  0.00  0.00    +0.000 A 
ATOM     33  C   UNL     1      -5.777  15.086  23.567  0.00  0.00    +0.000 A 
ATOM     34  C   UNL     1      -6.309  16.351  23.792  0.00  0.00    +0.000 A 
ATOM     35  C   UNL     1      -5.561  17.302  24.489  0.00  0.00    +0.000 A 
ATOM     36  C   UNL     1      -4.287  16.987  24.964  0.00  0.00    +0.000 A 
ATOM     37  C   UNL     1      -3.743  15.725  24.737  0.00  0.00    +0.000 A 
ENDBRANCH  28  32
ENDBRANCH  27  28
ENDBRANCH  26  27
ENDBRANCH  24  26
ENDBRANCH  11  24
TORSDOF 8
ENDMDL
MODEL 5
REMARK VINA RESULT:      -7.9      2.206      3.908
REMARK  Name = 
REMARK  10 active torsions:
REMARK  status: ('A' for Active; 'I' for Inactive)
REMARK    1  A    between atoms: C_4  and  C_5
REMARK    2  A    between atoms: C_10  and  C_11
REMARK    3  A    between atoms: C_15  and  C_16
REMARK    4  A    between atoms: C_16  and  C_17
REMARK    5  A    between atoms: C_16  and  C_18
REMARK    6  A    between atoms: C_18  and  C_19
REMARK    7  A    between atoms: C_19  and  S_20
REMARK    8  A    between atoms: S_20  and  C_23
REMARK    9  A    between atoms: C_30  and  O_31
REMARK   10  A    between atoms: C_33  and  O_34
REMARK                            x       y       z     vdW  Elec       q    Type
REMARK                         _______ _______ _______ _____ _____    ______ ____
ROOT
ATOM      1  C   UNL     1       1.240   7.903  20.246  0.00  0.00    +0.000 C 
ATOM      2  C   UNL     1       0.333   8.714  20.818  0.00  0.00    +0.000 C 
ATOM      3  C   UNL     1      -0.213   8.524  22.228  0.00  0.00    +0.000 C 
ATOM      4  C   UNL     1      -0.210   9.813  23.052  0.00  0.00    +0.000 C 
ATOM      5  C   UNL     1      -0.893  10.959  22.307  0.00  0.00    +0.000 C 
ATOM      6  C   UNL     1      -0.313  11.188  20.902  0.00  0.00    +0.000 C 
ATOM      7  C   UNL     1       1.142  11.739  21.061  0.00  0.00    +0.000 C 
ATOM      8  C   UNL     1      -0.326   9.867  20.102  0.00  0.00    +0.000 C 
ATOM      9  C   UNL     1       0.023  10.317  18.680  0.00  0.00    +0.000 C 
ATOM     10  C   UNL     1      -0.604  11.722  18.552  0.00  0.00    +0.000 C 
ATOM     11  C   UNL     1      -1.106  12.150  19.967  0.00  0.00    +0.000 C 
ENDROOT
BRANCH   1  15
ATOM     12  C   UNL     1       2.937   6.298  18.030  0.00  0.00    +0.000 C 
ATOM     13  C   UNL     1       2.282   5.403  18.792  0.00  0.00    +0.000 C 
ATOM     14  C   UNL     1       2.167   5.580  20.241  0.00  0.00    +0.000 C 
ATOM     15  C   UNL     1       1.736   6.693  20.860  0.00  0.00    +0.000 C 
ATOM     16  C   UNL     1       2.556   4.367  21.066  0.00  0.00    +0.000 C 
ATOM     17  C   UNL     1       1.870   3.091  20.570  0.00  0.00    +0.000 C 
ATOM     18  C   UNL     1       2.065   2.899  19.067  0.00  0.00    +0.000 C 
ATOM     19  C   UNL     1       1.636   4.133  18.266  0.00  0.00    +0.000 C 
BRANCH  17  20
ATOM     20  O   UNL     1       0.479   3.098  20.895  0.00  0.00    +0.000 OA
ATOM     21  H   UNL     1       0.384   3.197  21.859  0.00  0.00    +0.000 HD
ENDBRANCH  17  20
BRANCH  19  22
ATOM     22  O   UNL     1       1.962   3.912  16.894  0.00  0.00    +0.000 OA
ATOM     23  H   UNL     1       2.704   4.502  16.681  0.00  0.00    +0.000 HD
ENDBRANCH  19  22
ENDBRANCH   1  15
BRANCH  11  24
ATOM     24  C   UNL     1      -2.683  12.204  20.024  0.00  0.00    +0.000 C 
ATOM     25  C   UNL     1      -3.340  11.767  18.703  0.00  0.00    +0.000 C 
BRANCH  24  26
ATOM     26  C   UNL     1      -3.261  13.531  20.555  0.00  0.00    +0.000 C 
BRANCH  26  27
ATOM     27  C   UNL     1      -2.467  14.183  21.679  0.00  0.00    +0.000 C 
BRANCH  27  28
ATOM     28  S   UNL     1      -1.982  15.849  21.225  0.00  0.00    +0.000 S 
ATOM     29  N   UNL     1      -2.798  16.287  19.995  0.00  0.00    +0.000 NA
ATOM     30  O   UNL     1      -1.897  16.615  22.454  0.00  0.00    +0.000 OA
ATOM     31  H   UNL     1      -3.747  16.548  20.263  0.00  0.00    +0.000 HD
BRANCH  28  32
ATOM     32  C   UNL     1      -0.318  15.599  20.642  0.00  0.00    +0.000 A 
ATOM     33  C   UNL     1      -0.096  15.491  19.266  0.00  0.00    +0.000 A 
ATOM     34  C   UNL     1       1.188  15.230  18.794  0.00  0.00    +0.000 A 
ATOM     35  C   UNL     1       2.242  15.094  19.698  0.00  0.00    +0.000 A 
ATOM     36  C   UNL     1       2.017  15.222  21.070  0.00  0.00    +0.000 A 
ATOM     37  C   UNL     1       0.734  15.476  21.552  0.00  0.00    +0.000 A 
ENDBRANCH  28  32
ENDBRANCH  27  28
ENDBRANCH  26  27
ENDBRANCH  24  26
ENDBRANCH  11  24
TORSDOF 8
ENDMDL
MODEL 6
REMARK VINA RESULT:      -7.8      2.107      2.661
REMARK  Name = 
REMARK  10 active torsions:
REMARK  status: ('A' for Active; 'I' for Inactive)
REMARK    1  A    between atoms: C_4  and  C_5
REMARK    2  A    between atoms: C_10  and  C_11
REMARK    3  A    between atoms: C_15  and  C_16
REMARK    4  A    between atoms: C_16  and  C_17
REMARK    5  A    between atoms: C_16  and  C_18
REMARK    6  A    between atoms: C_18  and  C_19
REMARK    7  A    between atoms: C_19  and  S_20
REMARK    8  A    between atoms: S_20  and  C_23
REMARK    9  A    between atoms: C_30  and  O_31
REMARK   10  A    between atoms: C_33  and  O_34
REMARK                            x       y       z     vdW  Elec       q    Type
REMARK                         _______ _______ _______ _____ _____    ______ ____
ROOT
ATOM      1  C   UNL     1       1.401   7.864  20.238  0.00  0.00    +0.000 C 
ATOM      2  C   UNL     1       0.479   8.653  20.816  0.00  0.00    +0.000 C 
ATOM      3  C   UNL     1      -0.083   8.427  22.215  0.00  0.00    +0.000 C 
ATOM      4  C   UNL     1      -0.104   9.699  23.066  0.00  0.00    +0.000 C 
ATOM      5  C   UNL     1      -0.790  10.853  22.336  0.00  0.00    +0.000 C 
ATOM      6  C   UNL     1      -0.195  11.117  20.944  0.00  0.00    +0.000 C 
ATOM      7  C   UNL     1       1.252  11.680  21.132  0.00  0.00    +0.000 C 
ATOM      8  C   UNL     1      -0.184   9.813  20.116  0.00  0.00    +0.000 C 
ATOM      9  C   UNL     1       0.178  10.296  18.708  0.00  0.00    +0.000 C 
ATOM     10  C   UNL     1      -0.463  11.698  18.602  0.00  0.00    +0.000 C 
ATOM     11  C   UNL     1      -0.987  12.091  20.019  0.00  0.00    +0.000 C 
ENDROOT
BRANCH   1  15
ATOM     12  C   UNL     1       2.907   6.189  17.936  0.00  0.00    +0.000 C 
ATOM     13  C   UNL     1       2.278   5.321  18.750  0.00  0.00    +0.000 C 
ATOM     14  C   UNL     1       2.262   5.515  20.201  0.00  0.00    +0.000 C 
ATOM     15  C   UNL     1       1.902   6.645  20.834  0.00  0.00    +0.000 C 
ATOM     16  C   UNL     1       2.670   4.300  21.013  0.00  0.00    +0.000 C 
ATOM     17  C   UNL     1       1.919   3.039  20.577  0.00  0.00    +0.000 C 
ATOM     18  C   UNL     1       2.011   2.827  19.067  0.00  0.00    +0.000 C 
ATOM     19  C   UNL     1       1.565   4.064  18.281  0.00  0.00    +0.000 C 
BRANCH  17  20
ATOM     20  O   UNL     1       0.552   3.088  20.991  0.00  0.00    +0.000 OA
ATOM     21  H   UNL     1       0.194   3.969  20.782  0.00  0.00    +0.000 HD
ENDBRANCH  17  20
BRANCH  19  22
ATOM     22  O   UNL     1       1.795   3.821  16.894  0.00  0.00    +0.000 OA
ATOM     23  H   UNL     1       2.357   4.544  16.569  0.00  0.00    +0.000 HD
ENDBRANCH  19  22
ENDBRANCH   1  15
BRANCH  11  24
ATOM     24  C   UNL     1      -2.565  12.126  20.057  0.00  0.00    +0.000 C 
ATOM     25  C   UNL     1      -3.198  11.896  18.674  0.00  0.00    +0.000 C 
BRANCH  24  26
ATOM     26  C   UNL     1      -3.161  13.352  20.778  0.00  0.00    +0.000 C 
BRANCH  26  27
ATOM     27  C   UNL     1      -2.198  14.511  20.995  0.00  0.00    +0.000 C 
BRANCH  27  28
ATOM     28  S   UNL     1      -2.126  14.955  22.732  0.00  0.00    +0.000 S 
ATOM     29  N   UNL     1      -0.932  14.232  23.381  0.00  0.00    +0.000 NA
ATOM     30  O   UNL     1      -2.347  16.386  22.813  0.00  0.00    +0.000 OA
ATOM     31  H   UNL     1      -0.055  14.695  23.143  0.00  0.00    +0.000 HD
BRANCH  28  32
ATOM     32  C   UNL     1      -3.584  14.158  23.372  0.00  0.00    +0.000 A 
ATOM     33  C   UNL     1      -3.440  12.972  24.099  0.00  0.00    +0.000 A 
ATOM     34  C   UNL     1      -4.571  12.300  24.552  0.00  0.00    +0.000 A 
ATOM     35  C   UNL     1      -5.838  12.822  24.288  0.00  0.00    +0.000 A 
ATOM     36  C   UNL     1      -5.975  14.017  23.579  0.00  0.00    +0.000 A 
ATOM     37  C   UNL     1      -4.848  14.694  23.115  0.00  0.00    +0.000 A 
ENDBRANCH  28  32
ENDBRANCH  27  28
ENDBRANCH  26  27
ENDBRANCH  24  26
ENDBRANCH  11  24
TORSDOF 8
ENDMDL
MODEL 7
REMARK VINA RESULT:      -7.8      2.486      3.575
REMARK  Name = 
REMARK  10 active torsions:
REMARK  status: ('A' for Active; 'I' for Inactive)
REMARK    1  A    between atoms: C_4  and  C_5
REMARK    2  A    between atoms: C_10  and  C_11
REMARK    3  A    between atoms: C_15  and  C_16
REMARK    4  A    between atoms: C_16  and  C_17
REMARK    5  A    between atoms: C_16  and  C_18
REMARK    6  A    between atoms: C_18  and  C_19
REMARK    7  A    between atoms: C_19  and  S_20
REMARK    8  A    between atoms: S_20  and  C_23
REMARK    9  A    between atoms: C_30  and  O_31
REMARK   10  A    between atoms: C_33  and  O_34
REMARK                            x       y       z     vdW  Elec       q    Type
REMARK                         _______ _______ _______ _____ _____    ______ ____
ROOT
ATOM      1  C   UNL     1       1.220   7.949  20.225  0.00  0.00    +0.000 C 
ATOM      2  C   UNL     1       0.301   8.748  20.793  0.00  0.00    +0.000 C 
ATOM      3  C   UNL     1      -0.233   8.563  22.209  0.00  0.00    +0.000 C 
ATOM      4  C   UNL     1      -0.251   9.862  23.019  0.00  0.00    +0.000 C 
ATOM      5  C   UNL     1      -0.961  10.986  22.265  0.00  0.00    +0.000 C 
ATOM      6  C   UNL     1      -0.393  11.210  20.854  0.00  0.00    +0.000 C 
ATOM      7  C   UNL     1       1.051  11.791  20.998  0.00  0.00    +0.000 C 
ATOM      8  C   UNL     1      -0.385   9.879  20.069  0.00  0.00    +0.000 C 
ATOM      9  C   UNL     1      -0.053  10.320  18.640  0.00  0.00    +0.000 C 
ATOM     10  C   UNL     1      -0.709  11.712  18.500  0.00  0.00    +0.000 C 
ATOM     11  C   UNL     1      -1.211  12.146  19.913  0.00  0.00    +0.000 C 
ENDROOT
BRANCH   1  15
ATOM     12  C   UNL     1       2.903   6.332  18.006  0.00  0.00    +0.000 C 
ATOM     13  C   UNL     1       2.273   5.441  18.794  0.00  0.00    +0.000 C 
ATOM     14  C   UNL     1       2.180   5.640  20.241  0.00  0.00    +0.000 C 
ATOM     15  C   UNL     1       1.744   6.756  20.850  0.00  0.00    +0.000 C 
ATOM     16  C   UNL     1       2.600   4.445  21.078  0.00  0.00    +0.000 C 
ATOM     17  C   UNL     1       1.924   3.152  20.614  0.00  0.00    +0.000 C 
ATOM     18  C   UNL     1       2.097   2.939  19.112  0.00  0.00    +0.000 C 
ATOM     19  C   UNL     1       1.636   4.153  18.299  0.00  0.00    +0.000 C 
BRANCH  17  20
ATOM     20  O   UNL     1       0.539   3.144  20.963  0.00  0.00    +0.000 OA
ATOM     21  H   UNL     1       0.054   3.701  20.328  0.00  0.00    +0.000 HD
ENDBRANCH  17  20
BRANCH  19  22
ATOM     22  O   UNL     1       1.942   3.915  16.925  0.00  0.00    +0.000 OA
ATOM     23  H   UNL     1       2.807   3.470  16.901  0.00  0.00    +0.000 HD
ENDBRANCH  19  22
ENDBRANCH   1  15
BRANCH  11  24
ATOM     24  C   UNL     1      -2.788  12.169  19.979  0.00  0.00    +0.000 C 
ATOM     25  C   UNL     1      -3.444  11.771  18.645  0.00  0.00    +0.000 C 
BRANCH  24  26
ATOM     26  C   UNL     1      -3.387  13.464  20.564  0.00  0.00    +0.000 C 
BRANCH  26  27
ATOM     27  C   UNL     1      -2.393  14.381  21.263  0.00  0.00    +0.000 C 
BRANCH  27  28
ATOM     28  S   UNL     1      -2.845  16.101  21.021  0.00  0.00    +0.000 S 
ATOM     29  N   UNL     1      -4.220  16.162  20.333  0.00  0.00    +0.000 NA
ATOM     30  O   UNL     1      -2.523  16.800  22.250  0.00  0.00    +0.000 OA
ATOM     31  H   UNL     1      -4.969  15.974  21.000  0.00  0.00    +0.000 HD
BRANCH  28  32
ATOM     32  C   UNL     1      -1.662  16.618  19.794  0.00  0.00    +0.000 A 
ATOM     33  C   UNL     1      -1.934  17.763  19.037  0.00  0.00    +0.000 A 
ATOM     34  C   UNL     1      -1.054  18.147  18.030  0.00  0.00    +0.000 A 
ATOM     35  C   UNL     1       0.097  17.395  17.793  0.00  0.00    +0.000 A 
ATOM     36  C   UNL     1       0.373  16.265  18.566  0.00  0.00    +0.000 A 
ATOM     37  C   UNL     1      -0.506  15.868  19.572  0.00  0.00    +0.000 A 
ENDBRANCH  28  32
ENDBRANCH  27  28
ENDBRANCH  26  27
ENDBRANCH  24  26
ENDBRANCH  11  24
TORSDOF 8
ENDMDL
MODEL 8
REMARK VINA RESULT:      -7.8      0.970      1.542
REMARK  Name = 
REMARK  10 active torsions:
REMARK  status: ('A' for Active; 'I' for Inactive)
REMARK    1  A    between atoms: C_4  and  C_5
REMARK    2  A    between atoms: C_10  and  C_11
REMARK    3  A    between atoms: C_15  and  C_16
REMARK    4  A    between atoms: C_16  and  C_17
REMARK    5  A    between atoms: C_16  and  C_18
REMARK    6  A    between atoms: C_18  and  C_19
REMARK    7  A    between atoms: C_19  and  S_20
REMARK    8  A    between atoms: S_20  and  C_23
REMARK    9  A    between atoms: C_30  and  O_31
REMARK   10  A    between atoms: C_33  and  O_34
REMARK                            x       y       z     vdW  Elec       q    Type
REMARK                         _______ _______ _______ _____ _____    ______ ____
ROOT
ATOM      1  C   UNL     1       1.210   7.925  20.216  0.00  0.00    +0.000 C 
ATOM      2  C   UNL     1       0.308   8.743  20.786  0.00  0.00    +0.000 C 
ATOM      3  C   UNL     1      -0.203   8.588  22.213  0.00  0.00    +0.000 C 
ATOM      4  C   UNL     1      -0.194   9.900  23.001  0.00  0.00    +0.000 C 
ATOM      5  C   UNL     1      -0.905  11.018  22.239  0.00  0.00    +0.000 C 
ATOM      6  C   UNL     1      -0.360  11.212  20.816  0.00  0.00    +0.000 C 
ATOM      7  C   UNL     1       1.093  11.781  20.924  0.00  0.00    +0.000 C 
ATOM      8  C   UNL     1      -0.379   9.869  20.054  0.00  0.00    +0.000 C 
ATOM      9  C   UNL     1      -0.067  10.281  18.612  0.00  0.00    +0.000 C 
ATOM     10  C   UNL     1      -0.710  11.677  18.459  0.00  0.00    +0.000 C 
ATOM     11  C   UNL     1      -1.184  12.140  19.873  0.00  0.00    +0.000 C 
ENDROOT
BRANCH   1  15
ATOM     12  C   UNL     1       2.899   6.290  18.015  0.00  0.00    +0.000 C 
ATOM     13  C   UNL     1       2.267   5.405  18.808  0.00  0.00    +0.000 C 
ATOM     14  C   UNL     1       2.170   5.616  20.254  0.00  0.00    +0.000 C 
ATOM     15  C   UNL     1       1.732   6.737  20.852  0.00  0.00    +0.000 C 
ATOM     16  C   UNL     1       2.588   4.429  21.103  0.00  0.00    +0.000 C 
ATOM     17  C   UNL     1       1.914   3.131  20.647  0.00  0.00    +0.000 C 
ATOM     18  C   UNL     1       2.091   2.905  19.147  0.00  0.00    +0.000 C 
ATOM     19  C   UNL     1       1.633   4.113  18.323  0.00  0.00    +0.000 C 
BRANCH  17  20
ATOM     20  O   UNL     1       0.528   3.126  20.992  0.00  0.00    +0.000 OA
ATOM     21  H   UNL     1       0.187   4.036  20.927  0.00  0.00    +0.000 HD
ENDBRANCH  17  20
BRANCH  19  22
ATOM     22  O   UNL     1       1.943   3.863  16.952  0.00  0.00    +0.000 OA
ATOM     23  H   UNL     1       1.874   2.903  16.817  0.00  0.00    +0.000 HD
ENDBRANCH  19  22
ENDBRANCH   1  15
BRANCH  11  24
ATOM     24  C   UNL     1      -2.759  12.181  19.965  0.00  0.00    +0.000 C 
ATOM     25  C   UNL     1      -3.442  11.798  18.640  0.00  0.00    +0.000 C 
BRANCH  24  26
ATOM     26  C   UNL     1      -3.334  13.479  20.566  0.00  0.00    +0.000 C 
BRANCH  26  27
ATOM     27  C   UNL     1      -4.008  13.325  21.922  0.00  0.00    +0.000 C 
BRANCH  27  28
ATOM     28  S   UNL     1      -5.790  13.225  21.733  0.00  0.00    +0.000 S 
ATOM     29  N   UNL     1      -6.157  11.822  21.216  0.00  0.00    +0.000 NA
ATOM     30  O   UNL     1      -6.376  13.832  22.912  0.00  0.00    +0.000 OA
ATOM     31  H   UNL     1      -6.117  11.136  21.970  0.00  0.00    +0.000 HD
BRANCH  28  32
ATOM     32  C   UNL     1      -6.073  14.335  20.370  0.00  0.00    +0.000 A 
ATOM     33  C   UNL     1      -5.839  15.702  20.555  0.00  0.00    +0.000 A 
ATOM     34  C   UNL     1      -6.116  16.594  19.523  0.00  0.00    +0.000 A 
ATOM     35  C   UNL     1      -6.612  16.115  18.310  0.00  0.00    +0.000 A 
ATOM     36  C   UNL     1      -6.825  14.747  18.124  0.00  0.00    +0.000 A 
ATOM     37  C   UNL     1      -6.557  13.847  19.154  0.00  0.00    +0.000 A 
ENDBRANCH  28  32
ENDBRANCH  27  28
ENDBRANCH  26  27
ENDBRANCH  24  26
ENDBRANCH  11  24
TORSDOF 8
ENDMDL
MODEL 9
REMARK VINA RESULT:      -7.7      1.920      2.604
REMARK  Name = 
REMARK  10 active torsions:
REMARK  status: ('A' for Active; 'I' for Inactive)
REMARK    1  A    between atoms: C_4  and  C_5
REMARK    2  A    between atoms: C_10  and  C_11
REMARK    3  A    between atoms: C_15  and  C_16
REMARK    4  A    between atoms: C_16  and  C_17
REMARK    5  A    between atoms: C_16  and  C_18
REMARK    6  A    between atoms: C_18  and  C_19
REMARK    7  A    between atoms: C_19  and  S_20
REMARK    8  A    between atoms: S_20  and  C_23
REMARK    9  A    between atoms: C_30  and  O_31
REMARK   10  A    between atoms: C_33  and  O_34
REMARK                            x       y       z     vdW  Elec       q    Type
REMARK                         _______ _______ _______ _____ _____    ______ ____
ROOT
ATOM      1  C   UNL     1       1.237   7.990  20.172  0.00  0.00    +0.000 C 
ATOM      2  C   UNL     1       0.343   8.820  20.736  0.00  0.00    +0.000 C 
ATOM      3  C   UNL     1      -0.188   8.666  22.157  0.00  0.00    +0.000 C 
ATOM      4  C   UNL     1      -0.165   9.973  22.952  0.00  0.00    +0.000 C 
ATOM      5  C   UNL     1      -0.848  11.107  22.189  0.00  0.00    +0.000 C 
ATOM      6  C   UNL     1      -0.283  11.300  20.773  0.00  0.00    +0.000 C 
ATOM      7  C   UNL     1       1.178  11.843  20.902  0.00  0.00    +0.000 C 
ATOM      8  C   UNL     1      -0.316   9.962  20.003  0.00  0.00    +0.000 C 
ATOM      9  C   UNL     1       0.020  10.377  18.567  0.00  0.00    +0.000 C 
ATOM     10  C   UNL     1      -0.597  11.785  18.415  0.00  0.00    +0.000 C 
ATOM     11  C   UNL     1      -1.080  12.248  19.826  0.00  0.00    +0.000 C 
ENDROOT
BRANCH   1  15
ATOM     12  C   UNL     1       2.940   6.348  17.987  0.00  0.00    +0.000 C 
ATOM     13  C   UNL     1       2.282   5.466  18.762  0.00  0.00    +0.000 C 
ATOM     14  C   UNL     1       2.164   5.667  20.208  0.00  0.00    +0.000 C 
ATOM     15  C   UNL     1       1.731   6.789  20.808  0.00  0.00    +0.000 C 
ATOM     16  C   UNL     1       2.550   4.467  21.054  0.00  0.00    +0.000 C 
ATOM     17  C   UNL     1       1.865   3.183  20.576  0.00  0.00    +0.000 C 
ATOM     18  C   UNL     1       2.064   2.967  19.077  0.00  0.00    +0.000 C 
ATOM     19  C   UNL     1       1.637   4.187  18.255  0.00  0.00    +0.000 C 
BRANCH  17  20
ATOM     20  O   UNL     1       0.473   3.195  20.897  0.00  0.00    +0.000 OA
ATOM     21  H   UNL     1       0.291   2.473  21.525  0.00  0.00    +0.000 HD
ENDBRANCH  17  20
BRANCH  19  22
ATOM     22  O   UNL     1       1.967   3.944  16.888  0.00  0.00    +0.000 OA
ATOM     23  H   UNL     1       2.933   3.842  16.844  0.00  0.00    +0.000 HD
ENDBRANCH  19  22
ENDBRANCH   1  15
BRANCH  11  24
ATOM     24  C   UNL     1      -2.655  12.315  19.900  0.00  0.00    +0.000 C 
ATOM     25  C   UNL     1      -3.334  11.726  18.651  0.00  0.00    +0.000 C 
BRANCH  24  26
ATOM     26  C   UNL     1      -3.221  13.699  20.277  0.00  0.00    +0.000 C 
BRANCH  26  27
ATOM     27  C   UNL     1      -2.381  14.497  21.264  0.00  0.00    +0.000 C 
BRANCH  27  28
ATOM     28  S   UNL     1      -3.432  15.492  22.326  0.00  0.00    +0.000 S 
ATOM     29  N   UNL     1      -2.556  16.181  23.387  0.00  0.00    +0.000 NA
ATOM     30  O   UNL     1      -4.362  16.195  21.463  0.00  0.00    +0.000 OA
ATOM     31  H   UNL     1      -2.064  16.981  22.989  0.00  0.00    +0.000 HD
BRANCH  28  32
ATOM     32  C   UNL     1      -4.357  14.243  23.195  0.00  0.00    +0.000 A 
ATOM     33  C   UNL     1      -5.755  14.282  23.142  0.00  0.00    +0.000 A 
ATOM     34  C   UNL     1      -6.497  13.354  23.866  0.00  0.00    +0.000 A 
ATOM     35  C   UNL     1      -5.840  12.385  24.627  0.00  0.00    +0.000 A 
ATOM     36  C   UNL     1      -4.445  12.339  24.659  0.00  0.00    +0.000 A 
ATOM     37  C   UNL     1      -3.694  13.268  23.943  0.00  0.00    +0.000 A 
ENDBRANCH  28  32
ENDBRANCH  27  28
ENDBRANCH  26  27
ENDBRANCH  24  26
ENDBRANCH  11  24
TORSDOF 8
ENDMDL
