MODEL 1
REMARK VINA RESULT:      -8.0      0.000      0.000
REMARK  Name = 
REMARK  2 active torsions:
REMARK  status: ('A' for Active; 'I' for Inactive)
REMARK    1  A    between atoms: N_12  and  S_13
REMARK    2  A    between atoms: S_13  and  C_16
REMARK                            x       y       z     vdW  Elec       q    Type
REMARK                         _______ _______ _______ _____ _____    ______ ____
ROOT
ATOM      1  O   UNL     1       5.138   5.501  19.992  0.00  0.00    +0.000 OA
ATOM      2  C   UNL     1       4.489   5.103  19.019  0.00  0.00    +0.000 C 
ATOM      3  N   UNL     1       3.138   4.845  19.150  0.00  0.00    +0.000 N 
ATOM      4  C   UNL     1       2.570   4.719  20.492  0.00  0.00    +0.000 C 
ATOM      5  C   UNL     1       1.810   3.393  20.623  0.00  0.00    +0.000 C 
ATOM      6  C   UNL     1       0.842   3.133  19.461  0.00  0.00    +0.000 C 
ATOM      7  C   UNL     1       1.501   3.395  18.109  0.00  0.00    +0.000 C 
ATOM      8  C   UNL     1       2.112   4.795  18.112  0.00  0.00    +0.000 C 
ATOM      9  N   UNL     1       5.127   4.871  17.811  0.00  0.00    +0.000 N 
ATOM     10  C   UNL     1       6.465   5.457  17.622  0.00  0.00    +0.000 C 
ATOM     11  C   UNL     1       7.422   4.513  16.888  0.00  0.00    +0.000 C 
ATOM     12  N   UNL     1       6.844   3.994  15.611  0.00  0.00    +0.000 NA
ATOM     13  C   UNL     1       5.588   3.265  15.914  0.00  0.00    +0.000 C 
ATOM     14  C   UNL     1       4.587   4.166  16.641  0.00  0.00    +0.000 C 
ENDROOT
BRANCH  12  15
ATOM     15  S   UNL     1       6.708   5.066  14.294  0.00  0.00    +0.000 S 
ATOM     16  O   UNL     1       5.600   5.955  14.553  0.00  0.00    +0.000 OA
ATOM     17  O   UNL     1       8.017   5.598  13.984  0.00  0.00    +0.000 OA
BRANCH  15  18
ATOM     18  C   UNL     1       6.233   3.980  12.986  0.00  0.00    +0.000 A 
ATOM     19  C   UNL     1       4.886   3.937  12.618  0.00  0.00    +0.000 A 
ATOM     20  C   UNL     1       4.474   3.005  11.672  0.00  0.00    +0.000 A 
ATOM     21  C   UNL     1       5.405   2.135  11.100  0.00  0.00    +0.000 A 
ATOM     22  C   UNL     1       6.754   2.199  11.460  0.00  0.00    +0.000 A 
ATOM     23  C   UNL     1       7.176   3.128  12.408  0.00  0.00    +0.000 A 
ENDBRANCH  15  18
ENDBRANCH  12  15
TORSDOF 2
ENDMDL
MODEL 2
REMARK VINA RESULT:      -7.9      0.162      1.027
REMARK  Name = 
REMARK  2 active torsions:
REMARK  status: ('A' for Active; 'I' for Inactive)
REMARK    1  A    between atoms: N_12  and  S_13
REMARK    2  A    between atoms: S_13  and  C_16
REMARK                            x       y       z     vdW  Elec       q    Type
REMARK                         _______ _______ _______ _____ _____    ______ ____
ROOT
ATOM      1  O   UNL     1       4.927   5.534  20.040  0.00  0.00    +0.000 OA
ATOM      2  C   UNL     1       4.326   5.080  19.060  0.00  0.00    +0.000 C 
ATOM      3  N   UNL     1       2.986   4.759  19.161  0.00  0.00    +0.000 N 
ATOM      4  C   UNL     1       2.387   4.638  20.490  0.00  0.00    +0.000 C 
ATOM      5  C   UNL     1       1.689   3.280  20.635  0.00  0.00    +0.000 C 
ATOM      6  C   UNL     1       0.769   2.944  19.453  0.00  0.00    +0.000 C 
ATOM      7  C   UNL     1       1.453   3.205  18.113  0.00  0.00    +0.000 C 
ATOM      8  C   UNL     1       1.994   4.633  18.097  0.00  0.00    +0.000 C 
ATOM      9  N   UNL     1       5.009   4.851  17.877  0.00  0.00    +0.000 N 
ATOM     10  C   UNL     1       6.322   5.498  17.709  0.00  0.00    +0.000 C 
ATOM     11  C   UNL     1       7.345   4.585  17.027  0.00  0.00    +0.000 C 
ATOM     12  N   UNL     1       6.829   4.007  15.749  0.00  0.00    +0.000 NA
ATOM     13  C   UNL     1       5.603   3.224  16.035  0.00  0.00    +0.000 C 
ATOM     14  C   UNL     1       4.539   4.091  16.711  0.00  0.00    +0.000 C 
ENDROOT
BRANCH  12  15
ATOM     15  S   UNL     1       6.679   5.038  14.401  0.00  0.00    +0.000 S 
ATOM     16  O   UNL     1       5.596   5.957  14.660  0.00  0.00    +0.000 OA
ATOM     17  O   UNL     1       7.989   5.533  14.039  0.00  0.00    +0.000 OA
BRANCH  15  18
ATOM     18  C   UNL     1       6.148   3.920  13.142  0.00  0.00    +0.000 A 
ATOM     19  C   UNL     1       7.112   3.140  12.499  0.00  0.00    +0.000 A 
ATOM     20  C   UNL     1       6.730   2.341  11.428  0.00  0.00    +0.000 A 
ATOM     21  C   UNL     1       5.395   2.323  11.015  0.00  0.00    +0.000 A 
ATOM     22  C   UNL     1       4.435   3.092  11.676  0.00  0.00    +0.000 A 
ATOM     23  C   UNL     1       4.807   3.896  12.749  0.00  0.00    +0.000 A 
ENDBRANCH  15  18
ENDBRANCH  12  15
TORSDOF 2
ENDMDL
MODEL 3
REMARK VINA RESULT:      -6.7      7.055     10.956
REMARK  Name = 
REMARK  2 active torsions:
REMARK  status: ('A' for Active; 'I' for Inactive)
REMARK    1  A    between atoms: N_12  and  S_13
REMARK    2  A    between atoms: S_13  and  C_16
REMARK                            x       y       z     vdW  Elec       q    Type
REMARK                         _______ _______ _______ _____ _____    ______ ____
ROOT
ATOM      1  O   UNL     1       2.320   8.663  17.330  0.00  0.00    +0.000 OA
ATOM      2  C   UNL     1       2.062   8.235  18.460  0.00  0.00    +0.000 C 
ATOM      3  N   UNL     1       2.464   6.964  18.825  0.00  0.00    +0.000 N 
ATOM      4  C   UNL     1       2.882   6.028  17.781  0.00  0.00    +0.000 C 
ATOM      5  C   UNL     1       2.090   4.720  17.895  0.00  0.00    +0.000 C 
ATOM      6  C   UNL     1       2.056   4.157  19.322  0.00  0.00    +0.000 C 
ATOM      7  C   UNL     1       1.715   5.237  20.347  0.00  0.00    +0.000 C 
ATOM      8  C   UNL     1       2.665   6.418  20.164  0.00  0.00    +0.000 C 
ATOM      9  N   UNL     1       1.329   9.012  19.342  0.00  0.00    +0.000 N 
ATOM     10  C   UNL     1       1.207  10.450  19.046  0.00  0.00    +0.000 C 
ATOM     11  C   UNL     1      -0.192  10.995  19.348  0.00  0.00    +0.000 C 
ATOM     12  N   UNL     1      -0.649  10.659  20.731  0.00  0.00    +0.000 NA
ATOM     13  C   UNL     1      -0.665   9.184  20.887  0.00  0.00    +0.000 C 
ATOM     14  C   UNL     1       0.714   8.584  20.605  0.00  0.00    +0.000 C 
ENDROOT
BRANCH  12  15
ATOM     15  S   UNL     1       0.077  11.474  22.039  0.00  0.00    +0.000 S 
ATOM     16  O   UNL     1       0.419  10.494  23.042  0.00  0.00    +0.000 OA
ATOM     17  O   UNL     1       1.080  12.383  21.529  0.00  0.00    +0.000 OA
BRANCH  15  18
ATOM     18  C   UNL     1      -1.267  12.435  22.662  0.00  0.00    +0.000 A 
ATOM     19  C   UNL     1      -1.081  13.810  22.820  0.00  0.00    +0.000 A 
ATOM     20  C   UNL     1      -2.084  14.564  23.417  0.00  0.00    +0.000 A 
ATOM     21  C   UNL     1      -3.261  13.943  23.844  0.00  0.00    +0.000 A 
ATOM     22  C   UNL     1      -3.446  12.570  23.664  0.00  0.00    +0.000 A 
ATOM     23  C   UNL     1      -2.447  11.806  23.068  0.00  0.00    +0.000 A 
ENDBRANCH  15  18
ENDBRANCH  12  15
TORSDOF 2
ENDMDL
MODEL 4
REMARK VINA RESULT:      -6.6      7.055     10.864
REMARK  Name = 
REMARK  2 active torsions:
REMARK  status: ('A' for Active; 'I' for Inactive)
REMARK    1  A    between atoms: N_12  and  S_13
REMARK    2  A    between atoms: S_13  and  C_16
REMARK                            x       y       z     vdW  Elec       q    Type
REMARK                         _______ _______ _______ _____ _____    ______ ____
ROOT
ATOM      1  O   UNL     1       2.438   8.653  17.292  0.00  0.00    +0.000 OA
ATOM      2  C   UNL     1       2.128   8.247  18.417  0.00  0.00    +0.000 C 
ATOM      3  N   UNL     1       2.489   6.974  18.815  0.00  0.00    +0.000 N 
ATOM      4  C   UNL     1       2.927   6.015  17.801  0.00  0.00    +0.000 C 
ATOM      5  C   UNL     1       2.105   4.724  17.903  0.00  0.00    +0.000 C 
ATOM      6  C   UNL     1       2.005   4.183  19.335  0.00  0.00    +0.000 C 
ATOM      7  C   UNL     1       1.646   5.284  20.331  0.00  0.00    +0.000 C 
ATOM      8  C   UNL     1       2.627   6.444  20.168  0.00  0.00    +0.000 C 
ATOM      9  N   UNL     1       1.378   9.052  19.259  0.00  0.00    +0.000 N 
ATOM     10  C   UNL     1       1.297  10.487  18.939  0.00  0.00    +0.000 C 
ATOM     11  C   UNL     1      -0.101  11.065  19.179  0.00  0.00    +0.000 C 
ATOM     12  N   UNL     1      -0.617  10.759  20.548  0.00  0.00    +0.000 NA
ATOM     13  C   UNL     1      -0.669   9.287  20.724  0.00  0.00    +0.000 C 
ATOM     14  C   UNL     1       0.707   8.655  20.504  0.00  0.00    +0.000 C 
ENDROOT
BRANCH  12  15
ATOM     15  S   UNL     1       0.075  11.578  21.872  0.00  0.00    +0.000 S 
ATOM     16  O   UNL     1       0.431  10.596  22.868  0.00  0.00    +0.000 OA
ATOM     17  O   UNL     1       1.060  12.516  21.382  0.00  0.00    +0.000 OA
BRANCH  15  18
ATOM     18  C   UNL     1      -1.299  12.499  22.491  0.00  0.00    +0.000 A 
ATOM     19  C   UNL     1      -2.288  11.815  23.202  0.00  0.00    +0.000 A 
ATOM     20  C   UNL     1      -3.432  12.499  23.595  0.00  0.00    +0.000 A 
ATOM     21  C   UNL     1      -3.575  13.853  23.283  0.00  0.00    +0.000 A 
ATOM     22  C   UNL     1      -2.572  14.533  22.588  0.00  0.00    +0.000 A 
ATOM     23  C   UNL     1      -1.423  13.857  22.188  0.00  0.00    +0.000 A 
ENDBRANCH  15  18
ENDBRANCH  12  15
TORSDOF 2
ENDMDL
MODEL 5
REMARK VINA RESULT:      -6.6      4.555      6.962
REMARK  Name = 
REMARK  2 active torsions:
REMARK  status: ('A' for Active; 'I' for Inactive)
REMARK    1  A    between atoms: N_12  and  S_13
REMARK    2  A    between atoms: S_13  and  C_16
REMARK                            x       y       z     vdW  Elec       q    Type
REMARK                         _______ _______ _______ _____ _____    ______ ____
ROOT
ATOM      1  O   UNL     1       2.251  10.369  17.443  0.00  0.00    +0.000 OA
ATOM      2  C   UNL     1       1.795   9.596  18.293  0.00  0.00    +0.000 C 
ATOM      3  N   UNL     1       0.883  10.055  19.223  0.00  0.00    +0.000 N 
ATOM      4  C   UNL     1       0.727  11.498  19.408  0.00  0.00    +0.000 C 
ATOM      5  C   UNL     1       0.902  11.864  20.887  0.00  0.00    +0.000 C 
ATOM      6  C   UNL     1       0.078  10.977  21.831  0.00  0.00    +0.000 C 
ATOM      7  C   UNL     1       0.227   9.497  21.487  0.00  0.00    +0.000 C 
ATOM      8  C   UNL     1      -0.086   9.293  20.006  0.00  0.00    +0.000 C 
ATOM      9  N   UNL     1       2.235   8.283  18.339  0.00  0.00    +0.000 N 
ATOM     10  C   UNL     1       2.938   7.756  17.156  0.00  0.00    +0.000 C 
ATOM     11  C   UNL     1       4.123   6.859  17.529  0.00  0.00    +0.000 C 
ATOM     12  N   UNL     1       3.741   5.780  18.490  0.00  0.00    +0.000 NA
ATOM     13  C   UNL     1       3.204   6.404  19.724  0.00  0.00    +0.000 C 
ATOM     14  C   UNL     1       2.009   7.307  19.413  0.00  0.00    +0.000 C 
ENDROOT
BRANCH  12  15
ATOM     15  S   UNL     1       2.794   4.487  17.914  0.00  0.00    +0.000 S 
ATOM     16  O   UNL     1       1.526   5.021  17.477  0.00  0.00    +0.000 OA
ATOM     17  O   UNL     1       3.594   3.678  17.021  0.00  0.00    +0.000 OA
BRANCH  15  18
ATOM     18  C   UNL     1       2.508   3.558  19.388  0.00  0.00    +0.000 A 
ATOM     19  C   UNL     1       1.225   3.571  19.940  0.00  0.00    +0.000 A 
ATOM     20  C   UNL     1       1.009   2.943  21.161  0.00  0.00    +0.000 A 
ATOM     21  C   UNL     1       2.068   2.305  21.813  0.00  0.00    +0.000 A 
ATOM     22  C   UNL     1       3.343   2.280  21.243  0.00  0.00    +0.000 A 
ATOM     23  C   UNL     1       3.570   2.908  20.021  0.00  0.00    +0.000 A 
ENDBRANCH  15  18
ENDBRANCH  12  15
TORSDOF 2
ENDMDL
MODEL 6
REMARK VINA RESULT:      -6.3      3.529      5.372
REMARK  Name = 
REMARK  2 active torsions:
REMARK  status: ('A' for Active; 'I' for Inactive)
REMARK    1  A    between atoms: N_12  and  S_13
REMARK    2  A    between atoms: S_13  and  C_16
REMARK                            x       y       z     vdW  Elec       q    Type
REMARK                         _______ _______ _______ _____ _____    ______ ____
ROOT
ATOM      1  O   UNL     1       0.357   7.305  21.617  0.00  0.00    +0.000 OA
ATOM      2  C   UNL     1       1.067   7.644  20.664  0.00  0.00    +0.000 C 
ATOM      3  N   UNL     1       0.979   8.929  20.163  0.00  0.00    +0.000 N 
ATOM      4  C   UNL     1      -0.170   9.755  20.533  0.00  0.00    +0.000 C 
ATOM      5  C   UNL     1      -0.860  10.296  19.274  0.00  0.00    +0.000 C 
ATOM      6  C   UNL     1       0.119  10.923  18.271  0.00  0.00    +0.000 C 
ATOM      7  C   UNL     1       1.335  10.030  18.036  0.00  0.00    +0.000 C 
ATOM      8  C   UNL     1       1.963   9.674  19.382  0.00  0.00    +0.000 C 
ATOM      9  N   UNL     1       1.914   6.723  20.071  0.00  0.00    +0.000 N 
ATOM     10  C   UNL     1       2.217   5.492  20.820  0.00  0.00    +0.000 C 
ATOM     11  C   UNL     1       2.264   4.253  19.921  0.00  0.00    +0.000 C 
ATOM     12  N   UNL     1       3.167   4.437  18.744  0.00  0.00    +0.000 NA
ATOM     13  C   UNL     1       2.686   5.591  17.946  0.00  0.00    +0.000 C 
ATOM     14  C   UNL     1       2.627   6.863  18.794  0.00  0.00    +0.000 C 
ENDROOT
BRANCH  12  15
ATOM     15  S   UNL     1       4.849   4.449  19.012  0.00  0.00    +0.000 S 
ATOM     16  O   UNL     1       5.176   5.646  19.748  0.00  0.00    +0.000 OA
ATOM     17  O   UNL     1       5.256   3.151  19.505  0.00  0.00    +0.000 OA
BRANCH  15  18
ATOM     18  C   UNL     1       5.479   4.635  17.374  0.00  0.00    +0.000 A 
ATOM     19  C   UNL     1       5.178   3.648  16.432  0.00  0.00    +0.000 A 
ATOM     20  C   UNL     1       5.761   3.716  15.172  0.00  0.00    +0.000 A 
ATOM     21  C   UNL     1       6.628   4.766  14.862  0.00  0.00    +0.000 A 
ATOM     22  C   UNL     1       6.908   5.760  15.804  0.00  0.00    +0.000 A 
ATOM     23  C   UNL     1       6.331   5.699  17.069  0.00  0.00    +0.000 A 
ENDBRANCH  15  18
ENDBRANCH  12  15
TORSDOF 2
ENDMDL
MODEL 7
REMARK VINA RESULT:      -6.3      3.519      5.397
REMARK  Name = 
REMARK  2 active torsions:
REMARK  status: ('A' for Active; 'I' for Inactive)
REMARK    1  A    between atoms: N_12  and  S_13
REMARK    2  A    between atoms: S_13  and  C_16
REMARK                            x       y       z     vdW  Elec       q    Type
REMARK                         _______ _______ _______ _____ _____    ______ ____
ROOT
ATOM      1  O   UNL     1       0.353   7.283  21.601  0.00  0.00    +0.000 OA
ATOM      2  C   UNL     1       1.079   7.621  20.661  0.00  0.00    +0.000 C 
ATOM      3  N   UNL     1       1.013   8.910  20.167  0.00  0.00    +0.000 N 
ATOM      4  C   UNL     1      -0.132   9.746  20.525  0.00  0.00    +0.000 C 
ATOM      5  C   UNL     1      -0.798  10.302  19.261  0.00  0.00    +0.000 C 
ATOM      6  C   UNL     1       0.201  10.925  18.276  0.00  0.00    +0.000 C 
ATOM      7  C   UNL     1       1.411  10.019  18.052  0.00  0.00    +0.000 C 
ATOM      8  C   UNL     1       2.015   9.649  19.404  0.00  0.00    +0.000 C 
ATOM      9  N   UNL     1       1.925   6.694  20.074  0.00  0.00    +0.000 N 
ATOM     10  C   UNL     1       2.204   5.455  20.820  0.00  0.00    +0.000 C 
ATOM     11  C   UNL     1       2.250   4.221  19.914  0.00  0.00    +0.000 C 
ATOM     12  N   UNL     1       3.171   4.402  18.751  0.00  0.00    +0.000 NA
ATOM     13  C   UNL     1       2.714   5.567  17.953  0.00  0.00    +0.000 C 
ATOM     14  C   UNL     1       2.657   6.834  18.808  0.00  0.00    +0.000 C 
ENDROOT
BRANCH  12  15
ATOM     15  S   UNL     1       4.849   4.394  19.043  0.00  0.00    +0.000 S 
ATOM     16  O   UNL     1       5.184   5.602  19.759  0.00  0.00    +0.000 OA
ATOM     17  O   UNL     1       5.229   3.101  19.568  0.00  0.00    +0.000 OA
BRANCH  15  18
ATOM     18  C   UNL     1       5.505   4.536  17.410  0.00  0.00    +0.000 A 
ATOM     19  C   UNL     1       6.500   5.489  17.177  0.00  0.00    +0.000 A 
ATOM     20  C   UNL     1       6.945   5.696  15.876  0.00  0.00    +0.000 A 
ATOM     21  C   UNL     1       6.402   4.950  14.828  0.00  0.00    +0.000 A 
ATOM     22  C   UNL     1       5.421   3.986  15.073  0.00  0.00    +0.000 A 
ATOM     23  C   UNL     1       4.968   3.772  16.372  0.00  0.00    +0.000 A 
ENDBRANCH  15  18
ENDBRANCH  12  15
TORSDOF 2
ENDMDL
MODEL 8
REMARK VINA RESULT:      -6.2      4.872      7.173
REMARK  Name = 
REMARK  2 active torsions:
REMARK  status: ('A' for Active; 'I' for Inactive)
REMARK    1  A    between atoms: N_12  and  S_13
REMARK    2  A    between atoms: S_13  and  C_16
REMARK                            x       y       z     vdW  Elec       q    Type
REMARK                         _______ _______ _______ _____ _____    ______ ____
ROOT
ATOM      1  O   UNL     1       1.513  10.691  18.061  0.00  0.00    +0.000 OA
ATOM      2  C   UNL     1       1.213   9.810  18.874  0.00  0.00    +0.000 C 
ATOM      3  N   UNL     1       0.330  10.090  19.899  0.00  0.00    +0.000 N 
ATOM      4  C   UNL     1       0.028  11.487  20.210  0.00  0.00    +0.000 C 
ATOM      5  C   UNL     1       0.274  11.762  21.699  0.00  0.00    +0.000 C 
ATOM      6  C   UNL     1      -0.370  10.718  22.621  0.00  0.00    +0.000 C 
ATOM      7  C   UNL     1      -0.083   9.294  22.149  0.00  0.00    +0.000 C 
ATOM      8  C   UNL     1      -0.485   9.164  20.681  0.00  0.00    +0.000 C 
ATOM      9  N   UNL     1       1.799   8.558  18.783  0.00  0.00    +0.000 N 
ATOM     10  C   UNL     1       2.464   8.205  17.517  0.00  0.00    +0.000 C 
ATOM     11  C   UNL     1       3.766   7.429  17.733  0.00  0.00    +0.000 C 
ATOM     12  N   UNL     1       3.583   6.245  18.627  0.00  0.00    +0.000 NA
ATOM     13  C   UNL     1       3.076   6.709  19.942  0.00  0.00    +0.000 C 
ATOM     14  C   UNL     1       1.767   7.486  19.787  0.00  0.00    +0.000 C 
ENDROOT
BRANCH  12  15
ATOM     15  S   UNL     1       2.744   4.894  18.014  0.00  0.00    +0.000 S 
ATOM     16  O   UNL     1       1.446   5.339  17.567  0.00  0.00    +0.000 OA
ATOM     17  O   UNL     1       3.617   4.166  17.119  0.00  0.00    +0.000 OA
BRANCH  15  18
ATOM     18  C   UNL     1       2.510   3.919  19.466  0.00  0.00    +0.000 A 
ATOM     19  C   UNL     1       3.597   3.193  19.959  0.00  0.00    +0.000 A 
ATOM     20  C   UNL     1       3.402   2.329  21.030  0.00  0.00    +0.000 A 
ATOM     21  C   UNL     1       2.134   2.204  21.602  0.00  0.00    +0.000 A 
ATOM     22  C   UNL     1       1.057   2.949  21.115  0.00  0.00    +0.000 A 
ATOM     23  C   UNL     1       1.241   3.816  20.041  0.00  0.00    +0.000 A 
ENDBRANCH  15  18
ENDBRANCH  12  15
TORSDOF 2
ENDMDL
MODEL 9
REMARK VINA RESULT:      -6.2      7.238     10.758
REMARK  Name = 
REMARK  2 active torsions:
REMARK  status: ('A' for Active; 'I' for Inactive)
REMARK    1  A    between atoms: N_12  and  S_13
REMARK    2  A    between atoms: S_13  and  C_16
REMARK                            x       y       z     vdW  Elec       q    Type
REMARK                         _______ _______ _______ _____ _____    ______ ____
ROOT
ATOM      1  O   UNL     1       2.570   8.615  17.195  0.00  0.00    +0.000 OA
ATOM      2  C   UNL     1       2.207   8.265  18.323  0.00  0.00    +0.000 C 
ATOM      3  N   UNL     1       2.512   6.999  18.783  0.00  0.00    +0.000 N 
ATOM      4  C   UNL     1       2.953   5.986  17.824  0.00  0.00    +0.000 C 
ATOM      5  C   UNL     1       2.085   4.727  17.947  0.00  0.00    +0.000 C 
ATOM      6  C   UNL     1       1.916   4.248  19.395  0.00  0.00    +0.000 C 
ATOM      7  C   UNL     1       1.560   5.399  20.333  0.00  0.00    +0.000 C 
ATOM      8  C   UNL     1       2.584   6.520  20.161  0.00  0.00    +0.000 C 
ATOM      9  N   UNL     1       1.455   9.127  19.105  0.00  0.00    +0.000 N 
ATOM     10  C   UNL     1       1.433  10.550  18.726  0.00  0.00    +0.000 C 
ATOM     11  C   UNL     1       0.048  11.182  18.892  0.00  0.00    +0.000 C 
ATOM     12  N   UNL     1      -0.526  10.947  20.252  0.00  0.00    +0.000 NA
ATOM     13  C   UNL     1      -0.633   9.486  20.484  0.00  0.00    +0.000 C 
ATOM     14  C   UNL     1       0.728   8.802  20.339  0.00  0.00    +0.000 C 
ENDROOT
BRANCH  12  15
ATOM     15  S   UNL     1       0.146  11.797  21.567  0.00  0.00    +0.000 S 
ATOM     16  O   UNL     1      -0.041  11.000  22.756  0.00  0.00    +0.000 OA
ATOM     17  O   UNL     1       1.463  12.268  21.200  0.00  0.00    +0.000 OA
BRANCH  15  18
ATOM     18  C   UNL     1      -0.924  13.197  21.683  0.00  0.00    +0.000 A 
ATOM     19  C   UNL     1      -0.438  14.352  22.301  0.00  0.00    +0.000 A 
ATOM     20  C   UNL     1      -1.302  15.422  22.506  0.00  0.00    +0.000 A 
ATOM     21  C   UNL     1      -2.632  15.332  22.089  0.00  0.00    +0.000 A 
ATOM     22  C   UNL     1      -3.104  14.180  21.455  0.00  0.00    +0.000 A 
ATOM     23  C   UNL     1      -2.248  13.103  21.246  0.00  0.00    +0.000 A 
ENDBRANCH  15  18
ENDBRANCH  12  15
TORSDOF 2
ENDMDL
