MODEL 1
REMARK VINA RESULT:      -8.0      0.000      0.000
REMARK  Name = 
REMARK  7 active torsions:
REMARK  status: ('A' for Active; 'I' for Inactive)
REMARK    1  A    between atoms: C_1  and  O_2
REMARK    2  A    between atoms: O_2  and  C_3
REMARK    3  A    between atoms: C_6  and  N_7
REMARK    4  A    between atoms: C_9  and  C_10
REMARK    5  A    between atoms: N_12  and  C_13
REMARK    6  A    between atoms: C_16  and  C_17
REMARK    7  A    between atoms: C_22  and  C_23
REMARK                            x       y       z     vdW  Elec       q    Type
REMARK                         _______ _______ _______ _____ _____    ______ ____
ROOT
ATOM      1  N   UNL     1       3.987   6.131  17.932  0.00  0.00    +0.000 N 
ATOM      2  N   UNL     1       3.601   7.422  18.152  0.00  0.00    +0.000 NA
ATOM      3  C   UNL     1       2.485   7.320  18.891  0.00  0.00    +0.000 A 
ATOM      4  C   UNL     1       2.249   5.976  19.265  0.00  0.00    +0.000 A 
ATOM      5  C   UNL     1       3.256   5.219  18.699  0.00  0.00    +0.000 A 
ENDROOT
BRANCH   1   9
ATOM      6  C   UNL     1       7.011   5.311  15.107  0.00  0.00    +0.000 A 
ATOM      7  C   UNL     1       7.262   6.155  16.193  0.00  0.00    +0.000 A 
ATOM      8  C   UNL     1       6.257   6.447  17.117  0.00  0.00    +0.000 A 
ATOM      9  C   UNL     1       4.991   5.874  16.962  0.00  0.00    +0.000 A 
ATOM     10  C   UNL     1       4.723   5.059  15.856  0.00  0.00    +0.000 A 
ATOM     11  C   UNL     1       5.735   4.776  14.935  0.00  0.00    +0.000 A 
BRANCH   6  13
ATOM     12  C   UNL     1       7.837   5.405  12.892  0.00  0.00    +0.000 C 
ATOM     13  O   UNL     1       8.071   5.116  14.266  0.00  0.00    +0.000 OA
ENDBRANCH   6  13
ENDBRANCH   1   9
BRANCH   5  14
ATOM     14  C   UNL     1       3.536   3.782  18.885  0.00  0.00    +0.000 A 
ATOM     15  C   UNL     1       2.916   2.820  18.078  0.00  0.00    +0.000 A 
ATOM     16  C   UNL     1       3.221   1.467  18.234  0.00  0.00    +0.000 A 
ATOM     17  C   UNL     1       4.145   1.106  19.198  0.00  0.00    +0.000 A 
ATOM     18  N   UNL     1       4.735   1.988  20.025  0.00  0.00    +0.000 NA
ATOM     19  C   UNL     1       4.398   3.292  19.868  0.00  0.00    +0.000 A 
ENDBRANCH   5  14
BRANCH   3  20
ATOM     20  C   UNL     1       1.647   8.468  19.269  0.00  0.00    +0.000 C 
ATOM     21  O   UNL     1       1.189   9.201  18.395  0.00  0.00    +0.000 OA
ATOM     22  N   UNL     1       1.490   8.640  20.631  0.00  0.00    +0.000 N 
ATOM     23  H   UNL     1       2.047   8.012  21.207  0.00  0.00    +0.000 HD
BRANCH  22  24
ATOM     24  C   UNL     1       0.698   9.620  21.269  0.00  0.00    +0.000 A 
ATOM     25  C   UNL     1      -0.146   9.319  22.340  0.00  0.00    +0.000 A 
ATOM     26  C   UNL     1      -0.904  10.311  22.966  0.00  0.00    +0.000 A 
ATOM     27  C   UNL     1      -0.843  11.637  22.533  0.00  0.00    +0.000 A 
ATOM     28  C   UNL     1      -1.660  12.676  23.253  0.00  0.00    +0.000 C 
ATOM     29  C   UNL     1      -0.008  11.942  21.451  0.00  0.00    +0.000 A 
ATOM     30 CL   UNL     1       0.096  13.554  20.829  0.00  0.00    +0.000 Cl
ATOM     31  C   UNL     1       0.767  10.946  20.831  0.00  0.00    +0.000 A 
ENDBRANCH  22  24
ENDBRANCH   3  20
TORSDOF 5
ENDMDL
MODEL 2
REMARK VINA RESULT:      -7.9      1.602      1.985
REMARK  Name = 
REMARK  7 active torsions:
REMARK  status: ('A' for Active; 'I' for Inactive)
REMARK    1  A    between atoms: C_1  and  O_2
REMARK    2  A    between atoms: O_2  and  C_3
REMARK    3  A    between atoms: C_6  and  N_7
REMARK    4  A    between atoms: C_9  and  C_10
REMARK    5  A    between atoms: N_12  and  C_13
REMARK    6  A    between atoms: C_16  and  C_17
REMARK    7  A    between atoms: C_22  and  C_23
REMARK                            x       y       z     vdW  Elec       q    Type
REMARK                         _______ _______ _______ _____ _____    ______ ____
ROOT
ATOM      1  N   UNL     1       3.902   6.584  17.463  0.00  0.00    +0.000 N 
ATOM      2  N   UNL     1       3.675   7.927  17.559  0.00  0.00    +0.000 NA
ATOM      3  C   UNL     1       2.456   8.025  18.111  0.00  0.00    +0.000 A 
ATOM      4  C   UNL     1       1.974   6.754  18.501  0.00  0.00    +0.000 A 
ATOM      5  C   UNL     1       2.938   5.832  18.140  0.00  0.00    +0.000 A 
ENDROOT
BRANCH   1   9
ATOM      6  C   UNL     1       7.137   5.302  15.078  0.00  0.00    +0.000 A 
ATOM      7  C   UNL     1       5.821   5.010  14.708  0.00  0.00    +0.000 A 
ATOM      8  C   UNL     1       4.749   5.413  15.506  0.00  0.00    +0.000 A 
ATOM      9  C   UNL     1       4.996   6.130  16.681  0.00  0.00    +0.000 A 
ATOM     10  C   UNL     1       6.313   6.392  17.076  0.00  0.00    +0.000 A 
ATOM     11  C   UNL     1       7.379   5.982  16.272  0.00  0.00    +0.000 A 
BRANCH   6  13
ATOM     12  C   UNL     1       7.987   5.275  12.870  0.00  0.00    +0.000 C 
ATOM     13  O   UNL     1       8.097   4.841  14.221  0.00  0.00    +0.000 OA
ENDBRANCH   6  13
ENDBRANCH   1   9
BRANCH   5  14
ATOM     14  C   UNL     1       2.975   4.386  18.433  0.00  0.00    +0.000 A 
ATOM     15  C   UNL     1       2.228   3.480  17.670  0.00  0.00    +0.000 A 
ATOM     16  C   UNL     1       2.306   2.110  17.928  0.00  0.00    +0.000 A 
ATOM     17  C   UNL     1       3.134   1.677  18.947  0.00  0.00    +0.000 A 
ATOM     18  N   UNL     1       3.839   2.511  19.735  0.00  0.00    +0.000 NA
ATOM     19  C   UNL     1       3.722   3.837  19.477  0.00  0.00    +0.000 A 
ENDBRANCH   5  14
BRANCH   3  20
ATOM     20  C   UNL     1       1.743   9.299  18.296  0.00  0.00    +0.000 C 
ATOM     21  O   UNL     1       2.078  10.285  17.643  0.00  0.00    +0.000 OA
ATOM     22  N   UNL     1       0.754   9.268  19.261  0.00  0.00    +0.000 N 
ATOM     23  H   UNL     1       0.702   8.400  19.790  0.00  0.00    +0.000 HD
BRANCH  22  24
ATOM     24  C   UNL     1      -0.118  10.324  19.605  0.00  0.00    +0.000 A 
ATOM     25  C   UNL     1       0.150  11.205  20.656  0.00  0.00    +0.000 A 
ATOM     26  C   UNL     1      -0.720  12.253  20.963  0.00  0.00    +0.000 A 
ATOM     27  C   UNL     1      -1.891  12.447  20.229  0.00  0.00    +0.000 A 
ATOM     28  C   UNL     1      -2.787  13.604  20.580  0.00  0.00    +0.000 C 
ATOM     29  C   UNL     1      -2.172  11.559  19.182  0.00  0.00    +0.000 A 
ATOM     30 CL   UNL     1      -3.621  11.708  18.249  0.00  0.00    +0.000 Cl
ATOM     31  C   UNL     1      -1.288  10.513  18.864  0.00  0.00    +0.000 A 
ENDBRANCH  22  24
ENDBRANCH   3  20
TORSDOF 5
ENDMDL
MODEL 3
REMARK VINA RESULT:      -7.9      1.438      1.886
REMARK  Name = 
REMARK  7 active torsions:
REMARK  status: ('A' for Active; 'I' for Inactive)
REMARK    1  A    between atoms: C_1  and  O_2
REMARK    2  A    between atoms: O_2  and  C_3
REMARK    3  A    between atoms: C_6  and  N_7
REMARK    4  A    between atoms: C_9  and  C_10
REMARK    5  A    between atoms: N_12  and  C_13
REMARK    6  A    between atoms: C_16  and  C_17
REMARK    7  A    between atoms: C_22  and  C_23
REMARK                            x       y       z     vdW  Elec       q    Type
REMARK                         _______ _______ _______ _____ _____    ______ ____
ROOT
ATOM      1  N   UNL     1       3.766   6.629  17.696  0.00  0.00    +0.000 N 
ATOM      2  N   UNL     1       3.547   7.973  17.804  0.00  0.00    +0.000 NA
ATOM      3  C   UNL     1       2.314   8.073  18.325  0.00  0.00    +0.000 A 
ATOM      4  C   UNL     1       1.814   6.800  18.686  0.00  0.00    +0.000 A 
ATOM      5  C   UNL     1       2.780   5.876  18.338  0.00  0.00    +0.000 A 
ENDROOT
BRANCH   1   9
ATOM      6  C   UNL     1       7.046   5.347  15.373  0.00  0.00    +0.000 A 
ATOM      7  C   UNL     1       5.744   4.964  15.038  0.00  0.00    +0.000 A 
ATOM      8  C   UNL     1       4.659   5.367  15.818  0.00  0.00    +0.000 A 
ATOM      9  C   UNL     1       4.877   6.177  16.936  0.00  0.00    +0.000 A 
ATOM     10  C   UNL     1       6.182   6.533  17.298  0.00  0.00    +0.000 A 
ATOM     11  C   UNL     1       7.262   6.121  16.514  0.00  0.00    +0.000 A 
BRANCH   6  13
ATOM     12  C   UNL     1       7.928   5.277  13.179  0.00  0.00    +0.000 C 
ATOM     13  O   UNL     1       8.023   4.876  14.541  0.00  0.00    +0.000 OA
ENDBRANCH   6  13
ENDBRANCH   1   9
BRANCH   5  14
ATOM     14  C   UNL     1       2.799   4.426  18.613  0.00  0.00    +0.000 A 
ATOM     15  C   UNL     1       1.915   3.560  17.959  0.00  0.00    +0.000 A 
ATOM     16  C   UNL     1       1.972   2.185  18.194  0.00  0.00    +0.000 A 
ATOM     17  C   UNL     1       2.919   1.706  19.081  0.00  0.00    +0.000 A 
ATOM     18  N   UNL     1       3.762   2.502  19.766  0.00  0.00    +0.000 NA
ATOM     19  C   UNL     1       3.664   3.835  19.536  0.00  0.00    +0.000 A 
ENDBRANCH   5  14
BRANCH   3  20
ATOM     20  C   UNL     1       1.606   9.349  18.509  0.00  0.00    +0.000 C 
ATOM     21  O   UNL     1       2.016  10.360  17.942  0.00  0.00    +0.000 OA
ATOM     22  N   UNL     1       0.531   9.290  19.375  0.00  0.00    +0.000 N 
ATOM     23  H   UNL     1       0.417   8.397  19.851  0.00  0.00    +0.000 HD
BRANCH  22  24
ATOM     24  C   UNL     1      -0.354  10.344  19.690  0.00  0.00    +0.000 A 
ATOM     25  C   UNL     1      -1.306  10.818  18.784  0.00  0.00    +0.000 A 
ATOM     26  C   UNL     1      -2.183  11.849  19.128  0.00  0.00    +0.000 A 
ATOM     27  C   UNL     1      -2.129  12.442  20.391  0.00  0.00    +0.000 A 
ATOM     28  C   UNL     1      -3.109  13.534  20.725  0.00  0.00    +0.000 C 
ATOM     29  C   UNL     1      -1.167  11.979  21.299  0.00  0.00    +0.000 A 
ATOM     30 CL   UNL     1      -1.009  12.686  22.870  0.00  0.00    +0.000 Cl
ATOM     31  C   UNL     1      -0.295  10.931  20.957  0.00  0.00    +0.000 A 
ENDBRANCH  22  24
ENDBRANCH   3  20
TORSDOF 5
ENDMDL
MODEL 4
REMARK VINA RESULT:      -7.9      0.537      1.023
REMARK  Name = 
REMARK  7 active torsions:
REMARK  status: ('A' for Active; 'I' for Inactive)
REMARK    1  A    between atoms: C_1  and  O_2
REMARK    2  A    between atoms: O_2  and  C_3
REMARK    3  A    between atoms: C_6  and  N_7
REMARK    4  A    between atoms: C_9  and  C_10
REMARK    5  A    between atoms: N_12  and  C_13
REMARK    6  A    between atoms: C_16  and  C_17
REMARK    7  A    between atoms: C_22  and  C_23
REMARK                            x       y       z     vdW  Elec       q    Type
REMARK                         _______ _______ _______ _____ _____    ______ ____
ROOT
ATOM      1  N   UNL     1       3.875   6.306  18.038  0.00  0.00    +0.000 N 
ATOM      2  N   UNL     1       3.531   7.597  18.321  0.00  0.00    +0.000 NA
ATOM      3  C   UNL     1       2.344   7.502  18.939  0.00  0.00    +0.000 A 
ATOM      4  C   UNL     1       2.008   6.150  19.182  0.00  0.00    +0.000 A 
ATOM      5  C   UNL     1       3.029   5.382  18.657  0.00  0.00    +0.000 A 
ENDROOT
BRANCH   1   9
ATOM      6  C   UNL     1       7.062   5.666  15.349  0.00  0.00    +0.000 A 
ATOM      7  C   UNL     1       5.760   5.283  15.013  0.00  0.00    +0.000 A 
ATOM      8  C   UNL     1       4.707   5.473  15.909  0.00  0.00    +0.000 A 
ATOM      9  C   UNL     1       4.957   6.067  17.150  0.00  0.00    +0.000 A 
ATOM     10  C   UNL     1       6.264   6.417  17.507  0.00  0.00    +0.000 A 
ATOM     11  C   UNL     1       7.312   6.220  16.604  0.00  0.00    +0.000 A 
BRANCH   6  13
ATOM     12  C   UNL     1       7.517   4.938  13.144  0.00  0.00    +0.000 C 
ATOM     13  O   UNL     1       8.007   5.414  14.393  0.00  0.00    +0.000 OA
ENDBRANCH   6  13
ENDBRANCH   1   9
BRANCH   5  14
ATOM     14  C   UNL     1       3.219   3.922  18.754  0.00  0.00    +0.000 A 
ATOM     15  C   UNL     1       2.512   3.049  17.920  0.00  0.00    +0.000 A 
ATOM     16  C   UNL     1       2.732   1.672  17.991  0.00  0.00    +0.000 A 
ATOM     17  C   UNL     1       3.661   1.199  18.900  0.00  0.00    +0.000 A 
ATOM     18  N   UNL     1       4.334   1.994  19.753  0.00  0.00    +0.000 NA
ATOM     19  C   UNL     1       4.079   3.324  19.678  0.00  0.00    +0.000 A 
ENDBRANCH   5  14
BRANCH   3  20
ATOM     20  C   UNL     1       1.528   8.665  19.325  0.00  0.00    +0.000 C 
ATOM     21  O   UNL     1       1.293   9.544  18.500  0.00  0.00    +0.000 OA
ATOM     22  N   UNL     1       1.129   8.672  20.648  0.00  0.00    +0.000 N 
ATOM     23  H   UNL     1       1.524   7.925  21.216  0.00  0.00    +0.000 HD
BRANCH  22  24
ATOM     24  C   UNL     1       0.298   9.629  21.271  0.00  0.00    +0.000 A 
ATOM     25  C   UNL     1      -0.173   9.475  22.577  0.00  0.00    +0.000 A 
ATOM     26  C   UNL     1      -0.977  10.447  23.176  0.00  0.00    +0.000 A 
ATOM     27  C   UNL     1      -1.340  11.602  22.481  0.00  0.00    +0.000 A 
ATOM     28  C   UNL     1      -2.188  12.633  23.175  0.00  0.00    +0.000 C 
ATOM     29  C   UNL     1      -0.881  11.755  21.166  0.00  0.00    +0.000 A 
ATOM     30 CL   UNL     1      -1.317  13.139  20.224  0.00  0.00    +0.000 Cl
ATOM     31  C   UNL     1      -0.059  10.783  20.569  0.00  0.00    +0.000 A 
ENDBRANCH  22  24
ENDBRANCH   3  20
TORSDOF 5
ENDMDL
MODEL 5
REMARK VINA RESULT:      -7.7      2.537      3.164
REMARK  Name = 
REMARK  7 active torsions:
REMARK  status: ('A' for Active; 'I' for Inactive)
REMARK    1  A    between atoms: C_1  and  O_2
REMARK    2  A    between atoms: O_2  and  C_3
REMARK    3  A    between atoms: C_6  and  N_7
REMARK    4  A    between atoms: C_9  and  C_10
REMARK    5  A    between atoms: N_12  and  C_13
REMARK    6  A    between atoms: C_16  and  C_17
REMARK    7  A    between atoms: C_22  and  C_23
REMARK                            x       y       z     vdW  Elec       q    Type
REMARK                         _______ _______ _______ _____ _____    ______ ____
ROOT
ATOM      1  N   UNL     1       2.633   6.682  19.068  0.00  0.00    +0.000 N 
ATOM      2  N   UNL     1       2.607   8.047  19.029  0.00  0.00    +0.000 NA
ATOM      3  C   UNL     1       1.624   8.390  19.876  0.00  0.00    +0.000 A 
ATOM      4  C   UNL     1       1.132   7.256  20.563  0.00  0.00    +0.000 A 
ATOM      5  C   UNL     1       1.829   6.164  20.087  0.00  0.00    +0.000 A 
ENDROOT
BRANCH   1   9
ATOM      6  C   UNL     1       4.942   4.602  16.215  0.00  0.00    +0.000 A 
ATOM      7  C   UNL     1       5.230   5.934  16.528  0.00  0.00    +0.000 A 
ATOM      8  C   UNL     1       4.453   6.632  17.455  0.00  0.00    +0.000 A 
ATOM      9  C   UNL     1       3.387   5.985  18.088  0.00  0.00    +0.000 A 
ATOM     10  C   UNL     1       3.072   4.664  17.750  0.00  0.00    +0.000 A 
ATOM     11  C   UNL     1       3.852   3.975  16.819  0.00  0.00    +0.000 A 
BRANCH   6  13
ATOM     12  C   UNL     1       6.800   4.868  14.775  0.00  0.00    +0.000 C 
ATOM     13  O   UNL     1       5.765   4.034  15.283  0.00  0.00    +0.000 OA
ENDBRANCH   6  13
ENDBRANCH   1   9
BRANCH   5  14
ATOM     14  C   UNL     1       1.780   4.768  20.563  0.00  0.00    +0.000 A 
ATOM     15  C   UNL     1       0.901   3.843  19.986  0.00  0.00    +0.000 A 
ATOM     16  C   UNL     1       0.894   2.515  20.415  0.00  0.00    +0.000 A 
ATOM     17  C   UNL     1       1.771   2.140  21.415  0.00  0.00    +0.000 A 
ATOM     18  N   UNL     1       2.605   3.001  22.030  0.00  0.00    +0.000 NA
ATOM     19  C   UNL     1       2.570   4.289  21.610  0.00  0.00    +0.000 A 
ENDBRANCH   5  14
BRANCH   3  20
ATOM     20  C   UNL     1       1.154   9.771  20.065  0.00  0.00    +0.000 C 
ATOM     21  O   UNL     1       0.701  10.116  21.154  0.00  0.00    +0.000 OA
ATOM     22  N   UNL     1       1.231  10.564  18.935  0.00  0.00    +0.000 N 
ATOM     23  H   UNL     1       1.513  10.073  18.089  0.00  0.00    +0.000 HD
BRANCH  22  24
ATOM     24  C   UNL     1       0.903  11.935  18.846  0.00  0.00    +0.000 A 
ATOM     25  C   UNL     1      -0.417  12.384  18.757  0.00  0.00    +0.000 A 
ATOM     26  C   UNL     1      -0.715  13.747  18.689  0.00  0.00    +0.000 A 
ATOM     27  C   UNL     1       0.303  14.702  18.702  0.00  0.00    +0.000 A 
ATOM     28  C   UNL     1      -0.067  16.160  18.651  0.00  0.00    +0.000 C 
ATOM     29  C   UNL     1       1.629  14.256  18.778  0.00  0.00    +0.000 A 
ATOM     30 CL   UNL     1       2.949  15.374  18.761  0.00  0.00    +0.000 Cl
ATOM     31  C   UNL     1       1.927  12.885  18.862  0.00  0.00    +0.000 A 
ENDBRANCH  22  24
ENDBRANCH   3  20
TORSDOF 5
ENDMDL
MODEL 6
REMARK VINA RESULT:      -7.7      1.521      1.789
REMARK  Name = 
REMARK  7 active torsions:
REMARK  status: ('A' for Active; 'I' for Inactive)
REMARK    1  A    between atoms: C_1  and  O_2
REMARK    2  A    between atoms: O_2  and  C_3
REMARK    3  A    between atoms: C_6  and  N_7
REMARK    4  A    between atoms: C_9  and  C_10
REMARK    5  A    between atoms: N_12  and  C_13
REMARK    6  A    between atoms: C_16  and  C_17
REMARK    7  A    between atoms: C_22  and  C_23
REMARK                            x       y       z     vdW  Elec       q    Type
REMARK                         _______ _______ _______ _____ _____    ______ ____
ROOT
ATOM      1  N   UNL     1       3.869   6.733  17.945  0.00  0.00    +0.000 N 
ATOM      2  N   UNL     1       3.492   8.037  17.805  0.00  0.00    +0.000 NA
ATOM      3  C   UNL     1       2.394   8.155  18.567  0.00  0.00    +0.000 A 
ATOM      4  C   UNL     1       2.163   6.970  19.306  0.00  0.00    +0.000 A 
ATOM      5  C   UNL     1       3.155   6.076  18.951  0.00  0.00    +0.000 A 
ENDROOT
BRANCH   1   9
ATOM      6  C   UNL     1       6.817   5.122  15.391  0.00  0.00    +0.000 A 
ATOM      7  C   UNL     1       7.139   6.134  16.300  0.00  0.00    +0.000 A 
ATOM      8  C   UNL     1       6.161   6.686  17.131  0.00  0.00    +0.000 A 
ATOM      9  C   UNL     1       4.849   6.207  17.062  0.00  0.00    +0.000 A 
ATOM     10  C   UNL     1       4.513   5.221  16.127  0.00  0.00    +0.000 A 
ATOM     11  C   UNL     1       5.498   4.678  15.298  0.00  0.00    +0.000 A 
BRANCH   6  13
ATOM     12  C   UNL     1       7.823   5.050  13.252  0.00  0.00    +0.000 C 
ATOM     13  O   UNL     1       7.857   4.677  14.625  0.00  0.00    +0.000 OA
ENDBRANCH   6  13
ENDBRANCH   1   9
BRANCH   5  14
ATOM     14  C   UNL     1       3.434   4.746  19.523  0.00  0.00    +0.000 A 
ATOM     15  C   UNL     1       2.442   4.037  20.210  0.00  0.00    +0.000 A 
ATOM     16  C   UNL     1       2.704   2.760  20.709  0.00  0.00    +0.000 A 
ATOM     17  C   UNL     1       3.961   2.219  20.507  0.00  0.00    +0.000 A 
ATOM     18  N   UNL     1       4.961   2.877  19.890  0.00  0.00    +0.000 NA
ATOM     19  C   UNL     1       4.683   4.125  19.440  0.00  0.00    +0.000 A 
ENDBRANCH   5  14
BRANCH   3  20
ATOM     20  C   UNL     1       1.568   9.371  18.629  0.00  0.00    +0.000 C 
ATOM     21  O   UNL     1       1.815  10.313  17.880  0.00  0.00    +0.000 OA
ATOM     22  N   UNL     1       0.582   9.347  19.598  0.00  0.00    +0.000 N 
ATOM     23  H   UNL     1       0.607   8.534  20.211  0.00  0.00    +0.000 HD
BRANCH  22  24
ATOM     24  C   UNL     1      -0.383  10.348  19.840  0.00  0.00    +0.000 A 
ATOM     25  C   UNL     1      -1.328  10.724  18.882  0.00  0.00    +0.000 A 
ATOM     26  C   UNL     1      -2.285  11.704  19.154  0.00  0.00    +0.000 A 
ATOM     27  C   UNL     1      -2.320  12.343  20.395  0.00  0.00    +0.000 A 
ATOM     28  C   UNL     1      -3.384  13.376  20.651  0.00  0.00    +0.000 C 
ATOM     29  C   UNL     1      -1.366  11.980  21.355  0.00  0.00    +0.000 A 
ATOM     30 CL   UNL     1      -1.318  12.751  22.903  0.00  0.00    +0.000 Cl
ATOM     31  C   UNL     1      -0.413  10.982  21.085  0.00  0.00    +0.000 A 
ENDBRANCH  22  24
ENDBRANCH   3  20
TORSDOF 5
ENDMDL
MODEL 7
REMARK VINA RESULT:      -7.7      1.658      1.993
REMARK  Name = 
REMARK  7 active torsions:
REMARK  status: ('A' for Active; 'I' for Inactive)
REMARK    1  A    between atoms: C_1  and  O_2
REMARK    2  A    between atoms: O_2  and  C_3
REMARK    3  A    between atoms: C_6  and  N_7
REMARK    4  A    between atoms: C_9  and  C_10
REMARK    5  A    between atoms: N_12  and  C_13
REMARK    6  A    between atoms: C_16  and  C_17
REMARK    7  A    between atoms: C_22  and  C_23
REMARK                            x       y       z     vdW  Elec       q    Type
REMARK                         _______ _______ _______ _____ _____    ______ ____
ROOT
ATOM      1  N   UNL     1       3.917   5.968  18.627  0.00  0.00    +0.000 N 
ATOM      2  N   UNL     1       3.472   7.210  18.980  0.00  0.00    +0.000 NA
ATOM      3  C   UNL     1       2.368   6.979  19.707  0.00  0.00    +0.000 A 
ATOM      4  C   UNL     1       2.198   5.594  19.940  0.00  0.00    +0.000 A 
ATOM      5  C   UNL     1       3.236   4.948  19.296  0.00  0.00    +0.000 A 
ENDROOT
BRANCH   1   9
ATOM      6  C   UNL     1       6.875   5.722  15.628  0.00  0.00    +0.000 A 
ATOM      7  C   UNL     1       5.577   5.262  15.387  0.00  0.00    +0.000 A 
ATOM      8  C   UNL     1       4.601   5.321  16.384  0.00  0.00    +0.000 A 
ATOM      9  C   UNL     1       4.925   5.861  17.633  0.00  0.00    +0.000 A 
ATOM     10  C   UNL     1       6.233   6.288  17.892  0.00  0.00    +0.000 A 
ATOM     11  C   UNL     1       7.202   6.221  16.889  0.00  0.00    +0.000 A 
BRANCH   6  13
ATOM     12  C   UNL     1       7.266   4.843  13.467  0.00  0.00    +0.000 C 
ATOM     13  O   UNL     1       7.741   5.595  14.578  0.00  0.00    +0.000 OA
ENDBRANCH   6  13
ENDBRANCH   1   9
BRANCH   5  14
ATOM     14  C   UNL     1       3.583   3.515  19.332  0.00  0.00    +0.000 A 
ATOM     15  C   UNL     1       3.041   2.621  18.401  0.00  0.00    +0.000 A 
ATOM     16  C   UNL     1       3.411   1.275  18.417  0.00  0.00    +0.000 A 
ATOM     17  C   UNL     1       4.321   0.853  19.368  0.00  0.00    +0.000 A 
ATOM     18  N   UNL     1       4.837   1.664  20.311  0.00  0.00    +0.000 NA
ATOM     19  C   UNL     1       4.438   2.960  20.286  0.00  0.00    +0.000 A 
ENDBRANCH   5  14
BRANCH   3  20
ATOM     20  C   UNL     1       1.480   8.041  20.203  0.00  0.00    +0.000 C 
ATOM     21  O   UNL     1       0.930   7.914  21.295  0.00  0.00    +0.000 OA
ATOM     22  N   UNL     1       1.311   9.102  19.333  0.00  0.00    +0.000 N 
ATOM     23  H   UNL     1       1.743   8.977  18.420  0.00  0.00    +0.000 HD
BRANCH  22  24
ATOM     24  C   UNL     1       0.563  10.276  19.573  0.00  0.00    +0.000 A 
ATOM     25  C   UNL     1       1.046  11.323  20.362  0.00  0.00    +0.000 A 
ATOM     26  C   UNL     1       0.295  12.482  20.567  0.00  0.00    +0.000 A 
ATOM     27  C   UNL     1      -0.970  12.624  19.993  0.00  0.00    +0.000 A 
ATOM     28  C   UNL     1      -1.734  13.900  20.223  0.00  0.00    +0.000 C 
ATOM     29  C   UNL     1      -1.465  11.571  19.212  0.00  0.00    +0.000 A 
ATOM     30 CL   UNL     1      -3.038  11.653  18.497  0.00  0.00    +0.000 Cl
ATOM     31  C   UNL     1      -0.701  10.411  18.993  0.00  0.00    +0.000 A 
ENDBRANCH  22  24
ENDBRANCH   3  20
TORSDOF 5
ENDMDL
MODEL 8
REMARK VINA RESULT:      -7.7      3.700     10.601
REMARK  Name = 
REMARK  7 active torsions:
REMARK  status: ('A' for Active; 'I' for Inactive)
REMARK    1  A    between atoms: C_1  and  O_2
REMARK    2  A    between atoms: O_2  and  C_3
REMARK    3  A    between atoms: C_6  and  N_7
REMARK    4  A    between atoms: C_9  and  C_10
REMARK    5  A    between atoms: N_12  and  C_13
REMARK    6  A    between atoms: C_16  and  C_17
REMARK    7  A    between atoms: C_22  and  C_23
REMARK                            x       y       z     vdW  Elec       q    Type
REMARK                         _______ _______ _______ _____ _____    ______ ____
ROOT
ATOM      1  N   UNL     1      -0.139  11.425  20.386  0.00  0.00    +0.000 N 
ATOM      2  N   UNL     1       0.190  10.100  20.385  0.00  0.00    +0.000 NA
ATOM      3  C   UNL     1       1.074   9.972  19.383  0.00  0.00    +0.000 A 
ATOM      4  C   UNL     1       1.418  11.236  18.850  0.00  0.00    +0.000 A 
ATOM      5  C   UNL     1       0.682  12.178  19.542  0.00  0.00    +0.000 A 
ENDROOT
BRANCH   1   9
ATOM      6  C   UNL     1      -3.492  12.616  22.652  0.00  0.00    +0.000 A 
ATOM      7  C   UNL     1      -3.497  12.735  21.259  0.00  0.00    +0.000 A 
ATOM      8  C   UNL     1      -2.380  12.363  20.508  0.00  0.00    +0.000 A 
ATOM      9  C   UNL     1      -1.253  11.851  21.157  0.00  0.00    +0.000 A 
ATOM     10  C   UNL     1      -1.228  11.766  22.554  0.00  0.00    +0.000 A 
ATOM     11  C   UNL     1      -2.349  12.144  23.297  0.00  0.00    +0.000 A 
BRANCH   6  13
ATOM     12  C   UNL     1      -4.833  12.550  24.601  0.00  0.00    +0.000 C 
ATOM     13  O   UNL     1      -4.638  13.027  23.274  0.00  0.00    +0.000 OA
ENDBRANCH   6  13
ENDBRANCH   1   9
BRANCH   5  14
ATOM     14  C   UNL     1       0.763  13.648  19.453  0.00  0.00    +0.000 A 
ATOM     15  C   UNL     1      -0.162  14.373  18.692  0.00  0.00    +0.000 A 
ATOM     16  C   UNL     1      -0.103  15.768  18.651  0.00  0.00    +0.000 A 
ATOM     17  C   UNL     1       0.886  16.407  19.377  0.00  0.00    +0.000 A 
ATOM     18  N   UNL     1       1.823  15.753  20.089  0.00  0.00    +0.000 NA
ATOM     19  C   UNL     1       1.755  14.399  20.088  0.00  0.00    +0.000 A 
ENDBRANCH   5  14
BRANCH   3  20
ATOM     20  C   UNL     1       1.617   8.681  18.932  0.00  0.00    +0.000 C 
ATOM     21  O   UNL     1       1.801   8.484  17.733  0.00  0.00    +0.000 OA
ATOM     22  N   UNL     1       1.832   7.765  19.943  0.00  0.00    +0.000 N 
ATOM     23  H   UNL     1       1.502   8.057  20.861  0.00  0.00    +0.000 HD
BRANCH  22  24
ATOM     24  C   UNL     1       2.395   6.477  19.805  0.00  0.00    +0.000 A 
ATOM     25  C   UNL     1       3.477   6.219  18.959  0.00  0.00    +0.000 A 
ATOM     26  C   UNL     1       4.027   4.940  18.855  0.00  0.00    +0.000 A 
ATOM     27  C   UNL     1       3.505   3.876  19.593  0.00  0.00    +0.000 A 
ATOM     28  C   UNL     1       4.145   2.520  19.467  0.00  0.00    +0.000 C 
ATOM     29  C   UNL     1       2.411   4.125  20.433  0.00  0.00    +0.000 A 
ATOM     30 CL   UNL     1       1.682   2.853  21.351  0.00  0.00    +0.000 Cl
ATOM     31  C   UNL     1       1.868   5.417  20.548  0.00  0.00    +0.000 A 
ENDBRANCH  22  24
ENDBRANCH   3  20
TORSDOF 5
ENDMDL
MODEL 9
REMARK VINA RESULT:      -7.6      1.530      1.864
REMARK  Name = 
REMARK  7 active torsions:
REMARK  status: ('A' for Active; 'I' for Inactive)
REMARK    1  A    between atoms: C_1  and  O_2
REMARK    2  A    between atoms: O_2  and  C_3
REMARK    3  A    between atoms: C_6  and  N_7
REMARK    4  A    between atoms: C_9  and  C_10
REMARK    5  A    between atoms: N_12  and  C_13
REMARK    6  A    between atoms: C_16  and  C_17
REMARK    7  A    between atoms: C_22  and  C_23
REMARK                            x       y       z     vdW  Elec       q    Type
REMARK                         _______ _______ _______ _____ _____    ______ ____
ROOT
ATOM      1  N   UNL     1       3.790   6.652  17.572  0.00  0.00    +0.000 N 
ATOM      2  N   UNL     1       3.556   7.992  17.683  0.00  0.00    +0.000 NA
ATOM      3  C   UNL     1       2.363   8.077  18.292  0.00  0.00    +0.000 A 
ATOM      4  C   UNL     1       1.913   6.799  18.701  0.00  0.00    +0.000 A 
ATOM      5  C   UNL     1       2.867   5.888  18.291  0.00  0.00    +0.000 A 
ENDROOT
BRANCH   1   9
ATOM      6  C   UNL     1       6.968   5.284  15.157  0.00  0.00    +0.000 A 
ATOM      7  C   UNL     1       7.211   6.146  16.230  0.00  0.00    +0.000 A 
ATOM      8  C   UNL     1       6.159   6.619  17.018  0.00  0.00    +0.000 A 
ATOM      9  C   UNL     1       4.851   6.211  16.737  0.00  0.00    +0.000 A 
ATOM     10  C   UNL     1       4.598   5.379  15.640  0.00  0.00    +0.000 A 
ATOM     11  C   UNL     1       5.657   4.914  14.856  0.00  0.00    +0.000 A 
BRANCH   6  13
ATOM     12  C   UNL     1       8.159   5.379  13.115  0.00  0.00    +0.000 C 
ATOM     13  O   UNL     1       8.078   4.905  14.454  0.00  0.00    +0.000 OA
ENDBRANCH   6  13
ENDBRANCH   1   9
BRANCH   5  14
ATOM     14  C   UNL     1       2.933   4.442  18.577  0.00  0.00    +0.000 A 
ATOM     15  C   UNL     1       3.875   3.931  19.478  0.00  0.00    +0.000 A 
ATOM     16  C   UNL     1       3.899   2.566  19.774  0.00  0.00    +0.000 A 
ATOM     17  C   UNL     1       2.975   1.742  19.159  0.00  0.00    +0.000 A 
ATOM     18  N   UNL     1       2.079   2.179  18.254  0.00  0.00    +0.000 NA
ATOM     19  C   UNL     1       2.098   3.504  17.968  0.00  0.00    +0.000 A 
ENDBRANCH   5  14
BRANCH   3  20
ATOM     20  C   UNL     1       1.647   9.342  18.516  0.00  0.00    +0.000 C 
ATOM     21  O   UNL     1       2.066  10.378  18.002  0.00  0.00    +0.000 OA
ATOM     22  N   UNL     1       0.553   9.243  19.354  0.00  0.00    +0.000 N 
ATOM     23  H   UNL     1       0.431   8.330  19.788  0.00  0.00    +0.000 HD
BRANCH  22  24
ATOM     24  C   UNL     1      -0.342  10.281  19.695  0.00  0.00    +0.000 A 
ATOM     25  C   UNL     1      -1.276  10.792  18.790  0.00  0.00    +0.000 A 
ATOM     26  C   UNL     1      -2.163  11.805  19.159  0.00  0.00    +0.000 A 
ATOM     27  C   UNL     1      -2.138  12.343  20.447  0.00  0.00    +0.000 A 
ATOM     28  C   UNL     1      -3.128  13.417  20.807  0.00  0.00    +0.000 C 
ATOM     29  C   UNL     1      -1.195  11.843  21.355  0.00  0.00    +0.000 A 
ATOM     30 CL   UNL     1      -1.073  12.482  22.958  0.00  0.00    +0.000 Cl
ATOM     31  C   UNL     1      -0.312  10.812  20.987  0.00  0.00    +0.000 A 
ENDBRANCH  22  24
ENDBRANCH   3  20
TORSDOF 5
ENDMDL
