MODEL 1
REMARK VINA RESULT:      -8.4      0.000      0.000
REMARK  Name = 
REMARK  7 active torsions:
REMARK  status: ('A' for Active; 'I' for Inactive)
REMARK    1  A    between atoms: C_1  and  S_2
REMARK    2  A    between atoms: S_2  and  N_5
REMARK    3  A    between atoms: N_5  and  C_6
REMARK    4  A    between atoms: C_11  and  C_12
REMARK    5  A    between atoms: C_12  and  N_13
REMARK    6  A    between atoms: N_13  and  C_14
REMARK    7  A    between atoms: C_20  and  C_21
REMARK                            x       y       z     vdW  Elec       q    Type
REMARK                         _______ _______ _______ _____ _____    ______ ____
ROOT
ATOM      1  C   UNL     1       3.862   3.815  17.283  0.00  0.00    +0.000 A 
ATOM      2  C   UNL     1       3.770   2.565  17.908  0.00  0.00    +0.000 A 
ATOM      3  C   UNL     1       3.234   2.414  19.195  0.00  0.00    +0.000 A 
ATOM      4  C   UNL     1       2.779   3.569  19.830  0.00  0.00    +0.000 A 
ATOM      5  N   UNL     1       2.181   3.769  21.042  0.00  0.00    +0.000 N 
ATOM      6  N   UNL     1       1.841   5.044  21.288  0.00  0.00    +0.000 NA
ATOM      7  C   UNL     1       2.185   5.698  20.165  0.00  0.00    +0.000 A 
ATOM      8  C   UNL     1       2.858   4.829  19.254  0.00  0.00    +0.000 A 
ATOM      9  C   UNL     1       3.468   4.959  17.991  0.00  0.00    +0.000 A 
ATOM     10  H   UNL     1       1.955   3.071  21.741  0.00  0.00    +0.000 HD
ENDROOT
BRANCH   7  11
ATOM     11  C   UNL     1       1.799   7.087  19.959  0.00  0.00    +0.000 A 
ATOM     12  C   UNL     1       2.046   7.750  18.764  0.00  0.00    +0.000 A 
ATOM     13  C   UNL     1       1.718   9.103  18.645  0.00  0.00    +0.000 A 
ATOM     14  C   UNL     1       1.170   9.791  19.727  0.00  0.00    +0.000 A 
ATOM     15  N   UNL     1       0.819  11.113  19.659  0.00  0.00    +0.000 N 
ATOM     16  C   UNL     1       0.521  11.816  18.417  0.00  0.00    +0.000 C 
ATOM     17  C   UNL     1      -0.624  12.823  18.675  0.00  0.00    +0.000 C 
ATOM     18  N   UNL     1      -0.358  13.761  19.786  0.00  0.00    +0.000 NA
ATOM     19  C   UNL     1      -0.010  12.998  21.006  0.00  0.00    +0.000 C 
ATOM     20  C   UNL     1       1.132  11.980  20.800  0.00  0.00    +0.000 C 
ATOM     21  N   UNL     1       0.932   9.154  20.894  0.00  0.00    +0.000 NA
ATOM     22  C   UNL     1       1.242   7.838  20.984  0.00  0.00    +0.000 A 
ATOM     23  H   UNL     1      -1.206  14.294  19.972  0.00  0.00    +0.000 HD
ENDBRANCH   7  11
BRANCH   1  24
ATOM     24  N   UNL     1       4.370   4.014  15.991  0.00  0.00    +0.000 N 
ATOM     25  H   UNL     1       4.616   4.996  15.866  0.00  0.00    +0.000 HD
BRANCH  24  26
ATOM     26  C   UNL     1       5.462   3.141  15.565  0.00  0.00    +0.000 C 
BRANCH  26  32
ATOM     27  C   UNL     1       7.286   4.744  14.772  0.00  0.00    +0.000 A 
ATOM     28  C   UNL     1       7.928   5.435  13.742  0.00  0.00    +0.000 A 
ATOM     29  C   UNL     1       7.582   5.189  12.412  0.00  0.00    +0.000 A 
ATOM     30  C   UNL     1       6.595   4.255  12.111  0.00  0.00    +0.000 A 
ATOM     31  C   UNL     1       5.939   3.575  13.138  0.00  0.00    +0.000 A 
ATOM     32  C   UNL     1       6.266   3.818  14.482  0.00  0.00    +0.000 A 
BRANCH  27  33
ATOM     33  N   UNL     1       7.632   5.053  16.132  0.00  0.00    +0.000 N 
ATOM     34  H   UNL     1       7.379   4.283  16.769  0.00  0.00    +0.000 HD
BRANCH  33  36
ATOM     35  C   UNL     1       6.691   6.037  18.452  0.00  0.00    +0.000 C 
ATOM     36  S   UNL     1       6.996   6.498  16.757  0.00  0.00    +0.000 S 
ATOM     37  O   UNL     1       5.715   6.685  16.118  0.00  0.00    +0.000 OA
ATOM     38  O   UNL     1       8.005   7.533  16.738  0.00  0.00    +0.000 OA
ENDBRANCH  33  36
ENDBRANCH  27  33
ENDBRANCH  26  32
ENDBRANCH  24  26
ENDBRANCH   1  24
TORSDOF 6
ENDMDL
MODEL 2
REMARK VINA RESULT:      -8.4      0.730      1.317
REMARK  Name = 
REMARK  7 active torsions:
REMARK  status: ('A' for Active; 'I' for Inactive)
REMARK    1  A    between atoms: C_1  and  S_2
REMARK    2  A    between atoms: S_2  and  N_5
REMARK    3  A    between atoms: N_5  and  C_6
REMARK    4  A    between atoms: C_11  and  C_12
REMARK    5  A    between atoms: C_12  and  N_13
REMARK    6  A    between atoms: N_13  and  C_14
REMARK    7  A    between atoms: C_20  and  C_21
REMARK                            x       y       z     vdW  Elec       q    Type
REMARK                         _______ _______ _______ _____ _____    ______ ____
ROOT
ATOM      1  C   UNL     1       3.815   3.632  17.253  0.00  0.00    +0.000 A 
ATOM      2  C   UNL     1       3.582   2.309  17.651  0.00  0.00    +0.000 A 
ATOM      3  C   UNL     1       2.929   1.998  18.852  0.00  0.00    +0.000 A 
ATOM      4  C   UNL     1       2.504   3.070  19.637  0.00  0.00    +0.000 A 
ATOM      5  N   UNL     1       1.820   3.121  20.819  0.00  0.00    +0.000 N 
ATOM      6  N   UNL     1       1.552   4.363  21.250  0.00  0.00    +0.000 NA
ATOM      7  C   UNL     1       2.035   5.159  20.280  0.00  0.00    +0.000 A 
ATOM      8  C   UNL     1       2.720   4.395  19.287  0.00  0.00    +0.000 A 
ATOM      9  C   UNL     1       3.444   4.675  18.111  0.00  0.00    +0.000 A 
ATOM     10  H   UNL     1       1.487   2.341  21.372  0.00  0.00    +0.000 HD
ENDROOT
BRANCH   7  11
ATOM     11  C   UNL     1       1.767   6.590  20.281  0.00  0.00    +0.000 A 
ATOM     12  C   UNL     1       1.040   7.202  21.294  0.00  0.00    +0.000 A 
ATOM     13  C   UNL     1       0.753   8.567  21.209  0.00  0.00    +0.000 A 
ATOM     14  C   UNL     1       1.169   9.305  20.102  0.00  0.00    +0.000 A 
ATOM     15  N   UNL     1       0.924  10.646  19.975  0.00  0.00    +0.000 N 
ATOM     16  C   UNL     1       0.657  11.536  21.099  0.00  0.00    +0.000 C 
ATOM     17  C   UNL     1       1.313  12.909  20.815  0.00  0.00    +0.000 C 
ATOM     18  N   UNL     1       0.907  13.513  19.528  0.00  0.00    +0.000 NA
ATOM     19  C   UNL     1       1.150  12.549  18.431  0.00  0.00    +0.000 C 
ATOM     20  C   UNL     1       0.512  11.162  18.666  0.00  0.00    +0.000 C 
ATOM     21  N   UNL     1       1.871   8.715  19.111  0.00  0.00    +0.000 NA
ATOM     22  C   UNL     1       2.155   7.395  19.219  0.00  0.00    +0.000 A 
ATOM     23  H   UNL     1       1.479  14.339  19.362  0.00  0.00    +0.000 HD
ENDBRANCH   7  11
BRANCH   1  24
ATOM     24  N   UNL     1       4.444   3.993  16.053  0.00  0.00    +0.000 N 
ATOM     25  H   UNL     1       4.748   4.966  16.103  0.00  0.00    +0.000 HD
BRANCH  24  26
ATOM     26  C   UNL     1       5.526   3.129  15.582  0.00  0.00    +0.000 C 
BRANCH  26  32
ATOM     27  C   UNL     1       7.297   4.794  14.797  0.00  0.00    +0.000 A 
ATOM     28  C   UNL     1       7.919   5.506  13.770  0.00  0.00    +0.000 A 
ATOM     29  C   UNL     1       7.589   5.248  12.439  0.00  0.00    +0.000 A 
ATOM     30  C   UNL     1       6.636   4.280  12.133  0.00  0.00    +0.000 A 
ATOM     31  C   UNL     1       5.999   3.578  13.157  0.00  0.00    +0.000 A 
ATOM     32  C   UNL     1       6.311   3.833  14.502  0.00  0.00    +0.000 A 
BRANCH  27  33
ATOM     33  N   UNL     1       7.625   5.116  16.158  0.00  0.00    +0.000 N 
ATOM     34  H   UNL     1       7.415   4.330  16.792  0.00  0.00    +0.000 HD
BRANCH  33  36
ATOM     35  C   UNL     1       6.616   6.029  18.479  0.00  0.00    +0.000 C 
ATOM     36  S   UNL     1       6.908   6.520  16.790  0.00  0.00    +0.000 S 
ATOM     37  O   UNL     1       5.624   6.644  16.143  0.00  0.00    +0.000 OA
ATOM     38  O   UNL     1       7.861   7.607  16.786  0.00  0.00    +0.000 OA
ENDBRANCH  33  36
ENDBRANCH  27  33
ENDBRANCH  26  32
ENDBRANCH  24  26
ENDBRANCH   1  24
TORSDOF 6
ENDMDL
MODEL 3
REMARK VINA RESULT:      -8.4      3.885      9.632
REMARK  Name = 
REMARK  7 active torsions:
REMARK  status: ('A' for Active; 'I' for Inactive)
REMARK    1  A    between atoms: C_1  and  S_2
REMARK    2  A    between atoms: S_2  and  N_5
REMARK    3  A    between atoms: N_5  and  C_6
REMARK    4  A    between atoms: C_11  and  C_12
REMARK    5  A    between atoms: C_12  and  N_13
REMARK    6  A    between atoms: N_13  and  C_14
REMARK    7  A    between atoms: C_20  and  C_21
REMARK                            x       y       z     vdW  Elec       q    Type
REMARK                         _______ _______ _______ _____ _____    ______ ____
ROOT
ATOM      1  C   UNL     1       1.326   9.353  18.936  0.00  0.00    +0.000 A 
ATOM      2  C   UNL     1       0.997   9.308  20.296  0.00  0.00    +0.000 A 
ATOM      3  C   UNL     1       1.267   8.183  21.090  0.00  0.00    +0.000 A 
ATOM      4  C   UNL     1       1.894   7.105  20.467  0.00  0.00    +0.000 A 
ATOM      5  N   UNL     1       2.325   5.899  20.944  0.00  0.00    +0.000 N 
ATOM      6  N   UNL     1       2.934   5.128  20.030  0.00  0.00    +0.000 NA
ATOM      7  C   UNL     1       2.950   5.885  18.919  0.00  0.00    +0.000 A 
ATOM      8  C   UNL     1       2.231   7.102  19.121  0.00  0.00    +0.000 A 
ATOM      9  C   UNL     1       1.881   8.216  18.333  0.00  0.00    +0.000 A 
ATOM     10  H   UNL     1       2.252   5.550  21.892  0.00  0.00    +0.000 HD
ENDROOT
BRANCH   7  11
ATOM     11  C   UNL     1       3.704   5.474  17.743  0.00  0.00    +0.000 A 
ATOM     12  C   UNL     1       3.759   4.150  17.329  0.00  0.00    +0.000 A 
ATOM     13  C   UNL     1       4.555   3.802  16.234  0.00  0.00    +0.000 A 
ATOM     14  C   UNL     1       5.311   4.772  15.578  0.00  0.00    +0.000 A 
ATOM     15  N   UNL     1       6.097   4.487  14.494  0.00  0.00    +0.000 N 
ATOM     16  C   UNL     1       5.899   3.334  13.624  0.00  0.00    +0.000 C 
ATOM     17  C   UNL     1       6.224   3.746  12.168  0.00  0.00    +0.000 C 
ATOM     18  N   UNL     1       7.568   4.337  11.998  0.00  0.00    +0.000 NA
ATOM     19  C   UNL     1       7.735   5.466  12.941  0.00  0.00    +0.000 C 
ATOM     20  C   UNL     1       7.425   5.105  14.409  0.00  0.00    +0.000 C 
ATOM     21  N   UNL     1       5.267   6.061  15.980  0.00  0.00    +0.000 NA
ATOM     22  C   UNL     1       4.477   6.382  17.032  0.00  0.00    +0.000 A 
ATOM     23  H   UNL     1       7.648   4.697  11.048  0.00  0.00    +0.000 HD
ENDBRANCH   7  11
BRANCH   1  24
ATOM     24  N   UNL     1       1.096  10.460  18.107  0.00  0.00    +0.000 N 
ATOM     25  H   UNL     1       0.773  10.144  17.192  0.00  0.00    +0.000 HD
BRANCH  24  26
ATOM     26  C   UNL     1       0.232  11.516  18.632  0.00  0.00    +0.000 C 
BRANCH  26  32
ATOM     27  C   UNL     1      -2.270  12.021  18.740  0.00  0.00    +0.000 A 
ATOM     28  C   UNL     1      -3.592  11.656  18.476  0.00  0.00    +0.000 A 
ATOM     29  C   UNL     1      -3.866  10.518  17.716  0.00  0.00    +0.000 A 
ATOM     30  C   UNL     1      -2.821   9.743  17.220  0.00  0.00    +0.000 A 
ATOM     31  C   UNL     1      -1.499  10.094  17.496  0.00  0.00    +0.000 A 
ATOM     32  C   UNL     1      -1.205  11.229  18.269  0.00  0.00    +0.000 A 
BRANCH  27  33
ATOM     33  N   UNL     1      -2.022  13.171  19.564  0.00  0.00    +0.000 N 
ATOM     34  H   UNL     1      -1.122  13.616  19.328  0.00  0.00    +0.000 HD
BRANCH  33  36
ATOM     35  C   UNL     1      -3.815  13.060  21.566  0.00  0.00    +0.000 C 
ATOM     36  S   UNL     1      -2.068  12.914  21.242  0.00  0.00    +0.000 S 
ATOM     37  O   UNL     1      -1.416  14.052  21.843  0.00  0.00    +0.000 OA
ATOM     38  O   UNL     1      -1.657  11.562  21.547  0.00  0.00    +0.000 OA
ENDBRANCH  33  36
ENDBRANCH  27  33
ENDBRANCH  26  32
ENDBRANCH  24  26
ENDBRANCH   1  24
TORSDOF 6
ENDMDL
MODEL 4
REMARK VINA RESULT:      -8.2      4.599      9.464
REMARK  Name = 
REMARK  7 active torsions:
REMARK  status: ('A' for Active; 'I' for Inactive)
REMARK    1  A    between atoms: C_1  and  S_2
REMARK    2  A    between atoms: S_2  and  N_5
REMARK    3  A    between atoms: N_5  and  C_6
REMARK    4  A    between atoms: C_11  and  C_12
REMARK    5  A    between atoms: C_12  and  N_13
REMARK    6  A    between atoms: N_13  and  C_14
REMARK    7  A    between atoms: C_20  and  C_21
REMARK                            x       y       z     vdW  Elec       q    Type
REMARK                         _______ _______ _______ _____ _____    ______ ____
ROOT
ATOM      1  C   UNL     1       2.453  13.740  18.146  0.00  0.00    +0.000 A 
ATOM      2  C   UNL     1       1.443  14.529  18.710  0.00  0.00    +0.000 A 
ATOM      3  C   UNL     1       0.311  13.966  19.316  0.00  0.00    +0.000 A 
ATOM      4  C   UNL     1       0.236  12.573  19.347  0.00  0.00    +0.000 A 
ATOM      5  N   UNL     1      -0.687  11.720  19.882  0.00  0.00    +0.000 N 
ATOM      6  N   UNL     1      -0.384  10.420  19.746  0.00  0.00    +0.000 NA
ATOM      7  C   UNL     1       0.818  10.424  19.144  0.00  0.00    +0.000 A 
ATOM      8  C   UNL     1       1.209  11.753  18.795  0.00  0.00    +0.000 A 
ATOM      9  C   UNL     1       2.298  12.347  18.127  0.00  0.00    +0.000 A 
ATOM     10  H   UNL     1      -1.539  11.963  20.373  0.00  0.00    +0.000 HD
ENDROOT
BRANCH   7  11
ATOM     11  C   UNL     1       1.585   9.196  18.992  0.00  0.00    +0.000 A 
ATOM     12  C   UNL     1       2.271   8.895  17.822  0.00  0.00    +0.000 A 
ATOM     13  C   UNL     1       2.932   7.670  17.706  0.00  0.00    +0.000 A 
ATOM     14  C   UNL     1       2.883   6.743  18.746  0.00  0.00    +0.000 A 
ATOM     15  N   UNL     1       3.524   5.535  18.688  0.00  0.00    +0.000 N 
ATOM     16  C   UNL     1       4.665   5.257  17.823  0.00  0.00    +0.000 C 
ATOM     17  C   UNL     1       5.642   4.319  18.572  0.00  0.00    +0.000 C 
ATOM     18  N   UNL     1       5.016   3.076  19.071  0.00  0.00    +0.000 NA
ATOM     19  C   UNL     1       3.834   3.414  19.896  0.00  0.00    +0.000 C 
ATOM     20  C   UNL     1       2.826   4.347  19.192  0.00  0.00    +0.000 C 
ATOM     21  N   UNL     1       2.213   7.027  19.884  0.00  0.00    +0.000 NA
ATOM     22  C   UNL     1       1.592   8.226  19.985  0.00  0.00    +0.000 A 
ATOM     23  H   UNL     1       5.689   2.586  19.658  0.00  0.00    +0.000 HD
ENDBRANCH   7  11
BRANCH   1  24
ATOM     24  N   UNL     1       3.612  14.255  17.548  0.00  0.00    +0.000 N 
ATOM     25  H   UNL     1       3.467  14.354  16.543  0.00  0.00    +0.000 HD
BRANCH  24  26
ATOM     26  C   UNL     1       4.167  15.481  18.121  0.00  0.00    +0.000 C 
BRANCH  26  32
ATOM     27  C   UNL     1       5.541  15.430  20.274  0.00  0.00    +0.000 A 
ATOM     28  C   UNL     1       6.758  15.227  20.930  0.00  0.00    +0.000 A 
ATOM     29  C   UNL     1       7.856  14.726  20.231  0.00  0.00    +0.000 A 
ATOM     30  C   UNL     1       7.742  14.430  18.875  0.00  0.00    +0.000 A 
ATOM     31  C   UNL     1       6.535  14.648  18.211  0.00  0.00    +0.000 A 
ATOM     32  C   UNL     1       5.422  15.161  18.896  0.00  0.00    +0.000 A 
BRANCH  27  33
ATOM     33  N   UNL     1       4.443  15.990  21.011  0.00  0.00    +0.000 N 
ATOM     34  H   UNL     1       4.733  16.826  21.541  0.00  0.00    +0.000 HD
BRANCH  33  36
ATOM     35  C   UNL     1       2.029  15.696  22.160  0.00  0.00    +0.000 C 
ATOM     36  S   UNL     1       3.639  14.936  22.072  0.00  0.00    +0.000 S 
ATOM     37  O   UNL     1       4.270  15.099  23.359  0.00  0.00    +0.000 OA
ATOM     38  O   UNL     1       3.497  13.633  21.462  0.00  0.00    +0.000 OA
ENDBRANCH  33  36
ENDBRANCH  27  33
ENDBRANCH  26  32
ENDBRANCH  24  26
ENDBRANCH   1  24
TORSDOF 6
ENDMDL
MODEL 5
REMARK VINA RESULT:      -8.2      3.383      9.598
REMARK  Name = 
REMARK  7 active torsions:
REMARK  status: ('A' for Active; 'I' for Inactive)
REMARK    1  A    between atoms: C_1  and  S_2
REMARK    2  A    between atoms: S_2  and  N_5
REMARK    3  A    between atoms: N_5  and  C_6
REMARK    4  A    between atoms: C_11  and  C_12
REMARK    5  A    between atoms: C_12  and  N_13
REMARK    6  A    between atoms: N_13  and  C_14
REMARK    7  A    between atoms: C_20  and  C_21
REMARK                            x       y       z     vdW  Elec       q    Type
REMARK                         _______ _______ _______ _____ _____    ______ ____
ROOT
ATOM      1  C   UNL     1       1.244   9.330  18.825  0.00  0.00    +0.000 A 
ATOM      2  C   UNL     1       0.940   9.313  20.192  0.00  0.00    +0.000 A 
ATOM      3  C   UNL     1       1.262   8.223  21.013  0.00  0.00    +0.000 A 
ATOM      4  C   UNL     1       1.915   7.148  20.409  0.00  0.00    +0.000 A 
ATOM      5  N   UNL     1       2.395   5.972  20.912  0.00  0.00    +0.000 N 
ATOM      6  N   UNL     1       3.015   5.195  20.010  0.00  0.00    +0.000 NA
ATOM      7  C   UNL     1       2.985   5.920  18.878  0.00  0.00    +0.000 A 
ATOM      8  C   UNL     1       2.228   7.117  19.058  0.00  0.00    +0.000 A 
ATOM      9  C   UNL     1       1.827   8.195  18.244  0.00  0.00    +0.000 A 
ATOM     10  H   UNL     1       2.351   5.649  21.871  0.00  0.00    +0.000 HD
ENDROOT
BRANCH   7  11
ATOM     11  C   UNL     1       3.732   5.501  17.701  0.00  0.00    +0.000 A 
ATOM     12  C   UNL     1       3.767   4.176  17.283  0.00  0.00    +0.000 A 
ATOM     13  C   UNL     1       4.557   3.819  16.187  0.00  0.00    +0.000 A 
ATOM     14  C   UNL     1       5.327   4.780  15.533  0.00  0.00    +0.000 A 
ATOM     15  N   UNL     1       6.108   4.485  14.447  0.00  0.00    +0.000 N 
ATOM     16  C   UNL     1       5.892   3.337  13.574  0.00  0.00    +0.000 C 
ATOM     17  C   UNL     1       6.222   3.748  12.119  0.00  0.00    +0.000 C 
ATOM     18  N   UNL     1       7.575   4.319  11.950  0.00  0.00    +0.000 NA
ATOM     19  C   UNL     1       7.758   5.444  12.895  0.00  0.00    +0.000 C 
ATOM     20  C   UNL     1       7.444   5.084  14.363  0.00  0.00    +0.000 C 
ATOM     21  N   UNL     1       5.302   6.068  15.937  0.00  0.00    +0.000 NA
ATOM     22  C   UNL     1       4.518   6.398  16.991  0.00  0.00    +0.000 A 
ATOM     23  H   UNL     1       7.658   4.680  11.000  0.00  0.00    +0.000 HD
ENDBRANCH   7  11
BRANCH   1  24
ATOM     24  N   UNL     1       0.962  10.404  17.969  0.00  0.00    +0.000 N 
ATOM     25  H   UNL     1      -0.044  10.457  17.803  0.00  0.00    +0.000 HD
BRANCH  24  26
ATOM     26  C   UNL     1       1.501  11.711  18.342  0.00  0.00    +0.000 C 
BRANCH  26  32
ATOM     27  C   UNL     1      -0.746  12.739  18.989  0.00  0.00    +0.000 A 
ATOM     28  C   UNL     1      -1.532  13.465  19.886  0.00  0.00    +0.000 A 
ATOM     29  C   UNL     1      -1.024  13.819  21.137  0.00  0.00    +0.000 A 
ATOM     30  C   UNL     1       0.271  13.450  21.491  0.00  0.00    +0.000 A 
ATOM     31  C   UNL     1       1.067  12.740  20.591  0.00  0.00    +0.000 A 
ATOM     32  C   UNL     1       0.575  12.385  19.325  0.00  0.00    +0.000 A 
BRANCH  27  33
ATOM     33  N   UNL     1      -1.282  12.431  17.692  0.00  0.00    +0.000 N 
ATOM     34  H   UNL     1      -1.642  13.276  17.224  0.00  0.00    +0.000 HD
BRANCH  33  36
ATOM     35  C   UNL     1      -2.592  10.918  15.894  0.00  0.00    +0.000 C 
ATOM     36  S   UNL     1      -2.488  11.236  17.645  0.00  0.00    +0.000 S 
ATOM     37  O   UNL     1      -3.714  11.883  18.045  0.00  0.00    +0.000 OA
ATOM     38  O   UNL     1      -2.020  10.036  18.302  0.00  0.00    +0.000 OA
ENDBRANCH  33  36
ENDBRANCH  27  33
ENDBRANCH  26  32
ENDBRANCH  24  26
ENDBRANCH   1  24
TORSDOF 6
ENDMDL
MODEL 6
REMARK VINA RESULT:      -8.1      4.529      9.046
REMARK  Name = 
REMARK  7 active torsions:
REMARK  status: ('A' for Active; 'I' for Inactive)
REMARK    1  A    between atoms: C_1  and  S_2
REMARK    2  A    between atoms: S_2  and  N_5
REMARK    3  A    between atoms: N_5  and  C_6
REMARK    4  A    between atoms: C_11  and  C_12
REMARK    5  A    between atoms: C_12  and  N_13
REMARK    6  A    between atoms: N_13  and  C_14
REMARK    7  A    between atoms: C_20  and  C_21
REMARK                            x       y       z     vdW  Elec       q    Type
REMARK                         _______ _______ _______ _____ _____    ______ ____
ROOT
ATOM      1  C   UNL     1       2.524  13.987  18.230  0.00  0.00    +0.000 A 
ATOM      2  C   UNL     1       1.562  14.796  18.846  0.00  0.00    +0.000 A 
ATOM      3  C   UNL     1       0.432  14.259  19.478  0.00  0.00    +0.000 A 
ATOM      4  C   UNL     1       0.309  12.869  19.481  0.00  0.00    +0.000 A 
ATOM      5  N   UNL     1      -0.625  12.036  20.029  0.00  0.00    +0.000 N 
ATOM      6  N   UNL     1      -0.373  10.730  19.854  0.00  0.00    +0.000 NA
ATOM      7  C   UNL     1       0.808  10.707  19.210  0.00  0.00    +0.000 A 
ATOM      8  C   UNL     1       1.233  12.029  18.877  0.00  0.00    +0.000 A 
ATOM      9  C   UNL     1       2.319  12.601  18.186  0.00  0.00    +0.000 A 
ATOM     10  H   UNL     1      -1.451  12.297  20.554  0.00  0.00    +0.000 HD
ENDROOT
BRANCH   7  11
ATOM     11  C   UNL     1       1.525   9.457  19.005  0.00  0.00    +0.000 A 
ATOM     12  C   UNL     1       2.111   9.135  17.787  0.00  0.00    +0.000 A 
ATOM     13  C   UNL     1       2.726   7.891  17.625  0.00  0.00    +0.000 A 
ATOM     14  C   UNL     1       2.730   6.967  18.669  0.00  0.00    +0.000 A 
ATOM     15  N   UNL     1       3.329   5.740  18.567  0.00  0.00    +0.000 N 
ATOM     16  C   UNL     1       4.393   5.429  17.619  0.00  0.00    +0.000 C 
ATOM     17  C   UNL     1       5.396   4.463  18.295  0.00  0.00    +0.000 C 
ATOM     18  N   UNL     1       4.774   3.240  18.843  0.00  0.00    +0.000 NA
ATOM     19  C   UNL     1       3.669   3.613  19.755  0.00  0.00    +0.000 C 
ATOM     20  C   UNL     1       2.638   4.574  19.126  0.00  0.00    +0.000 C 
ATOM     21  N   UNL     1       2.157   7.271  19.854  0.00  0.00    +0.000 NA
ATOM     22  C   UNL     1       1.580   8.488  19.998  0.00  0.00    +0.000 A 
ATOM     23  H   UNL     1       5.476   2.731  19.380  0.00  0.00    +0.000 HD
ENDBRANCH   7  11
BRANCH   1  24
ATOM     24  N   UNL     1       3.680  14.475  17.604  0.00  0.00    +0.000 N 
ATOM     25  H   UNL     1       3.660  15.495  17.591  0.00  0.00    +0.000 HD
BRANCH  24  26
ATOM     26  C   UNL     1       4.964  13.982  18.101  0.00  0.00    +0.000 C 
BRANCH  26  32
ATOM     27  C   UNL     1       7.281  15.011  17.790  0.00  0.00    +0.000 A 
ATOM     28  C   UNL     1       8.184  16.052  18.015  0.00  0.00    +0.000 A 
ATOM     29  C   UNL     1       7.759  17.228  18.634  0.00  0.00    +0.000 A 
ATOM     30  C   UNL     1       6.431  17.364  19.030  0.00  0.00    +0.000 A 
ATOM     31  C   UNL     1       5.529  16.320  18.823  0.00  0.00    +0.000 A 
ATOM     32  C   UNL     1       5.943  15.126  18.212  0.00  0.00    +0.000 A 
BRANCH  27  33
ATOM     33  N   UNL     1       7.761  13.796  17.193  0.00  0.00    +0.000 N 
ATOM     34  H   UNL     1       6.982  13.201  16.872  0.00  0.00    +0.000 HD
BRANCH  33  36
ATOM     35  C   UNL     1      10.391  13.318  17.494  0.00  0.00    +0.000 C 
ATOM     36  S   UNL     1       8.800  12.852  18.147  0.00  0.00    +0.000 S 
ATOM     37  O   UNL     1       8.558  11.480  17.772  0.00  0.00    +0.000 OA
ATOM     38  O   UNL     1       8.728  13.278  19.527  0.00  0.00    +0.000 OA
ENDBRANCH  33  36
ENDBRANCH  27  33
ENDBRANCH  26  32
ENDBRANCH  24  26
ENDBRANCH   1  24
TORSDOF 6
ENDMDL
MODEL 7
REMARK VINA RESULT:      -8.0      5.872     11.432
REMARK  Name = 
REMARK  7 active torsions:
REMARK  status: ('A' for Active; 'I' for Inactive)
REMARK    1  A    between atoms: C_1  and  S_2
REMARK    2  A    between atoms: S_2  and  N_5
REMARK    3  A    between atoms: N_5  and  C_6
REMARK    4  A    between atoms: C_11  and  C_12
REMARK    5  A    between atoms: C_12  and  N_13
REMARK    6  A    between atoms: N_13  and  C_14
REMARK    7  A    between atoms: C_20  and  C_21
REMARK                            x       y       z     vdW  Elec       q    Type
REMARK                         _______ _______ _______ _____ _____    ______ ____
ROOT
ATOM      1  C   UNL     1      -3.024  11.198  18.749  0.00  0.00    +0.000 A 
ATOM      2  C   UNL     1      -3.108  12.503  19.251  0.00  0.00    +0.000 A 
ATOM      3  C   UNL     1      -2.059  13.092  19.970  0.00  0.00    +0.000 A 
ATOM      4  C   UNL     1      -0.910  12.324  20.157  0.00  0.00    +0.000 A 
ATOM      5  N   UNL     1       0.283  12.598  20.763  0.00  0.00    +0.000 N 
ATOM      6  N   UNL     1       1.178  11.600  20.702  0.00  0.00    +0.000 NA
ATOM      7  C   UNL     1       0.562  10.650  19.977  0.00  0.00    +0.000 A 
ATOM      8  C   UNL     1      -0.785  11.025  19.685  0.00  0.00    +0.000 A 
ATOM      9  C   UNL     1      -1.884  10.434  19.031  0.00  0.00    +0.000 A 
ATOM     10  H   UNL     1       0.559  13.459  21.220  0.00  0.00    +0.000 HD
ENDROOT
BRANCH   7  11
ATOM     11  C   UNL     1       1.282   9.471  19.519  0.00  0.00    +0.000 A 
ATOM     12  C   UNL     1       1.727   9.342  18.210  0.00  0.00    +0.000 A 
ATOM     13  C   UNL     1       2.351   8.158  17.807  0.00  0.00    +0.000 A 
ATOM     14  C   UNL     1       2.503   7.102  18.705  0.00  0.00    +0.000 A 
ATOM     15  N   UNL     1       3.118   5.927  18.366  0.00  0.00    +0.000 N 
ATOM     16  C   UNL     1       4.069   5.791  17.268  0.00  0.00    +0.000 C 
ATOM     17  C   UNL     1       5.170   4.787  17.684  0.00  0.00    +0.000 C 
ATOM     18  N   UNL     1       4.650   3.475  18.125  0.00  0.00    +0.000 NA
ATOM     19  C   UNL     1       3.652   3.675  19.200  0.00  0.00    +0.000 C 
ATOM     20  C   UNL     1       2.528   4.668  18.832  0.00  0.00    +0.000 C 
ATOM     21  N   UNL     1       2.067   7.219  19.978  0.00  0.00    +0.000 NA
ATOM     22  C   UNL     1       1.479   8.380  20.355  0.00  0.00    +0.000 A 
ATOM     23  H   UNL     1       5.423   2.929  18.502  0.00  0.00    +0.000 HD
ENDBRANCH   7  11
BRANCH   1  24
ATOM     24  N   UNL     1      -4.037  10.574  18.007  0.00  0.00    +0.000 N 
ATOM     25  H   UNL     1      -4.155   9.612  18.327  0.00  0.00    +0.000 HD
BRANCH  24  26
ATOM     26  C   UNL     1      -5.325  11.262  17.929  0.00  0.00    +0.000 C 
BRANCH  26  32
ATOM     27  C   UNL     1      -6.972  11.443  19.873  0.00  0.00    +0.000 A 
ATOM     28  C   UNL     1      -7.765  10.836  20.849  0.00  0.00    +0.000 A 
ATOM     29  C   UNL     1      -7.910   9.449  20.871  0.00  0.00    +0.000 A 
ATOM     30  C   UNL     1      -7.262   8.666  19.919  0.00  0.00    +0.000 A 
ATOM     31  C   UNL     1      -6.454   9.266  18.953  0.00  0.00    +0.000 A 
ATOM     32  C   UNL     1      -6.288  10.660  18.923  0.00  0.00    +0.000 A 
BRANCH  27  33
ATOM     33  N   UNL     1      -6.805  12.870  19.906  0.00  0.00    +0.000 N 
ATOM     34  H   UNL     1      -6.329  13.213  19.058  0.00  0.00    +0.000 HD
BRANCH  33  36
ATOM     35  C   UNL     1      -7.376  14.080  22.240  0.00  0.00    +0.000 C 
ATOM     36  S   UNL     1      -6.002  13.499  21.264  0.00  0.00    +0.000 S 
ATOM     37  O   UNL     1      -5.274  14.656  20.802  0.00  0.00    +0.000 OA
ATOM     38  O   UNL     1      -5.345  12.434  21.987  0.00  0.00    +0.000 OA
ENDBRANCH  33  36
ENDBRANCH  27  33
ENDBRANCH  26  32
ENDBRANCH  24  26
ENDBRANCH   1  24
TORSDOF 6
ENDMDL
MODEL 8
REMARK VINA RESULT:      -7.9      3.259      5.881
REMARK  Name = 
REMARK  7 active torsions:
REMARK  status: ('A' for Active; 'I' for Inactive)
REMARK    1  A    between atoms: C_1  and  S_2
REMARK    2  A    between atoms: S_2  and  N_5
REMARK    3  A    between atoms: N_5  and  C_6
REMARK    4  A    between atoms: C_11  and  C_12
REMARK    5  A    between atoms: C_12  and  N_13
REMARK    6  A    between atoms: N_13  and  C_14
REMARK    7  A    between atoms: C_20  and  C_21
REMARK                            x       y       z     vdW  Elec       q    Type
REMARK                         _______ _______ _______ _____ _____    ______ ____
ROOT
ATOM      1  C   UNL     1       1.543   8.248  19.994  0.00  0.00    +0.000 A 
ATOM      2  C   UNL     1       0.804   7.495  20.915  0.00  0.00    +0.000 A 
ATOM      3  C   UNL     1       0.030   8.098  21.917  0.00  0.00    +0.000 A 
ATOM      4  C   UNL     1       0.013   9.492  21.951  0.00  0.00    +0.000 A 
ATOM      5  N   UNL     1      -0.650  10.377  22.753  0.00  0.00    +0.000 N 
ATOM      6  N   UNL     1      -0.441  11.667  22.445  0.00  0.00    +0.000 NA
ATOM      7  C   UNL     1       0.352  11.621  21.360  0.00  0.00    +0.000 A 
ATOM      8  C   UNL     1       0.735  10.277  21.064  0.00  0.00    +0.000 A 
ATOM      9  C   UNL     1       1.562   9.644  20.116  0.00  0.00    +0.000 A 
ATOM     10  H   UNL     1      -1.280  10.165  23.517  0.00  0.00    +0.000 HD
ENDROOT
BRANCH   7  11
ATOM     11  C   UNL     1       0.652  12.826  20.600  0.00  0.00    +0.000 A 
ATOM     12  C   UNL     1       1.920  13.391  20.586  0.00  0.00    +0.000 A 
ATOM     13  C   UNL     1       2.135  14.587  19.895  0.00  0.00    +0.000 A 
ATOM     14  C   UNL     1       1.078  15.224  19.247  0.00  0.00    +0.000 A 
ATOM     15  N   UNL     1       1.237  16.390  18.546  0.00  0.00    +0.000 N 
ATOM     16  C   UNL     1       2.509  16.843  17.995  0.00  0.00    +0.000 C 
ATOM     17  C   UNL     1       2.245  17.535  16.636  0.00  0.00    +0.000 C 
ATOM     18  N   UNL     1       1.254  18.630  16.703  0.00  0.00    +0.000 NA
ATOM     19  C   UNL     1       0.004  18.129  17.318  0.00  0.00    +0.000 C 
ATOM     20  C   UNL     1       0.214  17.432  18.679  0.00  0.00    +0.000 C 
ATOM     21  N   UNL     1      -0.159  14.682  19.261  0.00  0.00    +0.000 NA
ATOM     22  C   UNL     1      -0.344  13.514  19.921  0.00  0.00    +0.000 A 
ATOM     23  H   UNL     1       1.045  18.937  15.754  0.00  0.00    +0.000 HD
ENDBRANCH   7  11
BRANCH   1  24
ATOM     24  N   UNL     1       2.314   7.693  18.962  0.00  0.00    +0.000 N 
ATOM     25  H   UNL     1       3.112   8.297  18.766  0.00  0.00    +0.000 HD
BRANCH  24  26
ATOM     26  C   UNL     1       2.736   6.302  19.123  0.00  0.00    +0.000 C 
BRANCH  26  32
ATOM     27  C   UNL     1       4.263   4.643  17.923  0.00  0.00    +0.000 A 
ATOM     28  C   UNL     1       5.234   4.370  16.957  0.00  0.00    +0.000 A 
ATOM     29  C   UNL     1       5.627   5.363  16.059  0.00  0.00    +0.000 A 
ATOM     30  C   UNL     1       5.052   6.630  16.126  0.00  0.00    +0.000 A 
ATOM     31  C   UNL     1       4.095   6.912  17.101  0.00  0.00    +0.000 A 
ATOM     32  C   UNL     1       3.696   5.928  18.020  0.00  0.00    +0.000 A 
BRANCH  27  33
ATOM     33  N   UNL     1       3.915   3.613  18.862  0.00  0.00    +0.000 N 
ATOM     34  H   UNL     1       4.748   3.094  19.177  0.00  0.00    +0.000 HD
BRANCH  33  36
ATOM     35  C   UNL     1       1.524   2.650  19.633  0.00  0.00    +0.000 C 
ATOM     36  S   UNL     1       2.748   2.492  18.346  0.00  0.00    +0.000 S 
ATOM     37  O   UNL     1       3.354   1.189  18.477  0.00  0.00    +0.000 OA
ATOM     38  O   UNL     1       2.161   2.928  17.099  0.00  0.00    +0.000 OA
ENDBRANCH  33  36
ENDBRANCH  27  33
ENDBRANCH  26  32
ENDBRANCH  24  26
ENDBRANCH   1  24
TORSDOF 6
ENDMDL
MODEL 9
REMARK VINA RESULT:      -7.9      4.611     10.744
REMARK  Name = 
REMARK  7 active torsions:
REMARK  status: ('A' for Active; 'I' for Inactive)
REMARK    1  A    between atoms: C_1  and  S_2
REMARK    2  A    between atoms: S_2  and  N_5
REMARK    3  A    between atoms: N_5  and  C_6
REMARK    4  A    between atoms: C_11  and  C_12
REMARK    5  A    between atoms: C_12  and  N_13
REMARK    6  A    between atoms: N_13  and  C_14
REMARK    7  A    between atoms: C_20  and  C_21
REMARK                            x       y       z     vdW  Elec       q    Type
REMARK                         _______ _______ _______ _____ _____    ______ ____
ROOT
ATOM      1  C   UNL     1      -1.495  12.563  19.878  0.00  0.00    +0.000 A 
ATOM      2  C   UNL     1      -1.187  13.726  19.159  0.00  0.00    +0.000 A 
ATOM      3  C   UNL     1      -0.010  13.844  18.406  0.00  0.00    +0.000 A 
ATOM      4  C   UNL     1       0.845  12.742  18.390  0.00  0.00    +0.000 A 
ATOM      5  N   UNL     1       2.026  12.513  17.743  0.00  0.00    +0.000 N 
ATOM      6  N   UNL     1       2.540  11.289  17.945  0.00  0.00    +0.000 NA
ATOM      7  C   UNL     1       1.626  10.673  18.715  0.00  0.00    +0.000 A 
ATOM      8  C   UNL     1       0.585  11.574  19.092  0.00  0.00    +0.000 A 
ATOM      9  C   UNL     1      -0.568  11.512  19.899  0.00  0.00    +0.000 A 
ATOM     10  H   UNL     1       2.526  13.145  17.130  0.00  0.00    +0.000 HD
ENDROOT
BRANCH   7  11
ATOM     11  C   UNL     1       1.723   9.248  18.998  0.00  0.00    +0.000 A 
ATOM     12  C   UNL     1       1.432   8.725  20.252  0.00  0.00    +0.000 A 
ATOM     13  C   UNL     1       1.610   7.359  20.487  0.00  0.00    +0.000 A 
ATOM     14  C   UNL     1       2.102   6.530  19.480  0.00  0.00    +0.000 A 
ATOM     15  N   UNL     1       2.282   5.184  19.654  0.00  0.00    +0.000 N 
ATOM     16  C   UNL     1       1.584   4.391  20.659  0.00  0.00    +0.000 C 
ATOM     17  C   UNL     1       1.271   2.996  20.065  0.00  0.00    +0.000 C 
ATOM     18  N   UNL     1       2.457   2.291  19.536  0.00  0.00    +0.000 NA
ATOM     19  C   UNL     1       3.156   3.160  18.563  0.00  0.00    +0.000 C 
ATOM     20  C   UNL     1       3.494   4.563  19.109  0.00  0.00    +0.000 C 
ATOM     21  N   UNL     1       2.391   7.033  18.260  0.00  0.00    +0.000 NA
ATOM     22  C   UNL     1       2.197   8.357  18.046  0.00  0.00    +0.000 A 
ATOM     23  H   UNL     1       2.145   1.450  19.050  0.00  0.00    +0.000 HD
ENDBRANCH   7  11
BRANCH   1  24
ATOM     24  N   UNL     1      -2.667  12.389  20.627  0.00  0.00    +0.000 N 
ATOM     25  H   UNL     1      -2.460  12.494  21.620  0.00  0.00    +0.000 HD
BRANCH  24  26
ATOM     26  C   UNL     1      -3.826  13.195  20.245  0.00  0.00    +0.000 C 
BRANCH  26  32
ATOM     27  C   UNL     1      -5.111  11.872  18.479  0.00  0.00    +0.000 A 
ATOM     28  C   UNL     1      -6.234  11.134  18.097  0.00  0.00    +0.000 A 
ATOM     29  C   UNL     1      -7.197  10.783  19.043  0.00  0.00    +0.000 A 
ATOM     30  C   UNL     1      -7.041  11.171  20.372  0.00  0.00    +0.000 A 
ATOM     31  C   UNL     1      -5.930  11.923  20.755  0.00  0.00    +0.000 A 
ATOM     32  C   UNL     1      -4.957  12.294  19.813  0.00  0.00    +0.000 A 
BRANCH  27  33
ATOM     33  N   UNL     1      -4.162  12.257  17.472  0.00  0.00    +0.000 N 
ATOM     34  H   UNL     1      -4.599  12.850  16.750  0.00  0.00    +0.000 HD
BRANCH  33  36
ATOM     35  C   UNL     1      -3.399   9.721  17.947  0.00  0.00    +0.000 C 
ATOM     36  S   UNL     1      -3.336  10.991  16.698  0.00  0.00    +0.000 S 
ATOM     37  O   UNL     1      -1.963  11.418  16.577  0.00  0.00    +0.000 OA
ATOM     38  O   UNL     1      -4.088  10.540  15.548  0.00  0.00    +0.000 OA
ENDBRANCH  33  36
ENDBRANCH  27  33
ENDBRANCH  26  32
ENDBRANCH  24  26
ENDBRANCH   1  24
TORSDOF 6
ENDMDL
