MODEL 1
REMARK VINA RESULT:      -6.9      0.000      0.000
REMARK  Name = 
REMARK  3 active torsions:
REMARK  status: ('A' for Active; 'I' for Inactive)
REMARK    1  A    between atoms: C_8  and  C_9
REMARK    2  A    between atoms: C_9  and  N_10
REMARK    3  A    between atoms: C_13  and  N_14
REMARK                            x       y       z     vdW  Elec       q    Type
REMARK                         _______ _______ _______ _____ _____    ______ ____
ROOT
ATOM      1  N   UNL     1       6.520   6.027  17.043  0.00  0.00    +0.000 NA
ATOM      2  C   UNL     1       5.197   6.375  16.492  0.00  0.00    +0.000 C 
ATOM      3  C   UNL     1       4.108   6.557  17.554  0.00  0.00    +0.000 C 
ATOM      4  C   UNL     1       3.928   5.320  18.459  0.00  0.00    +0.000 C 
ATOM      5  C   UNL     1       5.322   5.086  19.079  0.00  0.00    +0.000 C 
ATOM      6  C   UNL     1       6.445   4.954  18.049  0.00  0.00    +0.000 C 
ENDROOT
BRANCH   4   7
ATOM      7  N   UNL     1       3.335   4.144  17.756  0.00  0.00    +0.000 NA
ATOM      8  C   UNL     1       1.868   4.246  17.598  0.00  0.00    +0.000 C 
ATOM      9  C   UNL     1       1.274   3.534  18.797  0.00  0.00    +0.000 C 
ATOM     10  C   UNL     1       2.186   2.337  18.927  0.00  0.00    +0.000 C 
ATOM     11  C   UNL     1       3.547   2.861  18.476  0.00  0.00    +0.000 C 
ENDBRANCH   4   7
BRANCH   1  12
ATOM     12  C   UNL     1       7.439   5.575  15.960  0.00  0.00    +0.000 C 
BRANCH  12  20
ATOM     13  F   UNL     1       8.483   5.628  13.344  0.00  0.00    +0.000 F 
ATOM     14  C   UNL     1       7.384   4.884  13.540  0.00  0.00    +0.000 A 
ATOM     15  C   UNL     1       6.837   4.216  12.446  0.00  0.00    +0.000 A 
ATOM     16  C   UNL     1       5.679   3.469  12.622  0.00  0.00    +0.000 A 
ATOM     17 CL   UNL     1       5.005   2.606  11.293  0.00  0.00    +0.000 Cl
ATOM     18  C   UNL     1       5.056   3.415  13.867  0.00  0.00    +0.000 A 
ATOM     19  C   UNL     1       5.613   4.091  14.959  0.00  0.00    +0.000 A 
ATOM     20  C   UNL     1       6.809   4.808  14.818  0.00  0.00    +0.000 A 
ENDBRANCH  12  20
ENDBRANCH   1  12
TORSDOF 3
ENDMDL
MODEL 2
REMARK VINA RESULT:      -6.8      3.729      4.856
REMARK  Name = 
REMARK  3 active torsions:
REMARK  status: ('A' for Active; 'I' for Inactive)
REMARK    1  A    between atoms: C_8  and  C_9
REMARK    2  A    between atoms: C_9  and  N_10
REMARK    3  A    between atoms: C_13  and  N_14
REMARK                            x       y       z     vdW  Elec       q    Type
REMARK                         _______ _______ _______ _____ _____    ______ ____
ROOT
ATOM      1  N   UNL     1       4.766   5.017  17.329  0.00  0.00    +0.000 NA
ATOM      2  C   UNL     1       4.230   3.741  16.824  0.00  0.00    +0.000 C 
ATOM      3  C   UNL     1       2.703   3.634  16.897  0.00  0.00    +0.000 C 
ATOM      4  C   UNL     1       2.147   3.846  18.321  0.00  0.00    +0.000 C 
ATOM      5  C   UNL     1       2.660   5.240  18.736  0.00  0.00    +0.000 C 
ATOM      6  C   UNL     1       4.176   5.402  18.623  0.00  0.00    +0.000 C 
ENDROOT
BRANCH   4   7
ATOM      7  N   UNL     1       2.475   2.736  19.264  0.00  0.00    +0.000 NA
ATOM      8  C   UNL     1       1.275   2.119  19.870  0.00  0.00    +0.000 C 
ATOM      9  C   UNL     1       1.051   2.851  21.177  0.00  0.00    +0.000 C 
ATOM     10  C   UNL     1       2.463   3.007  21.690  0.00  0.00    +0.000 C 
ATOM     11  C   UNL     1       3.297   3.173  20.422  0.00  0.00    +0.000 C 
ENDBRANCH   4   7
BRANCH   1  12
ATOM     12  C   UNL     1       6.244   4.934  17.508  0.00  0.00    +0.000 C 
BRANCH  12  20
ATOM     13  F   UNL     1       8.143   5.238  19.566  0.00  0.00    +0.000 F 
ATOM     14  C   UNL     1       7.900   6.317  18.805  0.00  0.00    +0.000 A 
ATOM     15  C   UNL     1       8.582   7.496  19.098  0.00  0.00    +0.000 A 
ATOM     16  C   UNL     1       8.316   8.633  18.344  0.00  0.00    +0.000 A 
ATOM     17 CL   UNL     1       9.172  10.092  18.663  0.00  0.00    +0.000 Cl
ATOM     18  C   UNL     1       7.360   8.602  17.331  0.00  0.00    +0.000 A 
ATOM     19  C   UNL     1       6.679   7.411  17.047  0.00  0.00    +0.000 A 
ATOM     20  C   UNL     1       6.968   6.239  17.760  0.00  0.00    +0.000 A 
ENDBRANCH  12  20
ENDBRANCH   1  12
TORSDOF 3
ENDMDL
MODEL 3
REMARK VINA RESULT:      -6.8      5.809      7.880
REMARK  Name = 
REMARK  3 active torsions:
REMARK  status: ('A' for Active; 'I' for Inactive)
REMARK    1  A    between atoms: C_8  and  C_9
REMARK    2  A    between atoms: C_9  and  N_10
REMARK    3  A    between atoms: C_13  and  N_14
REMARK                            x       y       z     vdW  Elec       q    Type
REMARK                         _______ _______ _______ _____ _____    ______ ____
ROOT
ATOM      1  N   UNL     1       2.513   8.275  18.526  0.00  0.00    +0.000 NA
ATOM      2  C   UNL     1       1.741   7.404  19.430  0.00  0.00    +0.000 C 
ATOM      3  C   UNL     1       2.551   6.244  20.020  0.00  0.00    +0.000 C 
ATOM      4  C   UNL     1       3.200   5.348  18.945  0.00  0.00    +0.000 C 
ATOM      5  C   UNL     1       4.071   6.310  18.110  0.00  0.00    +0.000 C 
ATOM      6  C   UNL     1       3.307   7.510  17.550  0.00  0.00    +0.000 C 
ENDROOT
BRANCH   4   7
ATOM      7  N   UNL     1       2.218   4.536  18.167  0.00  0.00    +0.000 NA
ATOM      8  C   UNL     1       1.326   3.729  19.028  0.00  0.00    +0.000 C 
ATOM      9  C   UNL     1       1.991   2.374  19.155  0.00  0.00    +0.000 C 
ATOM     10  C   UNL     1       2.501   2.148  17.751  0.00  0.00    +0.000 C 
ATOM     11  C   UNL     1       2.859   3.549  17.261  0.00  0.00    +0.000 C 
ENDBRANCH   4   7
BRANCH   1  12
ATOM     12  C   UNL     1       1.605   9.182  17.767  0.00  0.00    +0.000 C 
BRANCH  12  20
ATOM     13  F   UNL     1      -1.112   9.504  17.095  0.00  0.00    +0.000 F 
ATOM     14  C   UNL     1      -0.681  10.147  18.191  0.00  0.00    +0.000 A 
ATOM     15  C   UNL     1      -1.593  10.930  18.896  0.00  0.00    +0.000 A 
ATOM     16  C   UNL     1      -1.157  11.633  20.012  0.00  0.00    +0.000 A 
ATOM     17 CL   UNL     1      -2.273  12.579  20.920  0.00  0.00    +0.000 Cl
ATOM     18  C   UNL     1       0.180  11.579  20.403  0.00  0.00    +0.000 A 
ATOM     19  C   UNL     1       1.088  10.790  19.687  0.00  0.00    +0.000 A 
ATOM     20  C   UNL     1       0.659  10.032  18.588  0.00  0.00    +0.000 A 
ENDBRANCH  12  20
ENDBRANCH   1  12
TORSDOF 3
ENDMDL
MODEL 4
REMARK VINA RESULT:      -6.8      1.366      1.791
REMARK  Name = 
REMARK  3 active torsions:
REMARK  status: ('A' for Active; 'I' for Inactive)
REMARK    1  A    between atoms: C_8  and  C_9
REMARK    2  A    between atoms: C_9  and  N_10
REMARK    3  A    between atoms: C_13  and  N_14
REMARK                            x       y       z     vdW  Elec       q    Type
REMARK                         _______ _______ _______ _____ _____    ______ ____
ROOT
ATOM      1  N   UNL     1       5.419   5.068  16.753  0.00  0.00    +0.000 NA
ATOM      2  C   UNL     1       4.963   6.050  17.754  0.00  0.00    +0.000 C 
ATOM      3  C   UNL     1       4.857   5.487  19.176  0.00  0.00    +0.000 C 
ATOM      4  C   UNL     1       3.935   4.253  19.274  0.00  0.00    +0.000 C 
ATOM      5  C   UNL     1       4.537   3.237  18.282  0.00  0.00    +0.000 C 
ATOM      6  C   UNL     1       4.710   3.782  16.863  0.00  0.00    +0.000 C 
ENDROOT
BRANCH   4   7
ATOM      7  N   UNL     1       2.490   4.567  19.070  0.00  0.00    +0.000 NA
ATOM      8  C   UNL     1       1.785   4.887  20.331  0.00  0.00    +0.000 C 
ATOM      9  C   UNL     1       1.192   3.579  20.815  0.00  0.00    +0.000 C 
ATOM     10  C   UNL     1       0.705   2.965  19.523  0.00  0.00    +0.000 C 
ATOM     11  C   UNL     1       1.720   3.439  18.486  0.00  0.00    +0.000 C 
ENDBRANCH   4   7
BRANCH   1  12
ATOM     12  C   UNL     1       5.210   5.589  15.372  0.00  0.00    +0.000 C 
BRANCH  12  20
ATOM     13  F   UNL     1       7.918   5.539  14.597  0.00  0.00    +0.000 F 
ATOM     14  C   UNL     1       7.079   4.749  13.909  0.00  0.00    +0.000 A 
ATOM     15  C   UNL     1       7.599   3.987  12.866  0.00  0.00    +0.000 A 
ATOM     16  C   UNL     1       6.740   3.190  12.119  0.00  0.00    +0.000 A 
ATOM     17 CL   UNL     1       7.365   2.211  10.848  0.00  0.00    +0.000 Cl
ATOM     18  C   UNL     1       5.374   3.177  12.391  0.00  0.00    +0.000 A 
ATOM     19  C   UNL     1       4.861   3.949  13.442  0.00  0.00    +0.000 A 
ATOM     20  C   UNL     1       5.716   4.720  14.241  0.00  0.00    +0.000 A 
ENDBRANCH  12  20
ENDBRANCH   1  12
TORSDOF 3
ENDMDL
MODEL 5
REMARK VINA RESULT:      -6.7      3.592      4.693
REMARK  Name = 
REMARK  3 active torsions:
REMARK  status: ('A' for Active; 'I' for Inactive)
REMARK    1  A    between atoms: C_8  and  C_9
REMARK    2  A    between atoms: C_9  and  N_10
REMARK    3  A    between atoms: C_13  and  N_14
REMARK                            x       y       z     vdW  Elec       q    Type
REMARK                         _______ _______ _______ _____ _____    ______ ____
ROOT
ATOM      1  N   UNL     1       4.676   4.799  17.451  0.00  0.00    +0.000 NA
ATOM      2  C   UNL     1       4.151   3.532  16.912  0.00  0.00    +0.000 C 
ATOM      3  C   UNL     1       2.621   3.439  16.918  0.00  0.00    +0.000 C 
ATOM      4  C   UNL     1       2.006   3.644  18.318  0.00  0.00    +0.000 C 
ATOM      5  C   UNL     1       2.513   5.030  18.768  0.00  0.00    +0.000 C 
ATOM      6  C   UNL     1       4.034   5.179  18.721  0.00  0.00    +0.000 C 
ENDROOT
BRANCH   4   7
ATOM      7  N   UNL     1       2.283   2.523  19.266  0.00  0.00    +0.000 NA
ATOM      8  C   UNL     1       1.085   2.095  20.019  0.00  0.00    +0.000 C 
ATOM      9  C   UNL     1       1.108   2.884  21.313  0.00  0.00    +0.000 C 
ATOM     10  C   UNL     1       2.577   2.854  21.666  0.00  0.00    +0.000 C 
ATOM     11  C   UNL     1       3.280   2.870  20.311  0.00  0.00    +0.000 C 
ENDBRANCH   4   7
BRANCH   1  12
ATOM     12  C   UNL     1       6.144   4.700  17.693  0.00  0.00    +0.000 C 
BRANCH  12  20
ATOM     13  F   UNL     1       5.725   6.993  16.112  0.00  0.00    +0.000 F 
ATOM     14  C   UNL     1       6.617   7.103  17.108  0.00  0.00    +0.000 A 
ATOM     15  C   UNL     1       7.274   8.320  17.273  0.00  0.00    +0.000 A 
ATOM     16  C   UNL     1       8.227   8.442  18.277  0.00  0.00    +0.000 A 
ATOM     17 CL   UNL     1       9.025   9.947  18.524  0.00  0.00    +0.000 Cl
ATOM     18  C   UNL     1       8.543   7.353  19.087  0.00  0.00    +0.000 A 
ATOM     19  C   UNL     1       7.877   6.133  18.911  0.00  0.00    +0.000 A 
ATOM     20  C   UNL     1       6.876   6.002  17.939  0.00  0.00    +0.000 A 
ENDBRANCH  12  20
ENDBRANCH   1  12
TORSDOF 3
ENDMDL
MODEL 6
REMARK VINA RESULT:      -6.6      1.338      1.717
REMARK  Name = 
REMARK  3 active torsions:
REMARK  status: ('A' for Active; 'I' for Inactive)
REMARK    1  A    between atoms: C_8  and  C_9
REMARK    2  A    between atoms: C_9  and  N_10
REMARK    3  A    between atoms: C_13  and  N_14
REMARK                            x       y       z     vdW  Elec       q    Type
REMARK                         _______ _______ _______ _____ _____    ______ ____
ROOT
ATOM      1  N   UNL     1       6.053   6.184  17.736  0.00  0.00    +0.000 NA
ATOM      2  C   UNL     1       4.866   6.359  16.879  0.00  0.00    +0.000 C 
ATOM      3  C   UNL     1       3.572   6.631  17.655  0.00  0.00    +0.000 C 
ATOM      4  C   UNL     1       3.244   5.537  18.692  0.00  0.00    +0.000 C 
ATOM      5  C   UNL     1       4.483   5.488  19.611  0.00  0.00    +0.000 C 
ATOM      6  C   UNL     1       5.801   5.273  18.866  0.00  0.00    +0.000 C 
ENDROOT
BRANCH   4   7
ATOM      7  N   UNL     1       2.848   4.232  18.083  0.00  0.00    +0.000 NA
ATOM      8  C   UNL     1       1.386   4.101  17.901  0.00  0.00    +0.000 C 
ATOM      9  C   UNL     1       0.877   3.407  19.148  0.00  0.00    +0.000 C 
ATOM     10  C   UNL     1       1.952   2.374  19.388  0.00  0.00    +0.000 C 
ATOM     11  C   UNL     1       3.231   3.058  18.909  0.00  0.00    +0.000 C 
ENDBRANCH   4   7
BRANCH   1  12
ATOM     12  C   UNL     1       7.193   5.632  16.950  0.00  0.00    +0.000 C 
BRANCH  12  20
ATOM     13  F   UNL     1       5.583   3.333  16.717  0.00  0.00    +0.000 F 
ATOM     14  C   UNL     1       6.044   3.864  15.575  0.00  0.00    +0.000 A 
ATOM     15  C   UNL     1       5.712   3.236  14.376  0.00  0.00    +0.000 A 
ATOM     16  C   UNL     1       6.210   3.750  13.185  0.00  0.00    +0.000 A 
ATOM     17 CL   UNL     1       5.784   3.014  11.689  0.00  0.00    +0.000 Cl
ATOM     18  C   UNL     1       7.054   4.859  13.193  0.00  0.00    +0.000 A 
ATOM     19  C   UNL     1       7.383   5.481  14.404  0.00  0.00    +0.000 A 
ATOM     20  C   UNL     1       6.851   5.011  15.613  0.00  0.00    +0.000 A 
ENDBRANCH  12  20
ENDBRANCH   1  12
TORSDOF 3
ENDMDL
MODEL 7
REMARK VINA RESULT:      -6.5      5.761      7.796
REMARK  Name = 
REMARK  3 active torsions:
REMARK  status: ('A' for Active; 'I' for Inactive)
REMARK    1  A    between atoms: C_8  and  C_9
REMARK    2  A    between atoms: C_9  and  N_10
REMARK    3  A    between atoms: C_13  and  N_14
REMARK                            x       y       z     vdW  Elec       q    Type
REMARK                         _______ _______ _______ _____ _____    ______ ____
ROOT
ATOM      1  N   UNL     1       2.609   8.203  18.529  0.00  0.00    +0.000 NA
ATOM      2  C   UNL     1       1.918   7.321  19.486  0.00  0.00    +0.000 C 
ATOM      3  C   UNL     1       2.776   6.156  19.992  0.00  0.00    +0.000 C 
ATOM      4  C   UNL     1       3.331   5.272  18.856  0.00  0.00    +0.000 C 
ATOM      5  C   UNL     1       4.127   6.244  17.960  0.00  0.00    +0.000 C 
ATOM      6  C   UNL     1       3.318   7.450  17.480  0.00  0.00    +0.000 C 
ENDROOT
BRANCH   4   7
ATOM      7  N   UNL     1       2.286   4.468  18.156  0.00  0.00    +0.000 NA
ATOM      8  C   UNL     1       1.428   3.701  19.086  0.00  0.00    +0.000 C 
ATOM      9  C   UNL     1       2.070   2.333  19.204  0.00  0.00    +0.000 C 
ATOM     10  C   UNL     1       2.489   2.065  17.778  0.00  0.00    +0.000 C 
ATOM     11  C   UNL     1       2.848   3.446  17.236  0.00  0.00    +0.000 C 
ENDBRANCH   4   7
BRANCH   1  12
ATOM     12  C   UNL     1       1.640   9.117  17.860  0.00  0.00    +0.000 C 
BRANCH  12  20
ATOM     13  F   UNL     1      -0.351   9.780  19.739  0.00  0.00    +0.000 F 
ATOM     14  C   UNL     1       0.488  10.762  19.378  0.00  0.00    +0.000 A 
ATOM     15  C   UNL     1       0.304  12.024  19.938  0.00  0.00    +0.000 A 
ATOM     16  C   UNL     1       1.140  13.064  19.549  0.00  0.00    +0.000 A 
ATOM     17 CL   UNL     1       0.955  14.623  20.253  0.00  0.00    +0.000 Cl
ATOM     18  C   UNL     1       2.129  12.853  18.590  0.00  0.00    +0.000 A 
ATOM     19  C   UNL     1       2.304  11.580  18.032  0.00  0.00    +0.000 A 
ATOM     20  C   UNL     1       1.506  10.505  18.448  0.00  0.00    +0.000 A 
ENDBRANCH  12  20
ENDBRANCH   1  12
TORSDOF 3
ENDMDL
MODEL 8
REMARK VINA RESULT:      -6.5      3.611      5.061
REMARK  Name = 
REMARK  3 active torsions:
REMARK  status: ('A' for Active; 'I' for Inactive)
REMARK    1  A    between atoms: C_8  and  C_9
REMARK    2  A    between atoms: C_9  and  N_10
REMARK    3  A    between atoms: C_13  and  N_14
REMARK                            x       y       z     vdW  Elec       q    Type
REMARK                         _______ _______ _______ _____ _____    ______ ____
ROOT
ATOM      1  N   UNL     1       4.084   4.032  18.257  0.00  0.00    +0.000 NA
ATOM      2  C   UNL     1       4.205   4.505  19.648  0.00  0.00    +0.000 C 
ATOM      3  C   UNL     1       2.861   4.788  20.328  0.00  0.00    +0.000 C 
ATOM      4  C   UNL     1       1.994   5.807  19.560  0.00  0.00    +0.000 C 
ATOM      5  C   UNL     1       1.825   5.194  18.155  0.00  0.00    +0.000 C 
ATOM      6  C   UNL     1       3.145   4.845  17.466  0.00  0.00    +0.000 C 
ENDROOT
BRANCH   4   7
ATOM      7  N   UNL     1       2.536   7.198  19.589  0.00  0.00    +0.000 NA
ATOM      8  C   UNL     1       1.776   8.095  20.487  0.00  0.00    +0.000 C 
ATOM      9  C   UNL     1       0.737   8.768  19.612  0.00  0.00    +0.000 C 
ATOM     10  C   UNL     1       1.525   9.045  18.354  0.00  0.00    +0.000 C 
ATOM     11  C   UNL     1       2.498   7.871  18.265  0.00  0.00    +0.000 C 
ENDBRANCH   4   7
BRANCH   1  12
ATOM     12  C   UNL     1       5.408   4.068  17.572  0.00  0.00    +0.000 C 
BRANCH  12  20
ATOM     13  F   UNL     1       5.308   6.364  15.943  0.00  0.00    +0.000 F 
ATOM     14  C   UNL     1       6.166   6.393  16.975  0.00  0.00    +0.000 A 
ATOM     15  C   UNL     1       6.945   7.534  17.151  0.00  0.00    +0.000 A 
ATOM     16  C   UNL     1       7.864   7.569  18.193  0.00  0.00    +0.000 A 
ATOM     17 CL   UNL     1       8.812   8.982  18.453  0.00  0.00    +0.000 Cl
ATOM     18  C   UNL     1       8.025   6.467  19.030  0.00  0.00    +0.000 A 
ATOM     19  C   UNL     1       7.237   5.324  18.842  0.00  0.00    +0.000 A 
ATOM     20  C   UNL     1       6.268   5.286  17.831  0.00  0.00    +0.000 A 
ENDBRANCH  12  20
ENDBRANCH   1  12
TORSDOF 3
ENDMDL
MODEL 9
REMARK VINA RESULT:      -6.5      3.194      4.421
REMARK  Name = 
REMARK  3 active torsions:
REMARK  status: ('A' for Active; 'I' for Inactive)
REMARK    1  A    between atoms: C_8  and  C_9
REMARK    2  A    between atoms: C_9  and  N_10
REMARK    3  A    between atoms: C_13  and  N_14
REMARK                            x       y       z     vdW  Elec       q    Type
REMARK                         _______ _______ _______ _____ _____    ______ ____
ROOT
ATOM      1  N   UNL     1       4.270   3.930  16.616  0.00  0.00    +0.000 NA
ATOM      2  C   UNL     1       3.866   2.720  17.356  0.00  0.00    +0.000 C 
ATOM      3  C   UNL     1       2.417   2.750  17.853  0.00  0.00    +0.000 C 
ATOM      4  C   UNL     1       2.104   3.971  18.744  0.00  0.00    +0.000 C 
ATOM      5  C   UNL     1       2.450   5.192  17.865  0.00  0.00    +0.000 C 
ATOM      6  C   UNL     1       3.873   5.169  17.305  0.00  0.00    +0.000 C 
ENDROOT
BRANCH   4   7
ATOM      7  N   UNL     1       2.777   3.930  20.076  0.00  0.00    +0.000 NA
ATOM      8  C   UNL     1       3.231   2.574  20.452  0.00  0.00    +0.000 C 
ATOM      9  C   UNL     1       2.102   1.973  21.265  0.00  0.00    +0.000 C 
ATOM     10  C   UNL     1       1.665   3.151  22.104  0.00  0.00    +0.000 C 
ATOM     11  C   UNL     1       1.895   4.355  21.193  0.00  0.00    +0.000 C 
ENDBRANCH   4   7
BRANCH   1  12
ATOM     12  C   UNL     1       5.749   3.963  16.430  0.00  0.00    +0.000 C 
BRANCH  12  20
ATOM     13  F   UNL     1       5.832   6.515  15.241  0.00  0.00    +0.000 F 
ATOM     14  C   UNL     1       6.480   6.372  16.407  0.00  0.00    +0.000 A 
ATOM     15  C   UNL     1       7.152   7.476  16.927  0.00  0.00    +0.000 A 
ATOM     16  C   UNL     1       7.859   7.338  18.116  0.00  0.00    +0.000 A 
ATOM     17 CL   UNL     1       8.666   8.697  18.797  0.00  0.00    +0.000 Cl
ATOM     18  C   UNL     1       7.919   6.105  18.762  0.00  0.00    +0.000 A 
ATOM     19  C   UNL     1       7.242   5.001  18.229  0.00  0.00    +0.000 A 
ATOM     20  C   UNL     1       6.480   5.130  17.059  0.00  0.00    +0.000 A 
ENDBRANCH  12  20
ENDBRANCH   1  12
TORSDOF 3
ENDMDL
