MODEL 1
REMARK VINA RESULT:      -7.4      0.000      0.000
REMARK  Name = 
REMARK  6 active torsions:
REMARK  status: ('A' for Active; 'I' for Inactive)
REMARK    1  A    between atoms: C_1  and  C_2
REMARK    2  A    between atoms: C_2  and  C_3
REMARK    3  A    between atoms: C_7  and  C_8
REMARK    4  A    between atoms: C_14  and  O_15
REMARK    5  A    between atoms: O_15  and  C_16
REMARK    6  A    between atoms: C_16  and  C_17
REMARK                            x       y       z     vdW  Elec       q    Type
REMARK                         _______ _______ _______ _____ _____    ______ ____
ROOT
ATOM      1  C   UNL     1       2.564   7.156  18.822  0.00  0.00    +0.000 A 
ATOM      2  C   UNL     1       3.384   7.561  17.788  0.00  0.00    +0.000 A 
ATOM      3  C   UNL     1       4.023   6.400  17.290  0.00  0.00    +0.000 A 
ATOM      4  C   UNL     1       4.974   6.152  16.287  0.00  0.00    +0.000 A 
ATOM      5  C   UNL     1       5.360   4.830  16.046  0.00  0.00    +0.000 A 
ATOM      6  C   UNL     1       4.799   3.769  16.766  0.00  0.00    +0.000 A 
ATOM      7  C   UNL     1       3.838   3.982  17.768  0.00  0.00    +0.000 A 
ATOM      8  C   UNL     1       3.509   5.327  18.015  0.00  0.00    +0.000 A 
ATOM      9  O   UNL     1       2.640   5.796  18.965  0.00  0.00    +0.000 OA
ENDROOT
BRANCH   1  14
ATOM     10  C   UNL     1      -0.574  10.472  22.139  0.00  0.00    +0.000 A 
ATOM     11  N   UNL     1      -0.060   9.299  22.391  0.00  0.00    +0.000 NA
ATOM     12  N   UNL     1       0.577   8.933  21.254  0.00  0.00    +0.000 N 
ATOM     13  C   UNL     1       1.300   7.830  20.929  0.00  0.00    +0.000 A 
ATOM     14  C   UNL     1       1.724   8.078  19.632  0.00  0.00    +0.000 A 
ATOM     15  N   UNL     1       1.268   9.304  19.165  0.00  0.00    +0.000 NA
ATOM     16  C   UNL     1       0.583   9.757  20.179  0.00  0.00    +0.000 A 
ATOM     17  S   UNL     1      -0.314  11.173  20.520  0.00  0.00    +0.000 S 
BRANCH  10  19
ATOM     18  C   UNL     1      -1.171  12.766  22.859  0.00  0.00    +0.000 C 
ATOM     19  C   UNL     1      -1.325  11.283  23.153  0.00  0.00    +0.000 C 
ENDBRANCH  10  19
ENDBRANCH   1  14
BRANCH   7  20
ATOM     20  O   UNL     1       3.263   2.988  18.519  0.00  0.00    +0.000 OA
BRANCH  20  21
ATOM     21  C   UNL     1       3.959   2.602  19.718  0.00  0.00    +0.000 C 
BRANCH  21  22
ATOM     22  C   UNL     1       3.019   2.725  20.906  0.00  0.00    +0.000 C 
ATOM     23  N   UNL     1       2.240   2.827  21.893  0.00  0.00    +0.000 NA
ENDBRANCH  21  22
ENDBRANCH  20  21
ENDBRANCH   7  20
TORSDOF 5
ENDMDL
MODEL 2
REMARK VINA RESULT:      -7.3      1.011      1.188
REMARK  Name = 
REMARK  6 active torsions:
REMARK  status: ('A' for Active; 'I' for Inactive)
REMARK    1  A    between atoms: C_1  and  C_2
REMARK    2  A    between atoms: C_2  and  C_3
REMARK    3  A    between atoms: C_7  and  C_8
REMARK    4  A    between atoms: C_14  and  O_15
REMARK    5  A    between atoms: O_15  and  C_16
REMARK    6  A    between atoms: C_16  and  C_17
REMARK                            x       y       z     vdW  Elec       q    Type
REMARK                         _______ _______ _______ _____ _____    ______ ____
ROOT
ATOM      1  C   UNL     1       2.399   7.367  19.090  0.00  0.00    +0.000 A 
ATOM      2  C   UNL     1       3.206   7.799  18.056  0.00  0.00    +0.000 A 
ATOM      3  C   UNL     1       3.819   6.649  17.504  0.00  0.00    +0.000 A 
ATOM      4  C   UNL     1       4.747   6.426  16.474  0.00  0.00    +0.000 A 
ATOM      5  C   UNL     1       5.112   5.109  16.179  0.00  0.00    +0.000 A 
ATOM      6  C   UNL     1       4.550   4.029  16.871  0.00  0.00    +0.000 A 
ATOM      7  C   UNL     1       3.611   4.218  17.898  0.00  0.00    +0.000 A 
ATOM      8  C   UNL     1       3.305   5.557  18.199  0.00  0.00    +0.000 A 
ATOM      9  O   UNL     1       2.460   6.002  19.183  0.00  0.00    +0.000 OA
ENDROOT
BRANCH   1  14
ATOM     10  C   UNL     1      -0.758  10.952  22.095  0.00  0.00    +0.000 A 
ATOM     11  N   UNL     1      -0.401  11.016  20.841  0.00  0.00    +0.000 NA
ATOM     12  N   UNL     1       0.370   9.923  20.630  0.00  0.00    +0.000 N 
ATOM     13  C   UNL     1       1.004   9.453  19.523  0.00  0.00    +0.000 A 
ATOM     14  C   UNL     1       1.587   8.269  19.949  0.00  0.00    +0.000 A 
ATOM     15  N   UNL     1       1.323   8.016  21.288  0.00  0.00    +0.000 NA
ATOM     16  C   UNL     1       0.602   9.046  21.636  0.00  0.00    +0.000 A 
ATOM     17  S   UNL     1      -0.171   9.577  23.067  0.00  0.00    +0.000 S 
BRANCH  10  19
ATOM     18  C   UNL     1      -0.984  13.289  22.884  0.00  0.00    +0.000 C 
ATOM     19  C   UNL     1      -1.675  11.943  22.746  0.00  0.00    +0.000 C 
ENDBRANCH  10  19
ENDBRANCH   1  14
BRANCH   7  20
ATOM     20  O   UNL     1       3.037   3.205  18.623  0.00  0.00    +0.000 OA
BRANCH  20  21
ATOM     21  C   UNL     1       3.756   2.758  19.787  0.00  0.00    +0.000 C 
BRANCH  21  22
ATOM     22  C   UNL     1       2.837   2.813  20.997  0.00  0.00    +0.000 C 
ATOM     23  N   UNL     1       2.075   2.859  22.001  0.00  0.00    +0.000 NA
ENDBRANCH  21  22
ENDBRANCH  20  21
ENDBRANCH   7  20
TORSDOF 5
ENDMDL
MODEL 3
REMARK VINA RESULT:      -7.2      1.074      1.074
REMARK  Name = 
REMARK  6 active torsions:
REMARK  status: ('A' for Active; 'I' for Inactive)
REMARK    1  A    between atoms: C_1  and  C_2
REMARK    2  A    between atoms: C_2  and  C_3
REMARK    3  A    between atoms: C_7  and  C_8
REMARK    4  A    between atoms: C_14  and  O_15
REMARK    5  A    between atoms: O_15  and  C_16
REMARK    6  A    between atoms: C_16  and  C_17
REMARK                            x       y       z     vdW  Elec       q    Type
REMARK                         _______ _______ _______ _____ _____    ______ ____
ROOT
ATOM      1  C   UNL     1       2.872   7.050  18.535  0.00  0.00    +0.000 A 
ATOM      2  C   UNL     1       3.618   7.534  17.479  0.00  0.00    +0.000 A 
ATOM      3  C   UNL     1       4.314   6.432  16.927  0.00  0.00    +0.000 A 
ATOM      4  C   UNL     1       5.236   6.273  15.880  0.00  0.00    +0.000 A 
ATOM      5  C   UNL     1       5.702   4.987  15.592  0.00  0.00    +0.000 A 
ATOM      6  C   UNL     1       5.247   3.873  16.308  0.00  0.00    +0.000 A 
ATOM      7  C   UNL     1       4.316   3.997  17.353  0.00  0.00    +0.000 A 
ATOM      8  C   UNL     1       3.906   5.311  17.646  0.00  0.00    +0.000 A 
ATOM      9  O   UNL     1       3.048   5.697  18.642  0.00  0.00    +0.000 OA
ENDROOT
BRANCH   1  14
ATOM     10  C   UNL     1      -0.347  10.064  22.057  0.00  0.00    +0.000 A 
ATOM     11  N   UNL     1       0.243   8.917  22.254  0.00  0.00    +0.000 NA
ATOM     12  N   UNL     1       0.864   8.626  21.086  0.00  0.00    +0.000 N 
ATOM     13  C   UNL     1       1.640   7.579  20.701  0.00  0.00    +0.000 A 
ATOM     14  C   UNL     1       2.006   7.894  19.401  0.00  0.00    +0.000 A 
ATOM     15  N   UNL     1       1.464   9.105  18.991  0.00  0.00    +0.000 NA
ATOM     16  C   UNL     1       0.786   9.483  20.039  0.00  0.00    +0.000 A 
ATOM     17  S   UNL     1      -0.182  10.831  20.456  0.00  0.00    +0.000 S 
BRANCH  10  19
ATOM     18  C   UNL     1      -1.175  12.278  22.797  0.00  0.00    +0.000 C 
ATOM     19  C   UNL     1      -1.111  10.795  23.120  0.00  0.00    +0.000 C 
ENDBRANCH  10  19
ENDBRANCH   1  14
BRANCH   7  20
ATOM     20  O   UNL     1       3.843   2.950  18.102  0.00  0.00    +0.000 OA
BRANCH  20  21
ATOM     21  C   UNL     1       2.627   2.330  17.648  0.00  0.00    +0.000 C 
BRANCH  21  22
ATOM     22  C   UNL     1       1.535   2.550  18.682  0.00  0.00    +0.000 C 
ATOM     23  N   UNL     1       0.627   2.734  19.539  0.00  0.00    +0.000 NA
ENDBRANCH  21  22
ENDBRANCH  20  21
ENDBRANCH   7  20
TORSDOF 5
ENDMDL
MODEL 4
REMARK VINA RESULT:      -7.1      1.491      1.629
REMARK  Name = 
REMARK  6 active torsions:
REMARK  status: ('A' for Active; 'I' for Inactive)
REMARK    1  A    between atoms: C_1  and  C_2
REMARK    2  A    between atoms: C_2  and  C_3
REMARK    3  A    between atoms: C_7  and  C_8
REMARK    4  A    between atoms: C_14  and  O_15
REMARK    5  A    between atoms: O_15  and  C_16
REMARK    6  A    between atoms: C_16  and  C_17
REMARK                            x       y       z     vdW  Elec       q    Type
REMARK                         _______ _______ _______ _____ _____    ______ ____
ROOT
ATOM      1  C   UNL     1       2.519   7.415  19.101  0.00  0.00    +0.000 A 
ATOM      2  C   UNL     1       3.149   7.841  17.949  0.00  0.00    +0.000 A 
ATOM      3  C   UNL     1       3.873   6.735  17.441  0.00  0.00    +0.000 A 
ATOM      4  C   UNL     1       4.721   6.534  16.341  0.00  0.00    +0.000 A 
ATOM      5  C   UNL     1       5.249   5.257  16.131  0.00  0.00    +0.000 A 
ATOM      6  C   UNL     1       4.924   4.190  16.977  0.00  0.00    +0.000 A 
ATOM      7  C   UNL     1       4.069   4.356  18.080  0.00  0.00    +0.000 A 
ATOM      8  C   UNL     1       3.596   5.664  18.287  0.00  0.00    +0.000 A 
ATOM      9  O   UNL     1       2.792   6.091  19.313  0.00  0.00    +0.000 OA
ENDROOT
BRANCH   1  14
ATOM     10  C   UNL     1      -0.792  10.870  22.094  0.00  0.00    +0.000 A 
ATOM     11  N   UNL     1      -0.418  10.957  20.846  0.00  0.00    +0.000 NA
ATOM     12  N   UNL     1       0.389   9.891  20.636  0.00  0.00    +0.000 N 
ATOM     13  C   UNL     1       1.054   9.453  19.534  0.00  0.00    +0.000 A 
ATOM     14  C   UNL     1       1.667   8.283  19.956  0.00  0.00    +0.000 A 
ATOM     15  N   UNL     1       1.392   8.008  21.289  0.00  0.00    +0.000 NA
ATOM     16  C   UNL     1       0.634   9.011  21.636  0.00  0.00    +0.000 A 
ATOM     17  S   UNL     1      -0.177   9.503  23.061  0.00  0.00    +0.000 S 
BRANCH  10  19
ATOM     18  C   UNL     1      -2.460  12.654  21.685  0.00  0.00    +0.000 C 
ATOM     19  C   UNL     1      -1.749  11.825  22.741  0.00  0.00    +0.000 C 
ENDBRANCH  10  19
ENDBRANCH   1  14
BRANCH   7  20
ATOM     20  O   UNL     1       3.726   3.357  18.955  0.00  0.00    +0.000 OA
BRANCH  20  21
ATOM     21  C   UNL     1       3.145   2.171  18.384  0.00  0.00    +0.000 C 
BRANCH  21  22
ATOM     22  C   UNL     1       1.631   2.247  18.498  0.00  0.00    +0.000 C 
ATOM     23  N   UNL     1       0.375   2.310  18.595  0.00  0.00    +0.000 NA
ENDBRANCH  21  22
ENDBRANCH  20  21
ENDBRANCH   7  20
TORSDOF 5
ENDMDL
MODEL 5
REMARK VINA RESULT:      -7.0      1.494      1.670
REMARK  Name = 
REMARK  6 active torsions:
REMARK  status: ('A' for Active; 'I' for Inactive)
REMARK    1  A    between atoms: C_1  and  C_2
REMARK    2  A    between atoms: C_2  and  C_3
REMARK    3  A    between atoms: C_7  and  C_8
REMARK    4  A    between atoms: C_14  and  O_15
REMARK    5  A    between atoms: O_15  and  C_16
REMARK    6  A    between atoms: C_16  and  C_17
REMARK                            x       y       z     vdW  Elec       q    Type
REMARK                         _______ _______ _______ _____ _____    ______ ____
ROOT
ATOM      1  C   UNL     1       3.025   7.003  18.295  0.00  0.00    +0.000 A 
ATOM      2  C   UNL     1       3.790   7.402  17.218  0.00  0.00    +0.000 A 
ATOM      3  C   UNL     1       4.473   6.254  16.749  0.00  0.00    +0.000 A 
ATOM      4  C   UNL     1       5.403   6.011  15.726  0.00  0.00    +0.000 A 
ATOM      5  C   UNL     1       5.851   4.701  15.530  0.00  0.00    +0.000 A 
ATOM      6  C   UNL     1       5.370   3.646  16.315  0.00  0.00    +0.000 A 
ATOM      7  C   UNL     1       4.431   3.855  17.338  0.00  0.00    +0.000 A 
ATOM      8  C   UNL     1       4.039   5.191  17.537  0.00  0.00    +0.000 A 
ATOM      9  O   UNL     1       3.178   5.658  18.496  0.00  0.00    +0.000 OA
ENDROOT
BRANCH   1  14
ATOM     10  C   UNL     1      -0.296  10.633  21.061  0.00  0.00    +0.000 A 
ATOM     11  N   UNL     1       0.158  10.693  19.839  0.00  0.00    +0.000 NA
ATOM     12  N   UNL     1       0.925   9.588  19.684  0.00  0.00    +0.000 N 
ATOM     13  C   UNL     1       1.634   9.112  18.628  0.00  0.00    +0.000 A 
ATOM     14  C   UNL     1       2.164   7.917  19.092  0.00  0.00    +0.000 A 
ATOM     15  N   UNL     1       1.794   7.664  20.407  0.00  0.00    +0.000 NA
ATOM     16  C   UNL     1       1.064   8.705  20.701  0.00  0.00    +0.000 A 
ATOM     17  S   UNL     1       0.192   9.246  22.071  0.00  0.00    +0.000 S 
BRANCH  10  19
ATOM     18  C   UNL     1      -1.439  11.378  23.128  0.00  0.00    +0.000 C 
ATOM     19  C   UNL     1      -1.245  11.637  21.644  0.00  0.00    +0.000 C 
ENDBRANCH  10  19
ENDBRANCH   1  14
BRANCH   7  20
ATOM     20  O   UNL     1       3.934   2.868  18.151  0.00  0.00    +0.000 OA
BRANCH  20  21
ATOM     21  C   UNL     1       2.740   2.202  17.701  0.00  0.00    +0.000 C 
BRANCH  21  22
ATOM     22  C   UNL     1       1.595   2.529  18.644  0.00  0.00    +0.000 C 
ATOM     23  N   UNL     1       0.644   2.801  19.427  0.00  0.00    +0.000 NA
ENDBRANCH  21  22
ENDBRANCH  20  21
ENDBRANCH   7  20
TORSDOF 5
ENDMDL
MODEL 6
REMARK VINA RESULT:      -7.0      2.377      3.630
REMARK  Name = 
REMARK  6 active torsions:
REMARK  status: ('A' for Active; 'I' for Inactive)
REMARK    1  A    between atoms: C_1  and  C_2
REMARK    2  A    between atoms: C_2  and  C_3
REMARK    3  A    between atoms: C_7  and  C_8
REMARK    4  A    between atoms: C_14  and  O_15
REMARK    5  A    between atoms: O_15  and  C_16
REMARK    6  A    between atoms: C_16  and  C_17
REMARK                            x       y       z     vdW  Elec       q    Type
REMARK                         _______ _______ _______ _____ _____    ______ ____
ROOT
ATOM      1  C   UNL     1       2.806   7.031  18.560  0.00  0.00    +0.000 A 
ATOM      2  C   UNL     1       2.466   5.708  18.359  0.00  0.00    +0.000 A 
ATOM      3  C   UNL     1       3.499   5.131  17.580  0.00  0.00    +0.000 A 
ATOM      4  C   UNL     1       3.724   3.860  17.029  0.00  0.00    +0.000 A 
ATOM      5  C   UNL     1       4.909   3.640  16.321  0.00  0.00    +0.000 A 
ATOM      6  C   UNL     1       5.868   4.651  16.182  0.00  0.00    +0.000 A 
ATOM      7  C   UNL     1       5.678   5.930  16.732  0.00  0.00    +0.000 A 
ATOM      8  C   UNL     1       4.454   6.128  17.395  0.00  0.00    +0.000 A 
ATOM      9  O   UNL     1       4.014   7.291  17.971  0.00  0.00    +0.000 OA
ENDROOT
BRANCH   1  14
ATOM     10  C   UNL     1      -0.410  10.862  21.173  0.00  0.00    +0.000 A 
ATOM     11  N   UNL     1       0.032  10.853  19.945  0.00  0.00    +0.000 NA
ATOM     12  N   UNL     1       0.774   9.725  19.838  0.00  0.00    +0.000 N 
ATOM     13  C   UNL     1       1.463   9.182  18.800  0.00  0.00    +0.000 A 
ATOM     14  C   UNL     1       1.972   8.001  19.319  0.00  0.00    +0.000 A 
ATOM     15  N   UNL     1       1.611   7.822  20.648  0.00  0.00    +0.000 NA
ATOM     16  C   UNL     1       0.907   8.891  20.897  0.00  0.00    +0.000 A 
ATOM     17  S   UNL     1       0.060   9.517  22.246  0.00  0.00    +0.000 S 
BRANCH  10  19
ATOM     18  C   UNL     1      -1.799  11.537  23.110  0.00  0.00    +0.000 C 
ATOM     19  C   UNL     1      -1.332  11.914  21.714  0.00  0.00    +0.000 C 
ENDBRANCH  10  19
ENDBRANCH   1  14
BRANCH   7  20
ATOM     20  O   UNL     1       6.570   6.966  16.617  0.00  0.00    +0.000 OA
BRANCH  20  21
ATOM     21  C   UNL     1       7.605   7.039  17.614  0.00  0.00    +0.000 C 
BRANCH  21  22
ATOM     22  C   UNL     1       8.002   8.491  17.822  0.00  0.00    +0.000 C 
ATOM     23  N   UNL     1       8.332   9.696  17.994  0.00  0.00    +0.000 NA
ENDBRANCH  21  22
ENDBRANCH  20  21
ENDBRANCH   7  20
TORSDOF 5
ENDMDL
MODEL 7
REMARK VINA RESULT:      -6.9      3.384      8.259
REMARK  Name = 
REMARK  6 active torsions:
REMARK  status: ('A' for Active; 'I' for Inactive)
REMARK    1  A    between atoms: C_1  and  C_2
REMARK    2  A    between atoms: C_2  and  C_3
REMARK    3  A    between atoms: C_7  and  C_8
REMARK    4  A    between atoms: C_14  and  O_15
REMARK    5  A    between atoms: O_15  and  C_16
REMARK    6  A    between atoms: C_16  and  C_17
REMARK                            x       y       z     vdW  Elec       q    Type
REMARK                         _______ _______ _______ _____ _____    ______ ____
ROOT
ATOM      1  C   UNL     1       1.819   7.936  19.630  0.00  0.00    +0.000 A 
ATOM      2  C   UNL     1       1.505   7.715  20.956  0.00  0.00    +0.000 A 
ATOM      3  C   UNL     1       0.769   8.841  21.399  0.00  0.00    +0.000 A 
ATOM      4  C   UNL     1       0.203   9.228  22.623  0.00  0.00    +0.000 A 
ATOM      5  C   UNL     1      -0.502  10.434  22.680  0.00  0.00    +0.000 A 
ATOM      6  C   UNL     1      -0.666  11.232  21.541  0.00  0.00    +0.000 A 
ATOM      7  C   UNL     1      -0.122  10.867  20.299  0.00  0.00    +0.000 A 
ATOM      8  C   UNL     1       0.620   9.672  20.291  0.00  0.00    +0.000 A 
ATOM      9  O   UNL     1       1.285   9.128  19.222  0.00  0.00    +0.000 OA
ENDROOT
BRANCH   1  14
ATOM     10  C   UNL     1       4.979   4.607  16.345  0.00  0.00    +0.000 A 
ATOM     11  N   UNL     1       4.933   5.910  16.402  0.00  0.00    +0.000 NA
ATOM     12  N   UNL     1       3.995   6.198  17.335  0.00  0.00    +0.000 N 
ATOM     13  C   UNL     1       3.531   7.376  17.828  0.00  0.00    +0.000 A 
ATOM     14  C   UNL     1       2.608   6.995  18.791  0.00  0.00    +0.000 A 
ATOM     15  N   UNL     1       2.502   5.613  18.887  0.00  0.00    +0.000 NA
ATOM     16  C   UNL     1       3.348   5.201  17.984  0.00  0.00    +0.000 A 
ATOM     17  S   UNL     1       3.887   3.681  17.409  0.00  0.00    +0.000 S 
BRANCH  10  19
ATOM     18  C   UNL     1       6.663   4.800  14.540  0.00  0.00    +0.000 C 
ATOM     19  C   UNL     1       5.934   3.849  15.474  0.00  0.00    +0.000 C 
ENDBRANCH  10  19
ENDBRANCH   1  14
BRANCH   7  20
ATOM     20  O   UNL     1      -0.233  11.611  19.152  0.00  0.00    +0.000 OA
BRANCH  20  21
ATOM     21  C   UNL     1      -1.567  11.925  18.714  0.00  0.00    +0.000 C 
BRANCH  21  22
ATOM     22  C   UNL     1      -2.124  10.756  17.919  0.00  0.00    +0.000 C 
ATOM     23  N   UNL     1      -2.587   9.786  17.259  0.00  0.00    +0.000 NA
ENDBRANCH  21  22
ENDBRANCH  20  21
ENDBRANCH   7  20
TORSDOF 5
ENDMDL
MODEL 8
REMARK VINA RESULT:      -6.9      2.257      3.342
REMARK  Name = 
REMARK  6 active torsions:
REMARK  status: ('A' for Active; 'I' for Inactive)
REMARK    1  A    between atoms: C_1  and  C_2
REMARK    2  A    between atoms: C_2  and  C_3
REMARK    3  A    between atoms: C_7  and  C_8
REMARK    4  A    between atoms: C_14  and  O_15
REMARK    5  A    between atoms: O_15  and  C_16
REMARK    6  A    between atoms: C_16  and  C_17
REMARK                            x       y       z     vdW  Elec       q    Type
REMARK                         _______ _______ _______ _____ _____    ______ ____
ROOT
ATOM      1  C   UNL     1       2.124   6.890  20.144  0.00  0.00    +0.000 A 
ATOM      2  C   UNL     1       1.667   5.721  20.719  0.00  0.00    +0.000 A 
ATOM      3  C   UNL     1       2.473   4.671  20.216  0.00  0.00    +0.000 A 
ATOM      4  C   UNL     1       2.495   3.278  20.387  0.00  0.00    +0.000 A 
ATOM      5  C   UNL     1       3.489   2.542  19.734  0.00  0.00    +0.000 A 
ATOM      6  C   UNL     1       4.458   3.173  18.946  0.00  0.00    +0.000 A 
ATOM      7  C   UNL     1       4.470   4.566  18.764  0.00  0.00    +0.000 A 
ATOM      8  C   UNL     1       3.428   5.268  19.397  0.00  0.00    +0.000 A 
ATOM      9  O   UNL     1       3.195   6.617  19.335  0.00  0.00    +0.000 OA
ENDROOT
BRANCH   1  14
ATOM     10  C   UNL     1      -0.081  11.932  21.397  0.00  0.00    +0.000 A 
ATOM     11  N   UNL     1       0.249  10.952  22.194  0.00  0.00    +0.000 NA
ATOM     12  N   UNL     1       0.705   9.967  21.385  0.00  0.00    +0.000 N 
ATOM     13  C   UNL     1       1.198   8.727  21.645  0.00  0.00    +0.000 A 
ATOM     14  C   UNL     1       1.532   8.231  20.394  0.00  0.00    +0.000 A 
ATOM     15  N   UNL     1       1.249   9.141  19.385  0.00  0.00    +0.000 NA
ATOM     16  C   UNL     1       0.748  10.150  20.044  0.00  0.00    +0.000 A 
ATOM     17  S   UNL     1       0.140  11.698  19.643  0.00  0.00    +0.000 S 
BRANCH  10  19
ATOM     18  C   UNL     1      -1.348  13.089  23.183  0.00  0.00    +0.000 C 
ATOM     19  C   UNL     1      -0.585  13.258  21.880  0.00  0.00    +0.000 C 
ENDBRANCH  10  19
ENDBRANCH   1  14
BRANCH   7  20
ATOM     20  O   UNL     1       5.381   5.243  17.993  0.00  0.00    +0.000 OA
BRANCH  20  21
ATOM     21  C   UNL     1       6.611   4.556  17.696  0.00  0.00    +0.000 C 
BRANCH  21  22
ATOM     22  C   UNL     1       7.064   4.922  16.293  0.00  0.00    +0.000 C 
ATOM     23  N   UNL     1       7.440   5.226  15.128  0.00  0.00    +0.000 NA
ENDBRANCH  21  22
ENDBRANCH  20  21
ENDBRANCH   7  20
TORSDOF 5
ENDMDL
MODEL 9
REMARK VINA RESULT:      -6.9      2.208      2.981
REMARK  Name = 
REMARK  6 active torsions:
REMARK  status: ('A' for Active; 'I' for Inactive)
REMARK    1  A    between atoms: C_1  and  C_2
REMARK    2  A    between atoms: C_2  and  C_3
REMARK    3  A    between atoms: C_7  and  C_8
REMARK    4  A    between atoms: C_14  and  O_15
REMARK    5  A    between atoms: O_15  and  C_16
REMARK    6  A    between atoms: C_16  and  C_17
REMARK                            x       y       z     vdW  Elec       q    Type
REMARK                         _______ _______ _______ _____ _____    ______ ____
ROOT
ATOM      1  C   UNL     1       2.833   7.170  18.258  0.00  0.00    +0.000 A 
ATOM      2  C   UNL     1       2.481   5.837  18.200  0.00  0.00    +0.000 A 
ATOM      3  C   UNL     1       3.515   5.167  17.503  0.00  0.00    +0.000 A 
ATOM      4  C   UNL     1       3.732   3.840  17.100  0.00  0.00    +0.000 A 
ATOM      5  C   UNL     1       4.923   3.531  16.436  0.00  0.00    +0.000 A 
ATOM      6  C   UNL     1       5.895   4.510  16.198  0.00  0.00    +0.000 A 
ATOM      7  C   UNL     1       5.714   5.844  16.600  0.00  0.00    +0.000 A 
ATOM      8  C   UNL     1       4.484   6.127  17.221  0.00  0.00    +0.000 A 
ATOM      9  O   UNL     1       4.051   7.352  17.659  0.00  0.00    +0.000 OA
ENDROOT
BRANCH   1  14
ATOM     10  C   UNL     1      -0.251  11.058  20.945  0.00  0.00    +0.000 A 
ATOM     11  N   UNL     1       0.324   9.986  21.419  0.00  0.00    +0.000 NA
ATOM     12  N   UNL     1       0.912   9.392  20.354  0.00  0.00    +0.000 N 
ATOM     13  C   UNL     1       1.661   8.265  20.237  0.00  0.00    +0.000 A 
ATOM     14  C   UNL     1       2.002   8.227  18.894  0.00  0.00    +0.000 A 
ATOM     15  N   UNL     1       1.471   9.304  18.196  0.00  0.00    +0.000 NA
ATOM     16  C   UNL     1       0.824   9.953  19.124  0.00  0.00    +0.000 A 
ATOM     17  S   UNL     1      -0.110  11.385  19.198  0.00  0.00    +0.000 S 
BRANCH  10  19
ATOM     18  C   UNL     1      -1.562  11.371  23.024  0.00  0.00    +0.000 C 
ATOM     19  C   UNL     1      -0.978  12.054  21.798  0.00  0.00    +0.000 C 
ENDBRANCH  10  19
ENDBRANCH   1  14
BRANCH   7  20
ATOM     20  O   UNL     1       6.618   6.852  16.382  0.00  0.00    +0.000 OA
BRANCH  20  21
ATOM     21  C   UNL     1       7.283   7.383  17.543  0.00  0.00    +0.000 C 
BRANCH  21  22
ATOM     22  C   UNL     1       7.659   6.243  18.473  0.00  0.00    +0.000 C 
ATOM     23  N   UNL     1       7.973   5.296  19.246  0.00  0.00    +0.000 NA
ENDBRANCH  21  22
ENDBRANCH  20  21
ENDBRANCH   7  20
TORSDOF 5
ENDMDL
