MODEL 1
REMARK VINA RESULT:      -8.7      0.000      0.000
REMARK  Name = 
REMARK  7 active torsions:
REMARK  status: ('A' for Active; 'I' for Inactive)
REMARK    1  A    between atoms: C_1  and  O_2
REMARK    2  A    between atoms: O_2  and  C_3
REMARK    3  A    between atoms: C_7  and  C_8
REMARK    4  A    between atoms: C_9  and  C_10
REMARK    5  A    between atoms: C_13  and  C_14
REMARK    6  A    between atoms: C_17  and  O_18
REMARK    7  A    between atoms: O_18  and  C_19
REMARK                            x       y       z     vdW  Elec       q    Type
REMARK                         _______ _______ _______ _____ _____    ______ ____
ROOT
ATOM      1  C   UNL     1       0.928   9.639  19.381  0.00  0.00    +0.000 A 
ATOM      2  C   UNL     1       1.621   9.925  18.208  0.00  0.00    +0.000 A 
ATOM      3  C   UNL     1       2.551   9.011  17.724  0.00  0.00    +0.000 A 
ATOM      4  C   UNL     1       2.765   7.818  18.417  0.00  0.00    +0.000 A 
ATOM      5  N   UNL     1       2.131   7.549  19.587  0.00  0.00    +0.000 NA
ATOM      6  C   UNL     1       1.248   8.466  20.050  0.00  0.00    +0.000 A 
ENDROOT
BRANCH   1  13
ATOM      7  C   UNL     1      -3.141  13.969  22.169  0.00  0.00    +0.000 A 
ATOM      8  C   UNL     1      -3.190  13.251  20.968  0.00  0.00    +0.000 A 
ATOM      9  C   UNL     1      -2.173  12.355  20.631  0.00  0.00    +0.000 A 
ATOM     10  N   UNL     1      -2.251  11.605  19.456  0.00  0.00    +0.000 N 
ATOM     11  C   UNL     1      -1.248  10.745  19.061  0.00  0.00    +0.000 A 
ATOM     12  C   UNL     1      -1.446  10.089  17.711  0.00  0.00    +0.000 C 
ATOM     13  C   UNL     1      -0.157  10.511  19.829  0.00  0.00    +0.000 A 
ATOM     14  C   UNL     1      -0.037  11.220  21.144  0.00  0.00    +0.000 A 
ATOM     15  O   UNL     1       0.911  11.025  21.899  0.00  0.00    +0.000 OA
ATOM     16  C   UNL     1      -1.095  12.184  21.508  0.00  0.00    +0.000 A 
ATOM     17  C   UNL     1      -1.014  12.914  22.699  0.00  0.00    +0.000 A 
ATOM     18  C   UNL     1      -2.035  13.812  23.020  0.00  0.00    +0.000 A 
ATOM     19 CL   UNL     1      -1.906  14.693  24.499  0.00  0.00    +0.000 Cl
ATOM     20  H   UNL     1      -2.991  11.814  18.796  0.00  0.00    +0.000 HD
BRANCH   7  22
ATOM     21  C   UNL     1      -5.309  14.257  23.066  0.00  0.00    +0.000 C 
ATOM     22  O   UNL     1      -4.121  14.850  22.547  0.00  0.00    +0.000 OA
ENDBRANCH   7  22
ENDBRANCH   1  13
BRANCH   4  23
ATOM     23  C   UNL     1       3.576   6.723  17.849  0.00  0.00    +0.000 A 
ATOM     24  C   UNL     1       4.832   6.948  17.265  0.00  0.00    +0.000 A 
ATOM     25  C   UNL     1       5.514   5.922  16.605  0.00  0.00    +0.000 A 
ATOM     26  C   UNL     1       4.978   4.635  16.533  0.00  0.00    +0.000 A 
ATOM     27  C   UNL     1       3.742   4.387  17.120  0.00  0.00    +0.000 A 
ATOM     28  C   UNL     1       3.064   5.414  17.789  0.00  0.00    +0.000 A 
BRANCH  26  29
ATOM     29  O   UNL     1       5.728   3.757  15.818  0.00  0.00    +0.000 OA
BRANCH  29  30
ATOM     30  C   UNL     1       6.057   4.038  14.467  0.00  0.00    +0.000 C 
ATOM     31  F   UNL     1       5.118   4.736  13.797  0.00  0.00    +0.000 F 
ATOM     32  F   UNL     1       7.223   4.718  14.423  0.00  0.00    +0.000 F 
ATOM     33  F   UNL     1       6.234   2.862  13.824  0.00  0.00    +0.000 F 
ENDBRANCH  29  30
ENDBRANCH  26  29
ENDBRANCH   4  23
TORSDOF 5
ENDMDL
MODEL 2
REMARK VINA RESULT:      -8.2      2.254      2.872
REMARK  Name = 
REMARK  7 active torsions:
REMARK  status: ('A' for Active; 'I' for Inactive)
REMARK    1  A    between atoms: C_1  and  O_2
REMARK    2  A    between atoms: O_2  and  C_3
REMARK    3  A    between atoms: C_7  and  C_8
REMARK    4  A    between atoms: C_9  and  C_10
REMARK    5  A    between atoms: C_13  and  C_14
REMARK    6  A    between atoms: C_17  and  O_18
REMARK    7  A    between atoms: O_18  and  C_19
REMARK                            x       y       z     vdW  Elec       q    Type
REMARK                         _______ _______ _______ _____ _____    ______ ____
ROOT
ATOM      1  C   UNL     1       0.587   9.928  19.057  0.00  0.00    +0.000 A 
ATOM      2  C   UNL     1       1.376  10.169  17.935  0.00  0.00    +0.000 A 
ATOM      3  C   UNL     1       2.363   9.254  17.586  0.00  0.00    +0.000 A 
ATOM      4  C   UNL     1       2.540   8.106  18.360  0.00  0.00    +0.000 A 
ATOM      5  N   UNL     1       1.809   7.884  19.483  0.00  0.00    +0.000 NA
ATOM      6  C   UNL     1       0.870   8.801  19.816  0.00  0.00    +0.000 A 
ENDROOT
BRANCH   1  13
ATOM      7  C   UNL     1      -5.143  13.056  19.743  0.00  0.00    +0.000 A 
ATOM      8  C   UNL     1      -3.930  13.123  20.440  0.00  0.00    +0.000 A 
ATOM      9  C   UNL     1      -2.839  12.343  20.050  0.00  0.00    +0.000 A 
ATOM     10  N   UNL     1      -1.618  12.450  20.718  0.00  0.00    +0.000 N 
ATOM     11  C   UNL     1      -0.530  11.665  20.397  0.00  0.00    +0.000 A 
ATOM     12  C   UNL     1       0.682  11.837  21.287  0.00  0.00    +0.000 C 
ATOM     13  C   UNL     1      -0.551  10.795  19.359  0.00  0.00    +0.000 A 
ATOM     14  C   UNL     1      -1.803  10.679  18.543  0.00  0.00    +0.000 A 
ATOM     15  O   UNL     1      -1.874   9.933  17.571  0.00  0.00    +0.000 OA
ATOM     16  C   UNL     1      -2.972  11.484  18.953  0.00  0.00    +0.000 A 
ATOM     17  C   UNL     1      -4.184  11.381  18.262  0.00  0.00    +0.000 A 
ATOM     18  C   UNL     1      -5.269  12.163  18.667  0.00  0.00    +0.000 A 
ATOM     19 CL   UNL     1      -6.749  12.015  17.790  0.00  0.00    +0.000 Cl
ATOM     20  H   UNL     1      -1.574  13.008  21.563  0.00  0.00    +0.000 HD
BRANCH   7  22
ATOM     21  C   UNL     1      -7.068  13.258  21.100  0.00  0.00    +0.000 C 
ATOM     22  O   UNL     1      -6.236  13.810  20.082  0.00  0.00    +0.000 OA
ENDBRANCH   7  22
ENDBRANCH   1  13
BRANCH   4  23
ATOM     23  C   UNL     1       3.420   7.003  17.927  0.00  0.00    +0.000 A 
ATOM     24  C   UNL     1       4.729   7.225  17.473  0.00  0.00    +0.000 A 
ATOM     25  C   UNL     1       5.490   6.185  16.932  0.00  0.00    +0.000 A 
ATOM     26  C   UNL     1       4.980   4.888  16.855  0.00  0.00    +0.000 A 
ATOM     27  C   UNL     1       3.692   4.643  17.314  0.00  0.00    +0.000 A 
ATOM     28  C   UNL     1       2.933   5.685  17.865  0.00  0.00    +0.000 A 
BRANCH  26  29
ATOM     29  O   UNL     1       5.814   3.995  16.260  0.00  0.00    +0.000 OA
BRANCH  29  30
ATOM     30  C   UNL     1       6.189   4.167  14.903  0.00  0.00    +0.000 C 
ATOM     31  F   UNL     1       6.301   3.020  14.204  0.00  0.00    +0.000 F 
ATOM     32  F   UNL     1       5.292   4.969  14.289  0.00  0.00    +0.000 F 
ATOM     33  F   UNL     1       7.392   4.786  14.874  0.00  0.00    +0.000 F 
ENDBRANCH  29  30
ENDBRANCH  26  29
ENDBRANCH   4  23
TORSDOF 5
ENDMDL
MODEL 3
REMARK VINA RESULT:      -8.2      0.908      1.307
REMARK  Name = 
REMARK  7 active torsions:
REMARK  status: ('A' for Active; 'I' for Inactive)
REMARK    1  A    between atoms: C_1  and  O_2
REMARK    2  A    between atoms: O_2  and  C_3
REMARK    3  A    between atoms: C_7  and  C_8
REMARK    4  A    between atoms: C_9  and  C_10
REMARK    5  A    between atoms: C_13  and  C_14
REMARK    6  A    between atoms: C_17  and  O_18
REMARK    7  A    between atoms: O_18  and  C_19
REMARK                            x       y       z     vdW  Elec       q    Type
REMARK                         _______ _______ _______ _____ _____    ______ ____
ROOT
ATOM      1  C   UNL     1       0.272  10.274  19.728  0.00  0.00    +0.000 A 
ATOM      2  C   UNL     1       0.960  10.598  18.563  0.00  0.00    +0.000 A 
ATOM      3  C   UNL     1       1.866   9.688  18.029  0.00  0.00    +0.000 A 
ATOM      4  C   UNL     1       2.062   8.461  18.667  0.00  0.00    +0.000 A 
ATOM      5  N   UNL     1       1.433   8.154  19.830  0.00  0.00    +0.000 NA
ATOM      6  C   UNL     1       0.573   9.067  20.342  0.00  0.00    +0.000 A 
ENDROOT
BRANCH   1  13
ATOM      7  C   UNL     1      -3.700  14.517  22.780  0.00  0.00    +0.000 A 
ATOM      8  C   UNL     1      -3.749  13.898  21.524  0.00  0.00    +0.000 A 
ATOM      9  C   UNL     1      -2.757  12.995  21.135  0.00  0.00    +0.000 A 
ATOM     10  N   UNL     1      -2.837  12.344  19.903  0.00  0.00    +0.000 N 
ATOM     11  C   UNL     1      -1.857  11.482  19.459  0.00  0.00    +0.000 A 
ATOM     12  C   UNL     1      -2.050  10.943  18.058  0.00  0.00    +0.000 C 
ATOM     13  C   UNL     1      -0.791  11.148  20.225  0.00  0.00    +0.000 A 
ATOM     14  C   UNL     1      -0.674  11.746  21.594  0.00  0.00    +0.000 A 
ATOM     15  O   UNL     1       0.251  11.457  22.348  0.00  0.00    +0.000 OA
ATOM     16  C   UNL     1      -1.705  12.717  22.015  0.00  0.00    +0.000 A 
ATOM     17  C   UNL     1      -1.623  13.346  23.261  0.00  0.00    +0.000 A 
ATOM     18  C   UNL     1      -2.618  14.253  23.635  0.00  0.00    +0.000 A 
ATOM     19 CL   UNL     1      -2.489  15.009  25.182  0.00  0.00    +0.000 Cl
ATOM     20  H   UNL     1      -3.556  12.631  19.248  0.00  0.00    +0.000 HD
BRANCH   7  22
ATOM     21  C   UNL     1      -5.883  14.814  23.637  0.00  0.00    +0.000 C 
ATOM     22  O   UNL     1      -4.656  15.401  23.209  0.00  0.00    +0.000 OA
ENDBRANCH   7  22
ENDBRANCH   1  13
BRANCH   4  23
ATOM     23  C   UNL     1       2.845   7.377  18.043  0.00  0.00    +0.000 A 
ATOM     24  C   UNL     1       2.505   6.024  18.200  0.00  0.00    +0.000 A 
ATOM     25  C   UNL     1       3.343   5.011  17.724  0.00  0.00    +0.000 A 
ATOM     26  C   UNL     1       4.528   5.317  17.053  0.00  0.00    +0.000 A 
ATOM     27  C   UNL     1       4.874   6.651  16.872  0.00  0.00    +0.000 A 
ATOM     28  C   UNL     1       4.029   7.665  17.341  0.00  0.00    +0.000 A 
BRANCH  26  29
ATOM     29  O   UNL     1       5.261   4.231  16.694  0.00  0.00    +0.000 OA
BRANCH  29  30
ATOM     30  C   UNL     1       5.933   4.209  15.444  0.00  0.00    +0.000 C 
ATOM     31  F   UNL     1       5.283   4.843  14.448  0.00  0.00    +0.000 F 
ATOM     32  F   UNL     1       7.159   4.758  15.586  0.00  0.00    +0.000 F 
ATOM     33  F   UNL     1       6.093   2.917  15.076  0.00  0.00    +0.000 F 
ENDBRANCH  29  30
ENDBRANCH  26  29
ENDBRANCH   4  23
TORSDOF 5
ENDMDL
MODEL 4
REMARK VINA RESULT:      -8.2      1.325      1.705
REMARK  Name = 
REMARK  7 active torsions:
REMARK  status: ('A' for Active; 'I' for Inactive)
REMARK    1  A    between atoms: C_1  and  O_2
REMARK    2  A    between atoms: O_2  and  C_3
REMARK    3  A    between atoms: C_7  and  C_8
REMARK    4  A    between atoms: C_9  and  C_10
REMARK    5  A    between atoms: C_13  and  C_14
REMARK    6  A    between atoms: C_17  and  O_18
REMARK    7  A    between atoms: O_18  and  C_19
REMARK                            x       y       z     vdW  Elec       q    Type
REMARK                         _______ _______ _______ _____ _____    ______ ____
ROOT
ATOM      1  C   UNL     1       0.298  10.091  19.733  0.00  0.00    +0.000 A 
ATOM      2  C   UNL     1       0.977  10.322  18.540  0.00  0.00    +0.000 A 
ATOM      3  C   UNL     1       1.961   9.428  18.131  0.00  0.00    +0.000 A 
ATOM      4  C   UNL     1       2.243   8.310  18.918  0.00  0.00    +0.000 A 
ATOM      5  N   UNL     1       1.622   8.100  20.107  0.00  0.00    +0.000 NA
ATOM      6  C   UNL     1       0.684   8.998  20.495  0.00  0.00    +0.000 A 
ENDROOT
BRANCH   1  13
ATOM      7  C   UNL     1      -4.084  14.253  22.294  0.00  0.00    +0.000 A 
ATOM      8  C   UNL     1      -4.008  13.585  21.065  0.00  0.00    +0.000 A 
ATOM      9  C   UNL     1      -2.950  12.716  20.791  0.00  0.00    +0.000 A 
ATOM     10  N   UNL     1      -2.904  12.015  19.584  0.00  0.00    +0.000 N 
ATOM     11  C   UNL     1      -1.855  11.184  19.253  0.00  0.00    +0.000 A 
ATOM     12  C   UNL     1      -1.914  10.583  17.865  0.00  0.00    +0.000 C 
ATOM     13  C   UNL     1      -0.838  10.931  20.111  0.00  0.00    +0.000 A 
ATOM     14  C   UNL     1      -0.855  11.587  21.459  0.00  0.00    +0.000 A 
ATOM     15  O   UNL     1       0.021  11.372  22.292  0.00  0.00    +0.000 OA
ATOM     16  C   UNL     1      -1.958  12.522  21.759  0.00  0.00    +0.000 A 
ATOM     17  C   UNL     1      -2.001  13.203  22.980  0.00  0.00    +0.000 A 
ATOM     18  C   UNL     1      -3.062  14.074  23.239  0.00  0.00    +0.000 A 
ATOM     19 CL   UNL     1      -3.087  14.895  24.757  0.00  0.00    +0.000 Cl
ATOM     20  H   UNL     1      -3.582  12.242  18.865  0.00  0.00    +0.000 HD
BRANCH   7  22
ATOM     21  C   UNL     1      -6.413  14.660  22.241  0.00  0.00    +0.000 C 
ATOM     22  O   UNL     1      -5.110  15.106  22.611  0.00  0.00    +0.000 OA
ENDBRANCH   7  22
ENDBRANCH   1  13
BRANCH   4  23
ATOM     23  C   UNL     1       3.119   7.223  18.440  0.00  0.00    +0.000 A 
ATOM     24  C   UNL     1       3.452   6.123  19.244  0.00  0.00    +0.000 A 
ATOM     25  C   UNL     1       4.398   5.183  18.824  0.00  0.00    +0.000 A 
ATOM     26  C   UNL     1       5.016   5.296  17.578  0.00  0.00    +0.000 A 
ATOM     27  C   UNL     1       4.688   6.369  16.758  0.00  0.00    +0.000 A 
ATOM     28  C   UNL     1       3.733   7.306  17.177  0.00  0.00    +0.000 A 
BRANCH  26  29
ATOM     29  O   UNL     1       5.948   4.339  17.328  0.00  0.00    +0.000 OA
BRANCH  29  30
ATOM     30  C   UNL     1       7.272   4.709  16.980  0.00  0.00    +0.000 C 
ATOM     31  F   UNL     1       7.527   6.030  17.075  0.00  0.00    +0.000 F 
ATOM     32  F   UNL     1       8.145   4.037  17.762  0.00  0.00    +0.000 F 
ATOM     33  F   UNL     1       7.489   4.339  15.697  0.00  0.00    +0.000 F 
ENDBRANCH  29  30
ENDBRANCH  26  29
ENDBRANCH   4  23
TORSDOF 5
ENDMDL
MODEL 5
REMARK VINA RESULT:      -8.2      2.687      3.022
REMARK  Name = 
REMARK  7 active torsions:
REMARK  status: ('A' for Active; 'I' for Inactive)
REMARK    1  A    between atoms: C_1  and  O_2
REMARK    2  A    between atoms: O_2  and  C_3
REMARK    3  A    between atoms: C_7  and  C_8
REMARK    4  A    between atoms: C_9  and  C_10
REMARK    5  A    between atoms: C_13  and  C_14
REMARK    6  A    between atoms: C_17  and  O_18
REMARK    7  A    between atoms: O_18  and  C_19
REMARK                            x       y       z     vdW  Elec       q    Type
REMARK                         _______ _______ _______ _____ _____    ______ ____
ROOT
ATOM      1  C   UNL     1       0.919  10.336  19.444  0.00  0.00    +0.000 A 
ATOM      2  C   UNL     1       1.517  10.229  18.192  0.00  0.00    +0.000 A 
ATOM      3  C   UNL     1       2.131   9.035  17.828  0.00  0.00    +0.000 A 
ATOM      4  C   UNL     1       2.127   7.962  18.721  0.00  0.00    +0.000 A 
ATOM      5  N   UNL     1       1.589   8.069  19.963  0.00  0.00    +0.000 NA
ATOM      6  C   UNL     1       1.018   9.250  20.302  0.00  0.00    +0.000 A 
ENDROOT
BRANCH   1  13
ATOM      7  C   UNL     1      -1.522  16.125  21.342  0.00  0.00    +0.000 A 
ATOM      8  C   UNL     1      -2.032  15.090  20.549  0.00  0.00    +0.000 A 
ATOM      9  C   UNL     1      -1.286  13.930  20.327  0.00  0.00    +0.000 A 
ATOM     10  N   UNL     1      -1.818  12.880  19.575  0.00  0.00    +0.000 N 
ATOM     11  C   UNL     1      -1.099  11.738  19.292  0.00  0.00    +0.000 A 
ATOM     12  C   UNL     1      -1.788  10.745  18.380  0.00  0.00    +0.000 C 
ATOM     13  C   UNL     1       0.142  11.525  19.791  0.00  0.00    +0.000 A 
ATOM     14  C   UNL     1       0.751  12.573  20.672  0.00  0.00    +0.000 A 
ATOM     15  O   UNL     1       1.858  12.424  21.181  0.00  0.00    +0.000 OA
ATOM     16  C   UNL     1      -0.016  13.814  20.903  0.00  0.00    +0.000 A 
ATOM     17  C   UNL     1       0.522  14.849  21.675  0.00  0.00    +0.000 A 
ATOM     18  C   UNL     1      -0.232  16.007  21.884  0.00  0.00    +0.000 A 
ATOM     19 CL   UNL     1       0.458  17.264  22.844  0.00  0.00    +0.000 Cl
ATOM     20  H   UNL     1      -2.698  13.025  19.094  0.00  0.00    +0.000 HD
BRANCH   7  22
ATOM     21  C   UNL     1      -3.180  17.190  22.649  0.00  0.00    +0.000 C 
ATOM     22  O   UNL     1      -2.222  17.276  21.597  0.00  0.00    +0.000 OA
ENDBRANCH   7  22
ENDBRANCH   1  13
BRANCH   4  23
ATOM     23  C   UNL     1       2.572   6.613  18.319  0.00  0.00    +0.000 A 
ATOM     24  C   UNL     1       1.665   5.585  18.019  0.00  0.00    +0.000 A 
ATOM     25  C   UNL     1       2.107   4.280  17.784  0.00  0.00    +0.000 A 
ATOM     26  C   UNL     1       3.467   3.968  17.812  0.00  0.00    +0.000 A 
ATOM     27  C   UNL     1       4.384   4.975  18.090  0.00  0.00    +0.000 A 
ATOM     28  C   UNL     1       3.939   6.285  18.316  0.00  0.00    +0.000 A 
BRANCH  26  29
ATOM     29  O   UNL     1       3.742   2.652  17.615  0.00  0.00    +0.000 OA
BRANCH  29  30
ATOM     30  C   UNL     1       3.547   1.720  18.667  0.00  0.00    +0.000 C 
ATOM     31  F   UNL     1       2.257   1.517  19.003  0.00  0.00    +0.000 F 
ATOM     32  F   UNL     1       4.101   0.537  18.325  0.00  0.00    +0.000 F 
ATOM     33  F   UNL     1       4.190   2.182  19.763  0.00  0.00    +0.000 F 
ENDBRANCH  29  30
ENDBRANCH  26  29
ENDBRANCH   4  23
TORSDOF 5
ENDMDL
MODEL 6
REMARK VINA RESULT:      -8.1      2.860      3.559
REMARK  Name = 
REMARK  7 active torsions:
REMARK  status: ('A' for Active; 'I' for Inactive)
REMARK    1  A    between atoms: C_1  and  O_2
REMARK    2  A    between atoms: O_2  and  C_3
REMARK    3  A    between atoms: C_7  and  C_8
REMARK    4  A    between atoms: C_9  and  C_10
REMARK    5  A    between atoms: C_13  and  C_14
REMARK    6  A    between atoms: C_17  and  O_18
REMARK    7  A    between atoms: O_18  and  C_19
REMARK                            x       y       z     vdW  Elec       q    Type
REMARK                         _______ _______ _______ _____ _____    ______ ____
ROOT
ATOM      1  C   UNL     1       0.028  10.358  19.349  0.00  0.00    +0.000 A 
ATOM      2  C   UNL     1       0.794  10.536  18.202  0.00  0.00    +0.000 A 
ATOM      3  C   UNL     1       1.829   9.649  17.927  0.00  0.00    +0.000 A 
ATOM      4  C   UNL     1       2.073   8.588  18.801  0.00  0.00    +0.000 A 
ATOM      5  N   UNL     1       1.364   8.432  19.948  0.00  0.00    +0.000 NA
ATOM      6  C   UNL     1       0.377   9.324  20.206  0.00  0.00    +0.000 A 
ENDROOT
BRANCH   1  13
ATOM      7  C   UNL     1      -5.826  13.310  19.668  0.00  0.00    +0.000 A 
ATOM      8  C   UNL     1      -4.672  13.394  20.457  0.00  0.00    +0.000 A 
ATOM      9  C   UNL     1      -3.533  12.653  20.133  0.00  0.00    +0.000 A 
ATOM     10  N   UNL     1      -2.368  12.778  20.894  0.00  0.00    +0.000 N 
ATOM     11  C   UNL     1      -1.237  12.031  20.639  0.00  0.00    +0.000 A 
ATOM     12  C   UNL     1      -0.100  12.216  21.621  0.00  0.00    +0.000 C 
ATOM     13  C   UNL     1      -1.155  11.186  19.583  0.00  0.00    +0.000 A 
ATOM     14  C   UNL     1      -2.339  11.056  18.673  0.00  0.00    +0.000 A 
ATOM     15  O   UNL     1      -2.314  10.331  17.683  0.00  0.00    +0.000 OA
ATOM     16  C   UNL     1      -3.558  11.818  19.010  0.00  0.00    +0.000 A 
ATOM     17  C   UNL     1      -4.711  11.699  18.228  0.00  0.00    +0.000 A 
ATOM     18  C   UNL     1      -5.845  12.440  18.566  0.00  0.00    +0.000 A 
ATOM     19 CL   UNL     1      -7.250  12.273  17.577  0.00  0.00    +0.000 Cl
ATOM     20  H   UNL     1      -2.404  13.316  21.752  0.00  0.00    +0.000 HD
BRANCH   7  22
ATOM     21  C   UNL     1      -6.972  15.367  19.455  0.00  0.00    +0.000 C 
ATOM     22  O   UNL     1      -6.963  14.026  19.940  0.00  0.00    +0.000 OA
ENDBRANCH   7  22
ENDBRANCH   1  13
BRANCH   4  23
ATOM     23  C   UNL     1       3.011   7.500  18.462  0.00  0.00    +0.000 A 
ATOM     24  C   UNL     1       3.289   6.449  19.349  0.00  0.00    +0.000 A 
ATOM     25  C   UNL     1       4.287   5.512  19.066  0.00  0.00    +0.000 A 
ATOM     26  C   UNL     1       5.016   5.578  17.877  0.00  0.00    +0.000 A 
ATOM     27  C   UNL     1       4.744   6.601  16.977  0.00  0.00    +0.000 A 
ATOM     28  C   UNL     1       3.737   7.534  17.258  0.00  0.00    +0.000 A 
BRANCH  26  29
ATOM     29  O   UNL     1       5.985   4.632  17.763  0.00  0.00    +0.000 OA
BRANCH  29  30
ATOM     30  C   UNL     1       7.351   4.995  17.887  0.00  0.00    +0.000 C 
ATOM     31  F   UNL     1       7.701   6.097  17.195  0.00  0.00    +0.000 F 
ATOM     32  F   UNL     1       7.646   5.184  19.192  0.00  0.00    +0.000 F 
ATOM     33  F   UNL     1       8.102   3.966  17.433  0.00  0.00    +0.000 F 
ENDBRANCH  29  30
ENDBRANCH  26  29
ENDBRANCH   4  23
TORSDOF 5
ENDMDL
MODEL 7
REMARK VINA RESULT:      -8.1      2.769      3.307
REMARK  Name = 
REMARK  7 active torsions:
REMARK  status: ('A' for Active; 'I' for Inactive)
REMARK    1  A    between atoms: C_1  and  O_2
REMARK    2  A    between atoms: O_2  and  C_3
REMARK    3  A    between atoms: C_7  and  C_8
REMARK    4  A    between atoms: C_9  and  C_10
REMARK    5  A    between atoms: C_13  and  C_14
REMARK    6  A    between atoms: C_17  and  O_18
REMARK    7  A    between atoms: O_18  and  C_19
REMARK                            x       y       z     vdW  Elec       q    Type
REMARK                         _______ _______ _______ _____ _____    ______ ____
ROOT
ATOM      1  C   UNL     1       0.899  10.319  19.387  0.00  0.00    +0.000 A 
ATOM      2  C   UNL     1       1.397  10.179  18.095  0.00  0.00    +0.000 A 
ATOM      3  C   UNL     1       2.025   8.993  17.730  0.00  0.00    +0.000 A 
ATOM      4  C   UNL     1       2.135   7.960  18.663  0.00  0.00    +0.000 A 
ATOM      5  N   UNL     1       1.697   8.102  19.940  0.00  0.00    +0.000 NA
ATOM      6  C   UNL     1       1.110   9.276  20.277  0.00  0.00    +0.000 A 
ENDROOT
BRANCH   1  13
ATOM      7  C   UNL     1      -3.580  14.839  20.997  0.00  0.00    +0.000 A 
ATOM      8  C   UNL     1      -2.182  14.812  21.074  0.00  0.00    +0.000 A 
ATOM      9  C   UNL     1      -1.464  13.702  20.623  0.00  0.00    +0.000 A 
ATOM     10  N   UNL     1      -0.068  13.700  20.657  0.00  0.00    +0.000 N 
ATOM     11  C   UNL     1       0.677  12.608  20.266  0.00  0.00    +0.000 A 
ATOM     12  C   UNL     1       2.173  12.737  20.463  0.00  0.00    +0.000 C 
ATOM     13  C   UNL     1       0.107  11.494  19.749  0.00  0.00    +0.000 A 
ATOM     14  C   UNL     1      -1.385  11.449  19.609  0.00  0.00    +0.000 A 
ATOM     15  O   UNL     1      -1.958  10.481  19.118  0.00  0.00    +0.000 OA
ATOM     16  C   UNL     1      -2.160  12.608  20.096  0.00  0.00    +0.000 A 
ATOM     17  C   UNL     1      -3.558  12.603  20.039  0.00  0.00    +0.000 A 
ATOM     18  C   UNL     1      -4.263  13.718  20.499  0.00  0.00    +0.000 A 
ATOM     19 CL   UNL     1      -5.987  13.682  20.409  0.00  0.00    +0.000 Cl
ATOM     20  H   UNL     1       0.406  14.462  21.126  0.00  0.00    +0.000 HD
BRANCH   7  22
ATOM     21  C   UNL     1      -4.487  16.027  22.829  0.00  0.00    +0.000 C 
ATOM     22  O   UNL     1      -4.325  15.910  21.417  0.00  0.00    +0.000 OA
ENDBRANCH   7  22
ENDBRANCH   1  13
BRANCH   4  23
ATOM     23  C   UNL     1       2.598   6.611  18.280  0.00  0.00    +0.000 A 
ATOM     24  C   UNL     1       1.706   5.559  18.025  0.00  0.00    +0.000 A 
ATOM     25  C   UNL     1       2.169   4.258  17.808  0.00  0.00    +0.000 A 
ATOM     26  C   UNL     1       3.536   3.974  17.810  0.00  0.00    +0.000 A 
ATOM     27  C   UNL     1       4.437   5.005  18.044  0.00  0.00    +0.000 A 
ATOM     28  C   UNL     1       3.972   6.311  18.252  0.00  0.00    +0.000 A 
BRANCH  26  29
ATOM     29  O   UNL     1       3.833   2.660  17.636  0.00  0.00    +0.000 OA
BRANCH  29  30
ATOM     30  C   UNL     1       3.564   1.727  18.671  0.00  0.00    +0.000 C 
ATOM     31  F   UNL     1       2.254   1.498  18.892  0.00  0.00    +0.000 F 
ATOM     32  F   UNL     1       4.172   0.555  18.386  0.00  0.00    +0.000 F 
ATOM     33  F   UNL     1       4.098   2.207  19.818  0.00  0.00    +0.000 F 
ENDBRANCH  29  30
ENDBRANCH  26  29
ENDBRANCH   4  23
TORSDOF 5
ENDMDL
MODEL 8
REMARK VINA RESULT:      -8.1      1.425      1.746
REMARK  Name = 
REMARK  7 active torsions:
REMARK  status: ('A' for Active; 'I' for Inactive)
REMARK    1  A    between atoms: C_1  and  O_2
REMARK    2  A    between atoms: O_2  and  C_3
REMARK    3  A    between atoms: C_7  and  C_8
REMARK    4  A    between atoms: C_9  and  C_10
REMARK    5  A    between atoms: C_13  and  C_14
REMARK    6  A    between atoms: C_17  and  O_18
REMARK    7  A    between atoms: O_18  and  C_19
REMARK                            x       y       z     vdW  Elec       q    Type
REMARK                         _______ _______ _______ _____ _____    ______ ____
ROOT
ATOM      1  C   UNL     1       0.727   9.885  19.283  0.00  0.00    +0.000 A 
ATOM      2  C   UNL     1       1.040   8.837  20.144  0.00  0.00    +0.000 A 
ATOM      3  C   UNL     1       1.858   7.806  19.695  0.00  0.00    +0.000 A 
ATOM      4  C   UNL     1       2.359   7.845  18.392  0.00  0.00    +0.000 A 
ATOM      5  N   UNL     1       2.022   8.837  17.528  0.00  0.00    +0.000 NA
ATOM      6  C   UNL     1       1.204   9.817  17.982  0.00  0.00    +0.000 A 
ENDROOT
BRANCH   1  13
ATOM      7  C   UNL     1      -1.488  15.533  21.789  0.00  0.00    +0.000 A 
ATOM      8  C   UNL     1      -2.068  14.566  20.959  0.00  0.00    +0.000 A 
ATOM      9  C   UNL     1      -1.357  13.420  20.595  0.00  0.00    +0.000 A 
ATOM     10  N   UNL     1      -1.957  12.435  19.808  0.00  0.00    +0.000 N 
ATOM     11  C   UNL     1      -1.277  11.312  19.387  0.00  0.00    +0.000 A 
ATOM     12  C   UNL     1      -2.045  10.397  18.456  0.00  0.00    +0.000 C 
ATOM     13  C   UNL     1      -0.006  11.050  19.776  0.00  0.00    +0.000 A 
ATOM     14  C   UNL     1       0.681  12.023  20.686  0.00  0.00    +0.000 A 
ATOM     15  O   UNL     1       1.820  11.826  21.099  0.00  0.00    +0.000 OA
ATOM     16  C   UNL     1      -0.050  13.249  21.067  0.00  0.00    +0.000 A 
ATOM     17  C   UNL     1       0.557  14.218  21.872  0.00  0.00    +0.000 A 
ATOM     18  C   UNL     1      -0.163  15.363  22.223  0.00  0.00    +0.000 A 
ATOM     19 CL   UNL     1       0.613  16.537  23.222  0.00  0.00    +0.000 Cl
ATOM     20  H   UNL     1      -2.867  12.624  19.405  0.00  0.00    +0.000 HD
BRANCH   7  22
ATOM     21  C   UNL     1      -3.507  16.477  22.575  0.00  0.00    +0.000 C 
ATOM     22  O   UNL     1      -2.151  16.668  22.180  0.00  0.00    +0.000 OA
ENDBRANCH   7  22
ENDBRANCH   1  13
BRANCH   4  23
ATOM     23  C   UNL     1       3.392   6.900  17.926  0.00  0.00    +0.000 A 
ATOM     24  C   UNL     1       4.623   7.332  17.409  0.00  0.00    +0.000 A 
ATOM     25  C   UNL     1       5.523   6.427  16.840  0.00  0.00    +0.000 A 
ATOM     26  C   UNL     1       5.236   5.061  16.797  0.00  0.00    +0.000 A 
ATOM     27  C   UNL     1       4.030   4.610  17.319  0.00  0.00    +0.000 A 
ATOM     28  C   UNL     1       3.132   5.518  17.897  0.00  0.00    +0.000 A 
BRANCH  26  29
ATOM     29  O   UNL     1       6.181   4.312  16.170  0.00  0.00    +0.000 OA
BRANCH  29  30
ATOM     30  C   UNL     1       6.294   4.348  14.757  0.00  0.00    +0.000 C 
ATOM     31  F   UNL     1       6.404   3.136  14.174  0.00  0.00    +0.000 F 
ATOM     32  F   UNL     1       5.223   4.987  14.238  0.00  0.00    +0.000 F 
ATOM     33  F   UNL     1       7.400   5.059  14.441  0.00  0.00    +0.000 F 
ENDBRANCH  29  30
ENDBRANCH  26  29
ENDBRANCH   4  23
TORSDOF 5
ENDMDL
MODEL 9
REMARK VINA RESULT:      -8.0      2.126      2.605
REMARK  Name = 
REMARK  7 active torsions:
REMARK  status: ('A' for Active; 'I' for Inactive)
REMARK    1  A    between atoms: C_1  and  O_2
REMARK    2  A    between atoms: O_2  and  C_3
REMARK    3  A    between atoms: C_7  and  C_8
REMARK    4  A    between atoms: C_9  and  C_10
REMARK    5  A    between atoms: C_13  and  C_14
REMARK    6  A    between atoms: C_17  and  O_18
REMARK    7  A    between atoms: O_18  and  C_19
REMARK                            x       y       z     vdW  Elec       q    Type
REMARK                         _______ _______ _______ _____ _____    ______ ____
ROOT
ATOM      1  C   UNL     1       0.535  10.281  19.523  0.00  0.00    +0.000 A 
ATOM      2  C   UNL     1       0.692   9.260  20.456  0.00  0.00    +0.000 A 
ATOM      3  C   UNL     1       1.462   8.149  20.129  0.00  0.00    +0.000 A 
ATOM      4  C   UNL     1       2.073   8.082  18.876  0.00  0.00    +0.000 A 
ATOM      5  N   UNL     1       1.888   9.048  17.940  0.00  0.00    +0.000 NA
ATOM      6  C   UNL     1       1.114  10.109  18.273  0.00  0.00    +0.000 A 
ENDROOT
BRANCH   1  13
ATOM      7  C   UNL     1      -1.433  16.211  21.533  0.00  0.00    +0.000 A 
ATOM      8  C   UNL     1      -2.023  15.235  20.720  0.00  0.00    +0.000 A 
ATOM      9  C   UNL     1      -1.373  14.024  20.475  0.00  0.00    +0.000 A 
ATOM     10  N   UNL     1      -1.988  13.035  19.704  0.00  0.00    +0.000 N 
ATOM     11  C   UNL     1      -1.363  11.844  19.398  0.00  0.00    +0.000 A 
ATOM     12  C   UNL     1      -2.129  10.928  18.467  0.00  0.00    +0.000 C 
ATOM     13  C   UNL     1      -0.144  11.522  19.893  0.00  0.00    +0.000 A 
ATOM     14  C   UNL     1       0.547  12.500  20.794  0.00  0.00    +0.000 A 
ATOM     15  O   UNL     1       1.638  12.253  21.300  0.00  0.00    +0.000 OA
ATOM     16  C   UNL     1      -0.118  13.794  21.050  0.00  0.00    +0.000 A 
ATOM     17  C   UNL     1       0.501  14.768  21.841  0.00  0.00    +0.000 A 
ATOM     18  C   UNL     1      -0.157  15.978  22.072  0.00  0.00    +0.000 A 
ATOM     19 CL   UNL     1       0.632  17.157  23.056  0.00  0.00    +0.000 Cl
ATOM     20  H   UNL     1      -2.852  13.260  19.225  0.00  0.00    +0.000 HD
BRANCH   7  22
ATOM     21  C   UNL     1      -3.243  17.326  22.567  0.00  0.00    +0.000 C 
ATOM     22  O   UNL     1      -2.038  17.410  21.810  0.00  0.00    +0.000 OA
ENDBRANCH   7  22
ENDBRANCH   1  13
BRANCH   4  23
ATOM     23  C   UNL     1       3.065   7.039  18.548  0.00  0.00    +0.000 A 
ATOM     24  C   UNL     1       3.421   6.033  19.459  0.00  0.00    +0.000 A 
ATOM     25  C   UNL     1       4.466   5.147  19.181  0.00  0.00    +0.000 A 
ATOM     26  C   UNL     1       5.167   5.220  17.977  0.00  0.00    +0.000 A 
ATOM     27  C   UNL     1       4.820   6.199  17.054  0.00  0.00    +0.000 A 
ATOM     28  C   UNL     1       3.765   7.080  17.329  0.00  0.00    +0.000 A 
BRANCH  26  29
ATOM     29  O   UNL     1       6.186   4.328  17.870  0.00  0.00    +0.000 OA
BRANCH  29  30
ATOM     30  C   UNL     1       7.470   4.762  17.449  0.00  0.00    +0.000 C 
ATOM     31  F   UNL     1       8.493   4.018  17.914  0.00  0.00    +0.000 F 
ATOM     32  F   UNL     1       7.517   4.775  16.099  0.00  0.00    +0.000 F 
ATOM     33  F   UNL     1       7.649   6.029  17.886  0.00  0.00    +0.000 F 
ENDBRANCH  29  30
ENDBRANCH  26  29
ENDBRANCH   4  23
TORSDOF 5
ENDMDL
