MODEL 1
REMARK VINA RESULT:      -9.1      0.000      0.000
REMARK  Name = 
REMARK  7 active torsions:
REMARK  status: ('A' for Active; 'I' for Inactive)
REMARK    1  A    between atoms: C_2  and  C_4
REMARK    2  A    between atoms: C_4  and  O_5
REMARK    3  A    between atoms: O_5  and  C_6
REMARK    4  A    between atoms: C_9  and  N_10
REMARK    5  A    between atoms: N_10  and  C_11
REMARK    6  A    between atoms: C_16  and  C_17
REMARK    7  A    between atoms: C_20  and  O_21
REMARK                            x       y       z     vdW  Elec       q    Type
REMARK                         _______ _______ _______ _____ _____    ______ ____
ROOT
ATOM      1  C   UNL     1       1.506   4.309  20.596  0.00  0.00    +0.000 A 
ATOM      2  N   UNL     1       1.528   3.621  21.747  0.00  0.00    +0.000 NA
ATOM      3  N   UNL     1       2.539   2.711  21.929  0.00  0.00    +0.000 NA
ATOM      4  C   UNL     1       3.489   2.575  20.960  0.00  0.00    +0.000 A 
ATOM      5  C   UNL     1       3.385   3.213  19.725  0.00  0.00    +0.000 A 
ATOM      6  C   UNL     1       4.221   3.020  18.598  0.00  0.00    +0.000 A 
ATOM      7  C   UNL     1       3.721   2.128  17.652  0.00  0.00    +0.000 A 
ATOM      8  C   UNL     1       2.350   1.871  17.678  0.00  0.00    +0.000 A 
ATOM      9  C   UNL     1       1.521   2.646  18.538  0.00  0.00    +0.000 A 
ATOM     10  C   UNL     1       2.079   3.546  19.515  0.00  0.00    +0.000 A 
ENDROOT
BRANCH   6  11
ATOM     11  C   UNL     1       4.913   4.213  18.016  0.00  0.00    +0.000 A 
ATOM     12  C   UNL     1       4.466   4.869  16.862  0.00  0.00    +0.000 A 
ATOM     13  C   UNL     1       5.061   6.076  16.450  0.00  0.00    +0.000 A 
ATOM     14  C   UNL     1       6.106   6.627  17.185  0.00  0.00    +0.000 A 
ATOM     15  C   UNL     1       6.590   5.990  18.308  0.00  0.00    +0.000 A 
ATOM     16  C   UNL     1       5.990   4.793  18.724  0.00  0.00    +0.000 A 
BRANCH  14  17
ATOM     17  O   UNL     1       6.682   7.816  16.857  0.00  0.00    +0.000 OA
ATOM     18  H   UNL     1       7.560   7.642  16.482  0.00  0.00    +0.000 HD
ENDBRANCH  14  17
ENDBRANCH   6  11
BRANCH   1  19
ATOM     19  N   UNL     1       2.162   5.649  20.718  0.00  0.00    +0.000 N 
ATOM     20  H   UNL     1       1.863   5.866  21.677  0.00  0.00    +0.000 HD
BRANCH  19  24
ATOM     21  C   UNL     1       1.457   9.560  19.038  0.00  0.00    +0.000 A 
ATOM     22  C   UNL     1       1.012   9.202  20.303  0.00  0.00    +0.000 A 
ATOM     23  C   UNL     1       1.298   7.914  20.820  0.00  0.00    +0.000 A 
ATOM     24  C   UNL     1       2.014   6.929  20.094  0.00  0.00    +0.000 A 
ATOM     25  C   UNL     1       2.432   7.291  18.822  0.00  0.00    +0.000 A 
ATOM     26  C   UNL     1       2.154   8.589  18.303  0.00  0.00    +0.000 A 
BRANCH  21  27
ATOM     27  O   UNL     1       1.269  10.781  18.419  0.00  0.00    +0.000 OA
BRANCH  27  28
ATOM     28  C   UNL     1       0.563  11.786  19.152  0.00  0.00    +0.000 C 
BRANCH  28  30
ATOM     29  N   UNL     1      -1.107  12.616  17.504  0.00  0.00    +0.000 N 
ATOM     30  C   UNL     1      -0.901  12.048  18.718  0.00  0.00    +0.000 C 
ATOM     31  O   UNL     1      -1.858  11.710  19.414  0.00  0.00    +0.000 OA
ATOM     32  H   UNL     1      -2.055  12.802  17.222  0.00  0.00    +0.000 HD
ATOM     33  H   UNL     1      -0.342  12.950  16.933  0.00  0.00    +0.000 HD
ENDBRANCH  28  30
ENDBRANCH  27  28
ENDBRANCH  21  27
ENDBRANCH  19  24
ENDBRANCH   1  19
TORSDOF 7
ENDMDL
MODEL 2
REMARK VINA RESULT:      -8.9      0.715      1.144
REMARK  Name = 
REMARK  7 active torsions:
REMARK  status: ('A' for Active; 'I' for Inactive)
REMARK    1  A    between atoms: C_2  and  C_4
REMARK    2  A    between atoms: C_4  and  O_5
REMARK    3  A    between atoms: O_5  and  C_6
REMARK    4  A    between atoms: C_9  and  N_10
REMARK    5  A    between atoms: N_10  and  C_11
REMARK    6  A    between atoms: C_16  and  C_17
REMARK    7  A    between atoms: C_20  and  O_21
REMARK                            x       y       z     vdW  Elec       q    Type
REMARK                         _______ _______ _______ _____ _____    ______ ____
ROOT
ATOM      1  C   UNL     1       1.342   4.328  20.498  0.00  0.00    +0.000 A 
ATOM      2  N   UNL     1       1.258   3.522  21.568  0.00  0.00    +0.000 NA
ATOM      3  N   UNL     1       2.271   2.618  21.767  0.00  0.00    +0.000 NA
ATOM      4  C   UNL     1       3.325   2.604  20.903  0.00  0.00    +0.000 A 
ATOM      5  C   UNL     1       3.339   3.367  19.737  0.00  0.00    +0.000 A 
ATOM      6  C   UNL     1       4.300   3.309  18.698  0.00  0.00    +0.000 A 
ATOM      7  C   UNL     1       3.935   2.513  17.615  0.00  0.00    +0.000 A 
ATOM      8  C   UNL     1       2.578   2.229  17.459  0.00  0.00    +0.000 A 
ATOM      9  C   UNL     1       1.635   2.892  18.295  0.00  0.00    +0.000 A 
ATOM     10  C   UNL     1       2.054   3.695  19.416  0.00  0.00    +0.000 A 
ENDROOT
BRANCH   6  11
ATOM     11  C   UNL     1       5.014   4.571  18.324  0.00  0.00    +0.000 A 
ATOM     12  C   UNL     1       6.159   5.028  18.989  0.00  0.00    +0.000 A 
ATOM     13  C   UNL     1       6.879   6.132  18.497  0.00  0.00    +0.000 A 
ATOM     14  C   UNL     1       6.455   6.785  17.343  0.00  0.00    +0.000 A 
ATOM     15  C   UNL     1       5.316   6.379  16.682  0.00  0.00    +0.000 A 
ATOM     16  C   UNL     1       4.605   5.273  17.167  0.00  0.00    +0.000 A 
BRANCH  14  17
ATOM     17  O   UNL     1       7.144   7.826  16.799  0.00  0.00    +0.000 OA
ATOM     18  H   UNL     1       7.579   8.317  17.514  0.00  0.00    +0.000 HD
ENDBRANCH  14  17
ENDBRANCH   6  11
BRANCH   1  19
ATOM     19  N   UNL     1       1.939   5.660  20.830  0.00  0.00    +0.000 N 
ATOM     20  H   UNL     1       1.577   5.741  21.790  0.00  0.00    +0.000 HD
BRANCH  19  24
ATOM     21  C   UNL     1       1.198   9.743  19.647  0.00  0.00    +0.000 A 
ATOM     22  C   UNL     1       0.782   9.235  20.870  0.00  0.00    +0.000 A 
ATOM     23  C   UNL     1       1.079   7.895  21.223  0.00  0.00    +0.000 A 
ATOM     24  C   UNL     1       1.777   7.005  20.367  0.00  0.00    +0.000 A 
ATOM     25  C   UNL     1       2.166   7.517  19.138  0.00  0.00    +0.000 A 
ATOM     26  C   UNL     1       1.877   8.868  18.785  0.00  0.00    +0.000 A 
BRANCH  21  27
ATOM     27  O   UNL     1       0.996  11.028  19.184  0.00  0.00    +0.000 OA
BRANCH  27  28
ATOM     28  C   UNL     1      -0.323  11.569  19.300  0.00  0.00    +0.000 C 
BRANCH  28  30
ATOM     29  N   UNL     1      -1.591  12.283  17.281  0.00  0.00    +0.000 N 
ATOM     30  C   UNL     1      -0.717  12.642  18.255  0.00  0.00    +0.000 C 
ATOM     31  O   UNL     1      -0.305  13.799  18.321  0.00  0.00    +0.000 OA
ATOM     32  H   UNL     1      -1.841  12.971  16.590  0.00  0.00    +0.000 HD
ATOM     33  H   UNL     1      -1.907  11.329  17.172  0.00  0.00    +0.000 HD
ENDBRANCH  28  30
ENDBRANCH  27  28
ENDBRANCH  21  27
ENDBRANCH  19  24
ENDBRANCH   1  19
TORSDOF 7
ENDMDL
MODEL 3
REMARK VINA RESULT:      -8.8      0.342      1.303
REMARK  Name = 
REMARK  7 active torsions:
REMARK  status: ('A' for Active; 'I' for Inactive)
REMARK    1  A    between atoms: C_2  and  C_4
REMARK    2  A    between atoms: C_4  and  O_5
REMARK    3  A    between atoms: O_5  and  C_6
REMARK    4  A    between atoms: C_9  and  N_10
REMARK    5  A    between atoms: N_10  and  C_11
REMARK    6  A    between atoms: C_16  and  C_17
REMARK    7  A    between atoms: C_20  and  O_21
REMARK                            x       y       z     vdW  Elec       q    Type
REMARK                         _______ _______ _______ _____ _____    ______ ____
ROOT
ATOM      1  C   UNL     1       1.310   4.324  20.489  0.00  0.00    +0.000 A 
ATOM      2  N   UNL     1       1.212   3.559  21.586  0.00  0.00    +0.000 NA
ATOM      3  N   UNL     1       2.230   2.675  21.842  0.00  0.00    +0.000 NA
ATOM      4  C   UNL     1       3.303   2.641  21.002  0.00  0.00    +0.000 A 
ATOM      5  C   UNL     1       3.334   3.359  19.808  0.00  0.00    +0.000 A 
ATOM      6  C   UNL     1       4.318   3.274  18.793  0.00  0.00    +0.000 A 
ATOM      7  C   UNL     1       3.986   2.433  17.734  0.00  0.00    +0.000 A 
ATOM      8  C   UNL     1       2.636   2.126  17.560  0.00  0.00    +0.000 A 
ATOM      9  C   UNL     1       1.668   2.809  18.349  0.00  0.00    +0.000 A 
ATOM     10  C   UNL     1       2.052   3.659  19.447  0.00  0.00    +0.000 A 
ENDROOT
BRANCH   6  11
ATOM     11  C   UNL     1       5.026   4.529  18.386  0.00  0.00    +0.000 A 
ATOM     12  C   UNL     1       6.163   5.014  19.045  0.00  0.00    +0.000 A 
ATOM     13  C   UNL     1       6.878   6.108  18.525  0.00  0.00    +0.000 A 
ATOM     14  C   UNL     1       6.457   6.724  17.350  0.00  0.00    +0.000 A 
ATOM     15  C   UNL     1       5.325   6.290  16.694  0.00  0.00    +0.000 A 
ATOM     16  C   UNL     1       4.619   5.194  17.207  0.00  0.00    +0.000 A 
BRANCH  14  17
ATOM     17  O   UNL     1       7.142   7.753  16.779  0.00  0.00    +0.000 OA
ATOM     18  H   UNL     1       6.713   7.983  15.940  0.00  0.00    +0.000 HD
ENDBRANCH  14  17
ENDBRANCH   6  11
BRANCH   1  19
ATOM     19  N   UNL     1       1.884   5.675  20.782  0.00  0.00    +0.000 N 
ATOM     20  H   UNL     1       1.575   5.750  21.761  0.00  0.00    +0.000 HD
BRANCH  19  24
ATOM     21  C   UNL     1       1.444   9.663  19.195  0.00  0.00    +0.000 A 
ATOM     22  C   UNL     1       2.062   8.643  18.485  0.00  0.00    +0.000 A 
ATOM     23  C   UNL     1       2.152   7.342  19.040  0.00  0.00    +0.000 A 
ATOM     24  C   UNL     1       1.655   7.012  20.326  0.00  0.00    +0.000 A 
ATOM     25  C   UNL     1       1.060   8.046  21.035  0.00  0.00    +0.000 A 
ATOM     26  C   UNL     1       0.960   9.353  20.475  0.00  0.00    +0.000 A 
BRANCH  21  27
ATOM     27  O   UNL     1       1.268  10.966  18.771  0.00  0.00    +0.000 OA
BRANCH  27  28
ATOM     28  C   UNL     1       0.331  11.771  19.493  0.00  0.00    +0.000 C 
BRANCH  28  30
ATOM     29  N   UNL     1      -0.957  12.694  17.575  0.00  0.00    +0.000 N 
ATOM     30  C   UNL     1      -1.009  12.068  18.777  0.00  0.00    +0.000 C 
ATOM     31  O   UNL     1      -2.091  11.708  19.241  0.00  0.00    +0.000 OA
ATOM     32  H   UNL     1      -1.826  12.904  17.111  0.00  0.00    +0.000 HD
ATOM     33  H   UNL     1      -0.090  13.046  17.193  0.00  0.00    +0.000 HD
ENDBRANCH  28  30
ENDBRANCH  27  28
ENDBRANCH  21  27
ENDBRANCH  19  24
ENDBRANCH   1  19
TORSDOF 7
ENDMDL
MODEL 4
REMARK VINA RESULT:      -8.7      1.170      1.713
REMARK  Name = 
REMARK  7 active torsions:
REMARK  status: ('A' for Active; 'I' for Inactive)
REMARK    1  A    between atoms: C_2  and  C_4
REMARK    2  A    between atoms: C_4  and  O_5
REMARK    3  A    between atoms: O_5  and  C_6
REMARK    4  A    between atoms: C_9  and  N_10
REMARK    5  A    between atoms: N_10  and  C_11
REMARK    6  A    between atoms: C_16  and  C_17
REMARK    7  A    between atoms: C_20  and  O_21
REMARK                            x       y       z     vdW  Elec       q    Type
REMARK                         _______ _______ _______ _____ _____    ______ ____
ROOT
ATOM      1  C   UNL     1       1.364   4.362  20.454  0.00  0.00    +0.000 A 
ATOM      2  N   UNL     1       1.258   3.587  21.544  0.00  0.00    +0.000 NA
ATOM      3  N   UNL     1       2.273   2.699  21.798  0.00  0.00    +0.000 NA
ATOM      4  C   UNL     1       3.351   2.670  20.963  0.00  0.00    +0.000 A 
ATOM      5  C   UNL     1       3.389   3.399  19.775  0.00  0.00    +0.000 A 
ATOM      6  C   UNL     1       4.379   3.322  18.766  0.00  0.00    +0.000 A 
ATOM      7  C   UNL     1       4.052   2.490  17.697  0.00  0.00    +0.000 A 
ATOM      8  C   UNL     1       2.702   2.188  17.513  0.00  0.00    +0.000 A 
ATOM      9  C   UNL     1       1.731   2.865  18.303  0.00  0.00    +0.000 A 
ATOM     10  C   UNL     1       2.111   3.704  19.410  0.00  0.00    +0.000 A 
ENDROOT
BRANCH   6  11
ATOM     11  C   UNL     1       5.092   4.579  18.374  0.00  0.00    +0.000 A 
ATOM     12  C   UNL     1       6.285   5.001  18.975  0.00  0.00    +0.000 A 
ATOM     13  C   UNL     1       6.992   6.104  18.463  0.00  0.00    +0.000 A 
ATOM     14  C   UNL     1       6.509   6.790  17.352  0.00  0.00    +0.000 A 
ATOM     15  C   UNL     1       5.323   6.419  16.756  0.00  0.00    +0.000 A 
ATOM     16  C   UNL     1       4.624   5.314  17.261  0.00  0.00    +0.000 A 
BRANCH  14  17
ATOM     17  O   UNL     1       7.181   7.831  16.788  0.00  0.00    +0.000 OA
ATOM     18  H   UNL     1       7.721   7.491  16.057  0.00  0.00    +0.000 HD
ENDBRANCH  14  17
ENDBRANCH   6  11
BRANCH   1  19
ATOM     19  N   UNL     1       1.938   5.709  20.763  0.00  0.00    +0.000 N 
ATOM     20  H   UNL     1       1.575   5.801  21.721  0.00  0.00    +0.000 HD
BRANCH  19  24
ATOM     21  C   UNL     1       1.132   9.758  19.508  0.00  0.00    +0.000 A 
ATOM     22  C   UNL     1       0.722   9.264  20.738  0.00  0.00    +0.000 A 
ATOM     23  C   UNL     1       1.040   7.935  21.115  0.00  0.00    +0.000 A 
ATOM     24  C   UNL     1       1.755   7.043  20.277  0.00  0.00    +0.000 A 
ATOM     25  C   UNL     1       2.139   7.540  19.040  0.00  0.00    +0.000 A 
ATOM     26  C   UNL     1       1.828   8.879  18.663  0.00  0.00    +0.000 A 
BRANCH  21  27
ATOM     27  O   UNL     1       0.911  11.031  19.021  0.00  0.00    +0.000 OA
BRANCH  27  28
ATOM     28  C   UNL     1       1.631  12.103  19.636  0.00  0.00    +0.000 C 
BRANCH  28  30
ATOM     29  N   UNL     1       2.611  12.582  17.400  0.00  0.00    +0.000 N 
ATOM     30  C   UNL     1       2.503  12.971  18.695  0.00  0.00    +0.000 C 
ATOM     31  O   UNL     1       3.041  14.010  19.077  0.00  0.00    +0.000 OA
ATOM     32  H   UNL     1       3.188  13.133  16.786  0.00  0.00    +0.000 HD
ATOM     33  H   UNL     1       2.223  11.709  17.069  0.00  0.00    +0.000 HD
ENDBRANCH  28  30
ENDBRANCH  27  28
ENDBRANCH  21  27
ENDBRANCH  19  24
ENDBRANCH   1  19
TORSDOF 7
ENDMDL
MODEL 5
REMARK VINA RESULT:      -8.5      1.065      1.767
REMARK  Name = 
REMARK  7 active torsions:
REMARK  status: ('A' for Active; 'I' for Inactive)
REMARK    1  A    between atoms: C_2  and  C_4
REMARK    2  A    between atoms: C_4  and  O_5
REMARK    3  A    between atoms: O_5  and  C_6
REMARK    4  A    between atoms: C_9  and  N_10
REMARK    5  A    between atoms: N_10  and  C_11
REMARK    6  A    between atoms: C_16  and  C_17
REMARK    7  A    between atoms: C_20  and  O_21
REMARK                            x       y       z     vdW  Elec       q    Type
REMARK                         _______ _______ _______ _____ _____    ______ ____
ROOT
ATOM      1  C   UNL     1       1.399   4.029  20.772  0.00  0.00    +0.000 A 
ATOM      2  N   UNL     1       1.434   3.290  21.890  0.00  0.00    +0.000 NA
ATOM      3  N   UNL     1       2.495   2.436  22.059  0.00  0.00    +0.000 NA
ATOM      4  C   UNL     1       3.476   2.403  21.113  0.00  0.00    +0.000 A 
ATOM      5  C   UNL     1       3.364   3.092  19.905  0.00  0.00    +0.000 A 
ATOM      6  C   UNL     1       4.240   3.002  18.796  0.00  0.00    +0.000 A 
ATOM      7  C   UNL     1       3.821   2.127  17.796  0.00  0.00    +0.000 A 
ATOM      8  C   UNL     1       2.468   1.787  17.771  0.00  0.00    +0.000 A 
ATOM      9  C   UNL     1       1.571   2.468  18.642  0.00  0.00    +0.000 A 
ATOM     10  C   UNL     1       2.046   3.354  19.673  0.00  0.00    +0.000 A 
ENDROOT
BRANCH   6  11
ATOM     11  C   UNL     1       4.871   4.262  18.288  0.00  0.00    +0.000 A 
ATOM     12  C   UNL     1       5.786   5.014  19.036  0.00  0.00    +0.000 A 
ATOM     13  C   UNL     1       6.466   6.099  18.453  0.00  0.00    +0.000 A 
ATOM     14  C   UNL     1       6.230   6.438  17.123  0.00  0.00    +0.000 A 
ATOM     15  C   UNL     1       5.313   5.738  16.369  0.00  0.00    +0.000 A 
ATOM     16  C   UNL     1       4.644   4.650  16.949  0.00  0.00    +0.000 A 
BRANCH  14  17
ATOM     17  O   UNL     1       6.898   7.447  16.498  0.00  0.00    +0.000 OA
ATOM     18  H   UNL     1       6.248   8.062  16.122  0.00  0.00    +0.000 HD
ENDBRANCH  14  17
ENDBRANCH   6  11
BRANCH   1  19
ATOM     19  N   UNL     1       1.967   5.399  20.972  0.00  0.00    +0.000 N 
ATOM     20  H   UNL     1       1.534   5.599  21.883  0.00  0.00    +0.000 HD
BRANCH  19  24
ATOM     21  C   UNL     1       1.841   9.152  18.847  0.00  0.00    +0.000 A 
ATOM     22  C   UNL     1       2.449   8.020  18.323  0.00  0.00    +0.000 A 
ATOM     23  C   UNL     1       2.434   6.803  19.049  0.00  0.00    +0.000 A 
ATOM     24  C   UNL     1       1.839   6.672  20.329  0.00  0.00    +0.000 A 
ATOM     25  C   UNL     1       1.256   7.817  20.853  0.00  0.00    +0.000 A 
ATOM     26  C   UNL     1       1.262   9.039  20.120  0.00  0.00    +0.000 A 
BRANCH  21  27
ATOM     27  O   UNL     1       1.763  10.393  18.245  0.00  0.00    +0.000 OA
BRANCH  27  28
ATOM     28  C   UNL     1       1.365  11.496  19.063  0.00  0.00    +0.000 C 
BRANCH  28  30
ATOM     29  N   UNL     1       0.884  13.896  18.614  0.00  0.00    +0.000 N 
ATOM     30  C   UNL     1       1.804  12.901  18.579  0.00  0.00    +0.000 C 
ATOM     31  O   UNL     1       2.959  13.137  18.224  0.00  0.00    +0.000 OA
ATOM     32  H   UNL     1       1.158  14.808  18.287  0.00  0.00    +0.000 HD
ATOM     33  H   UNL     1      -0.083  13.722  18.853  0.00  0.00    +0.000 HD
ENDBRANCH  28  30
ENDBRANCH  27  28
ENDBRANCH  21  27
ENDBRANCH  19  24
ENDBRANCH   1  19
TORSDOF 7
ENDMDL
MODEL 6
REMARK VINA RESULT:      -8.4      1.070      1.560
REMARK  Name = 
REMARK  7 active torsions:
REMARK  status: ('A' for Active; 'I' for Inactive)
REMARK    1  A    between atoms: C_2  and  C_4
REMARK    2  A    between atoms: C_4  and  O_5
REMARK    3  A    between atoms: O_5  and  C_6
REMARK    4  A    between atoms: C_9  and  N_10
REMARK    5  A    between atoms: N_10  and  C_11
REMARK    6  A    between atoms: C_16  and  C_17
REMARK    7  A    between atoms: C_20  and  O_21
REMARK                            x       y       z     vdW  Elec       q    Type
REMARK                         _______ _______ _______ _____ _____    ______ ____
ROOT
ATOM      1  C   UNL     1       1.469   4.382  20.547  0.00  0.00    +0.000 A 
ATOM      2  N   UNL     1       1.474   3.702  21.703  0.00  0.00    +0.000 NA
ATOM      3  N   UNL     1       2.490   2.804  21.912  0.00  0.00    +0.000 NA
ATOM      4  C   UNL     1       3.460   2.670  20.963  0.00  0.00    +0.000 A 
ATOM      5  C   UNL     1       3.375   3.298  19.722  0.00  0.00    +0.000 A 
ATOM      6  C   UNL     1       4.236   3.105  18.614  0.00  0.00    +0.000 A 
ATOM      7  C   UNL     1       3.764   2.201  17.665  0.00  0.00    +0.000 A 
ATOM      8  C   UNL     1       2.395   1.931  17.665  0.00  0.00    +0.000 A 
ATOM      9  C   UNL     1       1.541   2.704  18.502  0.00  0.00    +0.000 A 
ATOM     10  C   UNL     1       2.070   3.617  19.483  0.00  0.00    +0.000 A 
ENDROOT
BRANCH   6  11
ATOM     11  C   UNL     1       4.928   4.301  18.037  0.00  0.00    +0.000 A 
ATOM     12  C   UNL     1       4.392   5.065  16.993  0.00  0.00    +0.000 A 
ATOM     13  C   UNL     1       5.008   6.266  16.597  0.00  0.00    +0.000 A 
ATOM     14  C   UNL     1       6.163   6.704  17.238  0.00  0.00    +0.000 A 
ATOM     15  C   UNL     1       6.733   5.960  18.248  0.00  0.00    +0.000 A 
ATOM     16  C   UNL     1       6.113   4.768  18.649  0.00  0.00    +0.000 A 
BRANCH  14  17
ATOM     17  O   UNL     1       6.769   7.883  16.926  0.00  0.00    +0.000 OA
ATOM     18  H   UNL     1       6.535   8.540  17.601  0.00  0.00    +0.000 HD
ENDBRANCH  14  17
ENDBRANCH   6  11
BRANCH   1  19
ATOM     19  N   UNL     1       2.109   5.729  20.671  0.00  0.00    +0.000 N 
ATOM     20  H   UNL     1       1.961   5.863  21.680  0.00  0.00    +0.000 HD
BRANCH  19  24
ATOM     21  C   UNL     1       1.546   9.664  18.993  0.00  0.00    +0.000 A 
ATOM     22  C   UNL     1       2.208   8.652  18.312  0.00  0.00    +0.000 A 
ATOM     23  C   UNL     1       2.338   7.367  18.896  0.00  0.00    +0.000 A 
ATOM     24  C   UNL     1       1.838   7.048  20.183  0.00  0.00    +0.000 A 
ATOM     25  C   UNL     1       1.200   8.074  20.864  0.00  0.00    +0.000 A 
ATOM     26  C   UNL     1       1.060   9.364  20.275  0.00  0.00    +0.000 A 
BRANCH  21  27
ATOM     27  O   UNL     1       1.330  10.951  18.539  0.00  0.00    +0.000 OA
BRANCH  27  28
ATOM     28  C   UNL     1       0.814  11.900  19.477  0.00  0.00    +0.000 C 
BRANCH  28  30
ATOM     29  N   UNL     1       2.212  13.946  19.252  0.00  0.00    +0.000 N 
ATOM     30  C   UNL     1       1.832  12.917  20.050  0.00  0.00    +0.000 C 
ATOM     31  O   UNL     1       2.250  12.842  21.206  0.00  0.00    +0.000 OA
ATOM     32  H   UNL     1       2.885  14.603  19.614  0.00  0.00    +0.000 HD
ATOM     33  H   UNL     1       1.926  14.006  18.285  0.00  0.00    +0.000 HD
ENDBRANCH  28  30
ENDBRANCH  27  28
ENDBRANCH  21  27
ENDBRANCH  19  24
ENDBRANCH   1  19
TORSDOF 7
ENDMDL
MODEL 7
REMARK VINA RESULT:      -8.4      0.795      1.188
REMARK  Name = 
REMARK  7 active torsions:
REMARK  status: ('A' for Active; 'I' for Inactive)
REMARK    1  A    between atoms: C_2  and  C_4
REMARK    2  A    between atoms: C_4  and  O_5
REMARK    3  A    between atoms: O_5  and  C_6
REMARK    4  A    between atoms: C_9  and  N_10
REMARK    5  A    between atoms: N_10  and  C_11
REMARK    6  A    between atoms: C_16  and  C_17
REMARK    7  A    between atoms: C_20  and  O_21
REMARK                            x       y       z     vdW  Elec       q    Type
REMARK                         _______ _______ _______ _____ _____    ______ ____
ROOT
ATOM      1  C   UNL     1       1.498   4.262  20.622  0.00  0.00    +0.000 A 
ATOM      2  N   UNL     1       1.537   3.582  21.778  0.00  0.00    +0.000 NA
ATOM      3  N   UNL     1       2.565   2.692  21.961  0.00  0.00    +0.000 NA
ATOM      4  C   UNL     1       3.513   2.567  20.989  0.00  0.00    +0.000 A 
ATOM      5  C   UNL     1       3.393   3.194  19.750  0.00  0.00    +0.000 A 
ATOM      6  C   UNL     1       4.228   3.008  18.622  0.00  0.00    +0.000 A 
ATOM      7  C   UNL     1       3.740   2.100  17.684  0.00  0.00    +0.000 A 
ATOM      8  C   UNL     1       2.374   1.818  17.718  0.00  0.00    +0.000 A 
ATOM      9  C   UNL     1       1.535   2.584  18.576  0.00  0.00    +0.000 A 
ATOM     10  C   UNL     1       2.080   3.501  19.543  0.00  0.00    +0.000 A 
ENDROOT
BRANCH   6  11
ATOM     11  C   UNL     1       4.895   4.210  18.028  0.00  0.00    +0.000 A 
ATOM     12  C   UNL     1       4.431   4.849  16.872  0.00  0.00    +0.000 A 
ATOM     13  C   UNL     1       5.001   6.064  16.449  0.00  0.00    +0.000 A 
ATOM     14  C   UNL     1       6.040   6.639  17.175  0.00  0.00    +0.000 A 
ATOM     15  C   UNL     1       6.541   6.019  18.300  0.00  0.00    +0.000 A 
ATOM     16  C   UNL     1       5.965   4.815  18.727  0.00  0.00    +0.000 A 
BRANCH  14  17
ATOM     17  O   UNL     1       6.592   7.836  16.836  0.00  0.00    +0.000 OA
ATOM     18  H   UNL     1       6.769   8.337  17.648  0.00  0.00    +0.000 HD
ENDBRANCH  14  17
ENDBRANCH   6  11
BRANCH   1  19
ATOM     19  N   UNL     1       2.129   5.614  20.731  0.00  0.00    +0.000 N 
ATOM     20  H   UNL     1       1.922   5.787  21.723  0.00  0.00    +0.000 HD
BRANCH  19  24
ATOM     21  C   UNL     1       1.658   9.473  18.860  0.00  0.00    +0.000 A 
ATOM     22  C   UNL     1       2.324   8.423  18.243  0.00  0.00    +0.000 A 
ATOM     23  C   UNL     1       2.423   7.165  18.888  0.00  0.00    +0.000 A 
ATOM     24  C   UNL     1       1.887   6.912  20.176  0.00  0.00    +0.000 A 
ATOM     25  C   UNL     1       1.246   7.976  20.793  0.00  0.00    +0.000 A 
ATOM     26  C   UNL     1       1.137   9.239  20.141  0.00  0.00    +0.000 A 
BRANCH  21  27
ATOM     27  O   UNL     1       1.470  10.740  18.342  0.00  0.00    +0.000 OA
BRANCH  27  28
ATOM     28  C   UNL     1       1.415  11.827  19.270  0.00  0.00    +0.000 C 
BRANCH  28  30
ATOM     29  N   UNL     1      -0.588  12.866  20.318  0.00  0.00    +0.000 N 
ATOM     30  C   UNL     1       0.159  12.730  19.194  0.00  0.00    +0.000 C 
ATOM     31  O   UNL     1      -0.138  13.351  18.174  0.00  0.00    +0.000 OA
ATOM     32  H   UNL     1      -1.414  13.440  20.272  0.00  0.00    +0.000 HD
ATOM     33  H   UNL     1      -0.399  12.331  21.154  0.00  0.00    +0.000 HD
ENDBRANCH  28  30
ENDBRANCH  27  28
ENDBRANCH  21  27
ENDBRANCH  19  24
ENDBRANCH   1  19
TORSDOF 7
ENDMDL
MODEL 8
REMARK VINA RESULT:      -8.4      1.075      1.456
REMARK  Name = 
REMARK  7 active torsions:
REMARK  status: ('A' for Active; 'I' for Inactive)
REMARK    1  A    between atoms: C_2  and  C_4
REMARK    2  A    between atoms: C_4  and  O_5
REMARK    3  A    between atoms: O_5  and  C_6
REMARK    4  A    between atoms: C_9  and  N_10
REMARK    5  A    between atoms: N_10  and  C_11
REMARK    6  A    between atoms: C_16  and  C_17
REMARK    7  A    between atoms: C_20  and  O_21
REMARK                            x       y       z     vdW  Elec       q    Type
REMARK                         _______ _______ _______ _____ _____    ______ ____
ROOT
ATOM      1  C   UNL     1       1.349   4.312  20.509  0.00  0.00    +0.000 A 
ATOM      2  N   UNL     1       1.266   3.527  21.593  0.00  0.00    +0.000 NA
ATOM      3  N   UNL     1       2.286   2.637  21.817  0.00  0.00    +0.000 NA
ATOM      4  C   UNL     1       3.346   2.616  20.959  0.00  0.00    +0.000 A 
ATOM      5  C   UNL     1       3.359   3.356  19.778  0.00  0.00    +0.000 A 
ATOM      6  C   UNL     1       4.327   3.287  18.746  0.00  0.00    +0.000 A 
ATOM      7  C   UNL     1       3.976   2.466  17.677  0.00  0.00    +0.000 A 
ATOM      8  C   UNL     1       2.623   2.165  17.519  0.00  0.00    +0.000 A 
ATOM      9  C   UNL     1       1.669   2.835  18.337  0.00  0.00    +0.000 A 
ATOM     10  C   UNL     1       2.073   3.664  19.443  0.00  0.00    +0.000 A 
ENDROOT
BRANCH   6  11
ATOM     11  C   UNL     1       5.031   4.548  18.351  0.00  0.00    +0.000 A 
ATOM     12  C   UNL     1       6.165   5.032  19.016  0.00  0.00    +0.000 A 
ATOM     13  C   UNL     1       6.878   6.133  18.507  0.00  0.00    +0.000 A 
ATOM     14  C   UNL     1       6.457   6.756  17.336  0.00  0.00    +0.000 A 
ATOM     15  C   UNL     1       5.329   6.324  16.673  0.00  0.00    +0.000 A 
ATOM     16  C   UNL     1       4.625   5.220  17.176  0.00  0.00    +0.000 A 
BRANCH  14  17
ATOM     17  O   UNL     1       7.140   7.792  16.775  0.00  0.00    +0.000 OA
ATOM     18  H   UNL     1       6.596   8.593  16.840  0.00  0.00    +0.000 HD
ENDBRANCH  14  17
ENDBRANCH   6  11
BRANCH   1  19
ATOM     19  N   UNL     1       1.930   5.656  20.817  0.00  0.00    +0.000 N 
ATOM     20  H   UNL     1       1.519   5.777  21.752  0.00  0.00    +0.000 HD
BRANCH  19  24
ATOM     21  C   UNL     1       1.259   9.686  19.429  0.00  0.00    +0.000 A 
ATOM     22  C   UNL     1       0.761   9.223  20.638  0.00  0.00    +0.000 A 
ATOM     23  C   UNL     1       1.038   7.899  21.063  0.00  0.00    +0.000 A 
ATOM     24  C   UNL     1       1.796   6.982  20.293  0.00  0.00    +0.000 A 
ATOM     25  C   UNL     1       2.268   7.449  19.074  0.00  0.00    +0.000 A 
ATOM     26  C   UNL     1       1.999   8.782  18.650  0.00  0.00    +0.000 A 
BRANCH  21  27
ATOM     27  O   UNL     1       1.086  10.951  18.903  0.00  0.00    +0.000 OA
BRANCH  27  28
ATOM     28  C   UNL     1       1.726  12.037  19.579  0.00  0.00    +0.000 C 
BRANCH  28  30
ATOM     29  N   UNL     1      -0.491  12.864  20.350  0.00  0.00    +0.000 N 
ATOM     30  C   UNL     1       0.847  12.838  20.572  0.00  0.00    +0.000 C 
ATOM     31  O   UNL     1       1.322  13.392  21.563  0.00  0.00    +0.000 OA
ATOM     32  H   UNL     1      -1.066  13.395  20.984  0.00  0.00    +0.000 HD
ATOM     33  H   UNL     1      -0.903  12.462  19.520  0.00  0.00    +0.000 HD
ENDBRANCH  28  30
ENDBRANCH  27  28
ENDBRANCH  21  27
ENDBRANCH  19  24
ENDBRANCH   1  19
TORSDOF 7
ENDMDL
MODEL 9
REMARK VINA RESULT:      -8.3      3.170      6.664
REMARK  Name = 
REMARK  7 active torsions:
REMARK  status: ('A' for Active; 'I' for Inactive)
REMARK    1  A    between atoms: C_2  and  C_4
REMARK    2  A    between atoms: C_4  and  O_5
REMARK    3  A    between atoms: O_5  and  C_6
REMARK    4  A    between atoms: C_9  and  N_10
REMARK    5  A    between atoms: N_10  and  C_11
REMARK    6  A    between atoms: C_16  and  C_17
REMARK    7  A    between atoms: C_20  and  O_21
REMARK                            x       y       z     vdW  Elec       q    Type
REMARK                         _______ _______ _______ _____ _____    ______ ____
ROOT
ATOM      1  C   UNL     1       4.824   2.539  19.990  0.00  0.00    +0.000 A 
ATOM      2  N   UNL     1       4.806   1.407  19.270  0.00  0.00    +0.000 NA
ATOM      3  N   UNL     1       3.693   1.151  18.510  0.00  0.00    +0.000 NA
ATOM      4  C   UNL     1       2.681   2.064  18.489  0.00  0.00    +0.000 A 
ATOM      5  C   UNL     1       2.667   3.175  19.331  0.00  0.00    +0.000 A 
ATOM      6  C   UNL     1       1.602   4.092  19.506  0.00  0.00    +0.000 A 
ATOM      7  C   UNL     1       0.790   3.834  20.607  0.00  0.00    +0.000 A 
ATOM      8  C   UNL     1       1.318   3.027  21.616  0.00  0.00    +0.000 A 
ATOM      9  C   UNL     1       2.692   2.659  21.553  0.00  0.00    +0.000 A 
ATOM     10  C   UNL     1       3.494   2.931  20.388  0.00  0.00    +0.000 A 
ENDROOT
BRANCH   6  11
ATOM     11  C   UNL     1       1.872   5.545  19.266  0.00  0.00    +0.000 A 
ATOM     12  C   UNL     1       2.189   6.067  18.005  0.00  0.00    +0.000 A 
ATOM     13  C   UNL     1       2.278   7.457  17.808  0.00  0.00    +0.000 A 
ATOM     14  C   UNL     1       2.056   8.329  18.870  0.00  0.00    +0.000 A 
ATOM     15  C   UNL     1       1.773   7.847  20.130  0.00  0.00    +0.000 A 
ATOM     16  C   UNL     1       1.675   6.463  20.323  0.00  0.00    +0.000 A 
BRANCH  14  17
ATOM     17  O   UNL     1       2.082   9.682  18.720  0.00  0.00    +0.000 OA
ATOM     18  H   UNL     1       2.998   9.987  18.815  0.00  0.00    +0.000 HD
ENDBRANCH  14  17
ENDBRANCH   6  11
BRANCH   1  19
ATOM     19  N   UNL     1       5.527   3.656  19.285  0.00  0.00    +0.000 N 
ATOM     20  H   UNL     1       4.920   4.425  19.598  0.00  0.00    +0.000 HD
BRANCH  19  24
ATOM     21  C   UNL     1       6.480   4.956  15.282  0.00  0.00    +0.000 A 
ATOM     22  C   UNL     1       7.430   4.895  16.291  0.00  0.00    +0.000 A 
ATOM     23  C   UNL     1       7.072   4.430  17.581  0.00  0.00    +0.000 A 
ATOM     24  C   UNL     1       5.755   4.033  17.922  0.00  0.00    +0.000 A 
ATOM     25  C   UNL     1       4.808   4.120  16.912  0.00  0.00    +0.000 A 
ATOM     26  C   UNL     1       5.168   4.578  15.611  0.00  0.00    +0.000 A 
BRANCH  21  27
ATOM     27  O   UNL     1       6.692   5.367  13.980  0.00  0.00    +0.000 OA
BRANCH  27  28
ATOM     28  C   UNL     1       7.270   4.419  13.078  0.00  0.00    +0.000 C 
BRANCH  28  30
ATOM     29  N   UNL     1       6.788   2.339  11.801  0.00  0.00    +0.000 N 
ATOM     30  C   UNL     1       6.283   3.466  12.361  0.00  0.00    +0.000 C 
ATOM     31  O   UNL     1       5.071   3.681  12.336  0.00  0.00    +0.000 OA
ATOM     32  H   UNL     1       6.154   1.722  11.321  0.00  0.00    +0.000 HD
ATOM     33  H   UNL     1       7.782   2.161  11.762  0.00  0.00    +0.000 HD
ENDBRANCH  28  30
ENDBRANCH  27  28
ENDBRANCH  21  27
ENDBRANCH  19  24
ENDBRANCH   1  19
TORSDOF 7
ENDMDL
