MODEL 1
REMARK VINA RESULT:      -8.4      0.000      0.000
REMARK  Name = 
REMARK  2 active torsions:
REMARK  status: ('A' for Active; 'I' for Inactive)
REMARK    1  A    between atoms: C_1  and  N_2
REMARK    2  A    between atoms: C_5  and  C_6
REMARK                            x       y       z     vdW  Elec       q    Type
REMARK                         _______ _______ _______ _____ _____    ______ ____
ROOT
ATOM      1  C   UNL     1       0.833  11.185  18.600  0.00  0.00    +0.000 C 
ATOM      2  N   UNL     1       1.017  10.002  19.426  0.00  0.00    +0.000 N 
ATOM      3  C   UNL     1       1.726   8.891  18.945  0.00  0.00    +0.000 A 
ATOM      4  O   UNL     1       2.241   8.874  17.829  0.00  0.00    +0.000 OA
ATOM      5  C   UNL     1       1.856   7.679  19.797  0.00  0.00    +0.000 A 
ATOM      6  C   UNL     1       1.152   7.731  20.989  0.00  0.00    +0.000 A 
ATOM      7  C   UNL     1       0.430   8.951  21.503  0.00  0.00    +0.000 A 
ATOM      8  C   UNL     1      -0.212   9.098  22.758  0.00  0.00    +0.000 A 
ATOM      9  C   UNL     1      -0.761  10.335  23.165  0.00  0.00    +0.000 A 
ATOM     10  C   UNL     1      -0.690  11.399  22.293  0.00  0.00    +0.000 A 
ATOM     11  N   UNL     1      -0.131  11.284  21.074  0.00  0.00    +0.000 NA
ATOM     12  C   UNL     1       0.421  10.083  20.704  0.00  0.00    +0.000 A 
ENDROOT
BRANCH   5  13
ATOM     13  C   UNL     1       2.760   6.421  19.454  0.00  0.00    +0.000 C 
ATOM     14  O   UNL     1       2.871   5.696  20.480  0.00  0.00    +0.000 OA
ATOM     15  N   UNL     1       3.260   5.795  18.212  0.00  0.00    +0.000 N 
ATOM     16  C   UNL     1       3.246   4.336  18.436  0.00  0.00    +0.000 C 
ATOM     17  C   UNL     1       3.353   3.851  17.054  0.00  0.00    +0.000 C 
ATOM     18  C   UNL     1       4.565   4.701  16.904  0.00  0.00    +0.000 A 
ATOM     19  C   UNL     1       5.847   4.102  17.169  0.00  0.00    +0.000 A 
ATOM     20  C   UNL     1       6.848   4.410  16.320  0.00  0.00    +0.000 A 
ATOM     21  C   UNL     1       6.457   5.455  15.545  0.00  0.00    +0.000 A 
ATOM     22  C   UNL     1       5.221   6.239  15.986  0.00  0.00    +0.000 A 
ATOM     23  C   UNL     1       4.266   6.085  17.039  0.00  0.00    +0.000 A 
ENDBRANCH   5  13
TORSDOF 1
ENDMDL
MODEL 2
REMARK VINA RESULT:      -8.2      1.143      7.889
REMARK  Name = 
REMARK  2 active torsions:
REMARK  status: ('A' for Active; 'I' for Inactive)
REMARK    1  A    between atoms: C_1  and  N_2
REMARK    2  A    between atoms: C_5  and  C_6
REMARK                            x       y       z     vdW  Elec       q    Type
REMARK                         _______ _______ _______ _____ _____    ______ ____
ROOT
ATOM      1  C   UNL     1       3.459   4.130  19.703  0.00  0.00    +0.000 C 
ATOM      2  N   UNL     1       3.478   5.353  18.915  0.00  0.00    +0.000 N 
ATOM      3  C   UNL     1       2.648   6.434  19.245  0.00  0.00    +0.000 A 
ATOM      4  O   UNL     1       1.895   6.412  20.216  0.00  0.00    +0.000 OA
ATOM      5  C   UNL     1       2.659   7.653  18.392  0.00  0.00    +0.000 A 
ATOM      6  C   UNL     1       3.443   7.557  17.255  0.00  0.00    +0.000 A 
ATOM      7  C   UNL     1       4.357   6.400  16.941  0.00  0.00    +0.000 A 
ATOM      8  C   UNL     1       5.261   6.295  15.854  0.00  0.00    +0.000 A 
ATOM      9  C   UNL     1       6.145   5.198  15.734  0.00  0.00    +0.000 A 
ATOM     10  C   UNL     1       6.087   4.205  16.686  0.00  0.00    +0.000 A 
ATOM     11  N   UNL     1       5.209   4.247  17.705  0.00  0.00    +0.000 NA
ATOM     12  C   UNL     1       4.375   5.331  17.823  0.00  0.00    +0.000 A 
ENDROOT
BRANCH   5  13
ATOM     13  C   UNL     1       1.902   9.005  18.732  0.00  0.00    +0.000 C 
ATOM     14  O   UNL     1       2.360   9.933  18.010  0.00  0.00    +0.000 OA
ATOM     15  N   UNL     1       0.672   9.364  19.469  0.00  0.00    +0.000 N 
ATOM     16  C   UNL     1       0.055  10.492  18.745  0.00  0.00    +0.000 C 
ATOM     17  C   UNL     1      -1.301  10.464  19.308  0.00  0.00    +0.000 C 
ATOM     18  C   UNL     1      -0.684  10.527  20.661  0.00  0.00    +0.000 A 
ATOM     19  C   UNL     1      -0.505  11.823  21.262  0.00  0.00    +0.000 A 
ATOM     20  C   UNL     1      -0.795  11.928  22.575  0.00  0.00    +0.000 A 
ATOM     21  C   UNL     1      -0.941  10.679  23.091  0.00  0.00    +0.000 A 
ATOM     22  C   UNL     1      -0.439   9.504  22.252  0.00  0.00    +0.000 A 
ATOM     23  C   UNL     1       0.110   9.380  20.938  0.00  0.00    +0.000 A 
ENDBRANCH   5  13
TORSDOF 1
ENDMDL
MODEL 3
REMARK VINA RESULT:      -8.0      2.290      7.293
REMARK  Name = 
REMARK  2 active torsions:
REMARK  status: ('A' for Active; 'I' for Inactive)
REMARK    1  A    between atoms: C_1  and  N_2
REMARK    2  A    between atoms: C_5  and  C_6
REMARK                            x       y       z     vdW  Elec       q    Type
REMARK                         _______ _______ _______ _____ _____    ______ ____
ROOT
ATOM      1  C   UNL     1       4.115   5.754  17.390  0.00  0.00    +0.000 C 
ATOM      2  N   UNL     1       3.239   6.032  18.518  0.00  0.00    +0.000 N 
ATOM      3  C   UNL     1       2.702   7.313  18.714  0.00  0.00    +0.000 A 
ATOM      4  O   UNL     1       2.920   8.242  17.940  0.00  0.00    +0.000 OA
ATOM      5  C   UNL     1       1.846   7.575  19.902  0.00  0.00    +0.000 A 
ATOM      6  C   UNL     1       1.742   6.515  20.786  0.00  0.00    +0.000 A 
ATOM      7  C   UNL     1       2.296   5.134  20.535  0.00  0.00    +0.000 A 
ATOM      8  C   UNL     1       2.128   3.986  21.348  0.00  0.00    +0.000 A 
ATOM      9  C   UNL     1       2.609   2.720  20.943  0.00  0.00    +0.000 A 
ATOM     10  C   UNL     1       3.282   2.629  19.745  0.00  0.00    +0.000 A 
ATOM     11  N   UNL     1       3.502   3.707  18.970  0.00  0.00    +0.000 NA
ATOM     12  C   UNL     1       3.006   4.925  19.364  0.00  0.00    +0.000 A 
ENDROOT
BRANCH   5  13
ATOM     13  C   UNL     1       1.044   8.919  20.164  0.00  0.00    +0.000 C 
ATOM     14  O   UNL     1       1.232   9.291  21.354  0.00  0.00    +0.000 OA
ATOM     15  N   UNL     1       0.374   9.924  19.314  0.00  0.00    +0.000 N 
ATOM     16  C   UNL     1       0.602  11.237  19.946  0.00  0.00    +0.000 C 
ATOM     17  C   UNL     1       0.269  12.135  18.833  0.00  0.00    +0.000 C 
ATOM     18  C   UNL     1      -1.039  11.432  18.726  0.00  0.00    +0.000 A 
ATOM     19  C   UNL     1      -2.159  11.978  19.446  0.00  0.00    +0.000 A 
ATOM     20  C   UNL     1      -3.344  11.998  18.801  0.00  0.00    +0.000 A 
ATOM     21  C   UNL     1      -3.245  11.231  17.685  0.00  0.00    +0.000 A 
ATOM     22  C   UNL     1      -2.044  10.291  17.575  0.00  0.00    +0.000 A 
ATOM     23  C   UNL     1      -0.880  10.064  18.374  0.00  0.00    +0.000 A 
ENDBRANCH   5  13
TORSDOF 1
ENDMDL
MODEL 4
REMARK VINA RESULT:      -7.9      1.951      7.708
REMARK  Name = 
REMARK  2 active torsions:
REMARK  status: ('A' for Active; 'I' for Inactive)
REMARK    1  A    between atoms: C_1  and  N_2
REMARK    2  A    between atoms: C_5  and  C_6
REMARK                            x       y       z     vdW  Elec       q    Type
REMARK                         _______ _______ _______ _____ _____    ______ ____
ROOT
ATOM      1  C   UNL     1       3.270   3.832  19.944  0.00  0.00    +0.000 C 
ATOM      2  N   UNL     1       3.223   5.146  19.320  0.00  0.00    +0.000 N 
ATOM      3  C   UNL     1       2.328   6.125  19.773  0.00  0.00    +0.000 A 
ATOM      4  O   UNL     1       1.569   5.935  20.720  0.00  0.00    +0.000 OA
ATOM      5  C   UNL     1       2.273   7.443  19.084  0.00  0.00    +0.000 A 
ATOM      6  C   UNL     1       3.072   7.540  17.957  0.00  0.00    +0.000 A 
ATOM      7  C   UNL     1       4.056   6.488  17.512  0.00  0.00    +0.000 A 
ATOM      8  C   UNL     1       4.973   6.577  16.436  0.00  0.00    +0.000 A 
ATOM      9  C   UNL     1       5.922   5.558  16.190  0.00  0.00    +0.000 A 
ATOM     10  C   UNL     1       5.915   4.449  17.005  0.00  0.00    +0.000 A 
ATOM     11  N   UNL     1       5.027   4.307  18.007  0.00  0.00    +0.000 NA
ATOM     12  C   UNL     1       4.129   5.317  18.249  0.00  0.00    +0.000 A 
ENDROOT
BRANCH   5  13
ATOM     13  C   UNL     1       1.434   8.694  19.583  0.00  0.00    +0.000 C 
ATOM     14  O   UNL     1       1.652   8.879  20.811  0.00  0.00    +0.000 OA
ATOM     15  N   UNL     1       0.700   9.795  18.926  0.00  0.00    +0.000 N 
ATOM     16  C   UNL     1       0.905  10.998  19.755  0.00  0.00    +0.000 C 
ATOM     17  C   UNL     1       0.501  12.048  18.811  0.00  0.00    +0.000 C 
ATOM     18  C   UNL     1      -0.784  11.319  18.631  0.00  0.00    +0.000 A 
ATOM     19  C   UNL     1      -1.897  11.697  19.463  0.00  0.00    +0.000 A 
ATOM     20  C   UNL     1      -3.103  11.773  18.865  0.00  0.00    +0.000 A 
ATOM     21  C   UNL     1      -3.018  11.199  17.637  0.00  0.00    +0.000 A 
ATOM     22  C   UNL     1      -1.790  10.338  17.342  0.00  0.00    +0.000 A 
ATOM     23  C   UNL     1      -0.591  10.032  18.059  0.00  0.00    +0.000 A 
ENDBRANCH   5  13
TORSDOF 1
ENDMDL
MODEL 5
REMARK VINA RESULT:      -7.9      1.714      2.540
REMARK  Name = 
REMARK  2 active torsions:
REMARK  status: ('A' for Active; 'I' for Inactive)
REMARK    1  A    between atoms: C_1  and  N_2
REMARK    2  A    between atoms: C_5  and  C_6
REMARK                            x       y       z     vdW  Elec       q    Type
REMARK                         _______ _______ _______ _____ _____    ______ ____
ROOT
ATOM      1  C   UNL     1       0.429  12.063  18.830  0.00  0.00    +0.000 C 
ATOM      2  N   UNL     1       0.720  10.760  19.409  0.00  0.00    +0.000 N 
ATOM      3  C   UNL     1       1.424   9.790  18.681  0.00  0.00    +0.000 A 
ATOM      4  O   UNL     1       1.846   9.998  17.546  0.00  0.00    +0.000 OA
ATOM      5  C   UNL     1       1.666   8.452  19.285  0.00  0.00    +0.000 A 
ATOM      6  C   UNL     1       1.062   8.255  20.515  0.00  0.00    +0.000 A 
ATOM      7  C   UNL     1       0.343   9.325  21.297  0.00  0.00    +0.000 A 
ATOM      8  C   UNL     1      -0.198   9.213  22.602  0.00  0.00    +0.000 A 
ATOM      9  C   UNL     1      -0.753  10.329  23.269  0.00  0.00    +0.000 A 
ATOM     10  C   UNL     1      -0.790  11.534  22.604  0.00  0.00    +0.000 A 
ATOM     11  N   UNL     1      -0.331  11.668  21.346  0.00  0.00    +0.000 NA
ATOM     12  C   UNL     1       0.230  10.581  20.722  0.00  0.00    +0.000 A 
ENDROOT
BRANCH   5  13
ATOM     13  C   UNL     1       2.581   7.321  18.651  0.00  0.00    +0.000 C 
ATOM     14  O   UNL     1       3.199   7.794  17.658  0.00  0.00    +0.000 OA
ATOM     15  N   UNL     1       3.054   5.989  19.081  0.00  0.00    +0.000 N 
ATOM     16  C   UNL     1       4.432   5.843  18.575  0.00  0.00    +0.000 C 
ATOM     17  C   UNL     1       4.901   4.718  19.394  0.00  0.00    +0.000 C 
ATOM     18  C   UNL     1       3.714   3.951  18.929  0.00  0.00    +0.000 A 
ATOM     19  C   UNL     1       3.864   3.114  17.768  0.00  0.00    +0.000 A 
ATOM     20  C   UNL     1       3.279   1.899  17.816  0.00  0.00    +0.000 A 
ATOM     21  C   UNL     1       2.440   1.862  18.883  0.00  0.00    +0.000 A 
ATOM     22  C   UNL     1       2.078   3.190  19.546  0.00  0.00    +0.000 A 
ATOM     23  C   UNL     1       2.495   4.545  19.357  0.00  0.00    +0.000 A 
ENDBRANCH   5  13
TORSDOF 1
ENDMDL
MODEL 6
REMARK VINA RESULT:      -7.9      1.804      3.482
REMARK  Name = 
REMARK  2 active torsions:
REMARK  status: ('A' for Active; 'I' for Inactive)
REMARK    1  A    between atoms: C_1  and  N_2
REMARK    2  A    between atoms: C_5  and  C_6
REMARK                            x       y       z     vdW  Elec       q    Type
REMARK                         _______ _______ _______ _____ _____    ______ ____
ROOT
ATOM      1  C   UNL     1      -0.215   9.822  22.730  0.00  0.00    +0.000 C 
ATOM      2  N   UNL     1       0.235   9.847  21.346  0.00  0.00    +0.000 N 
ATOM      3  C   UNL     1       1.011   8.803  20.823  0.00  0.00    +0.000 A 
ATOM      4  O   UNL     1       1.323   7.819  21.489  0.00  0.00    +0.000 OA
ATOM      5  C   UNL     1       1.492   8.880  19.417  0.00  0.00    +0.000 A 
ATOM      6  C   UNL     1       1.200  10.068  18.770  0.00  0.00    +0.000 A 
ATOM      7  C   UNL     1       0.329  11.161  19.339  0.00  0.00    +0.000 A 
ATOM      8  C   UNL     1      -0.093  12.344  18.684  0.00  0.00    +0.000 A 
ATOM      9  C   UNL     1      -1.002  13.239  19.293  0.00  0.00    +0.000 A 
ATOM     10  C   UNL     1      -1.447  12.953  20.564  0.00  0.00    +0.000 A 
ATOM     11  N   UNL     1      -1.031  11.864  21.236  0.00  0.00    +0.000 NA
ATOM     12  C   UNL     1      -0.169  10.990  20.621  0.00  0.00    +0.000 A 
ENDROOT
BRANCH   5  13
ATOM     13  C   UNL     1       2.235   7.708  18.646  0.00  0.00    +0.000 C 
ATOM     14  O   UNL     1       2.741   8.164  17.585  0.00  0.00    +0.000 OA
ATOM     15  N   UNL     1       2.674   6.340  18.988  0.00  0.00    +0.000 N 
ATOM     16  C   UNL     1       3.958   6.119  18.295  0.00  0.00    +0.000 C 
ATOM     17  C   UNL     1       4.461   4.949  19.025  0.00  0.00    +0.000 C 
ATOM     18  C   UNL     1       3.173   4.268  18.718  0.00  0.00    +0.000 A 
ATOM     19  C   UNL     1       3.107   3.450  17.536  0.00  0.00    +0.000 A 
ATOM     20  C   UNL     1       2.457   2.274  17.648  0.00  0.00    +0.000 A 
ATOM     21  C   UNL     1       1.771   2.265  18.820  0.00  0.00    +0.000 A 
ATOM     22  C   UNL     1       1.591   3.598  19.546  0.00  0.00    +0.000 A 
ATOM     23  C   UNL     1       2.066   4.928  19.320  0.00  0.00    +0.000 A 
ENDBRANCH   5  13
TORSDOF 1
ENDMDL
MODEL 7
REMARK VINA RESULT:      -7.7      1.791      7.285
REMARK  Name = 
REMARK  2 active torsions:
REMARK  status: ('A' for Active; 'I' for Inactive)
REMARK    1  A    between atoms: C_1  and  N_2
REMARK    2  A    between atoms: C_5  and  C_6
REMARK                            x       y       z     vdW  Elec       q    Type
REMARK                         _______ _______ _______ _____ _____    ______ ____
ROOT
ATOM      1  C   UNL     1       5.132   4.729  17.538  0.00  0.00    +0.000 C 
ATOM      2  N   UNL     1       4.057   5.337  18.308  0.00  0.00    +0.000 N 
ATOM      3  C   UNL     1       3.616   6.637  18.025  0.00  0.00    +0.000 A 
ATOM      4  O   UNL     1       4.090   7.308  17.111  0.00  0.00    +0.000 OA
ATOM      5  C   UNL     1       2.546   7.246  18.860  0.00  0.00    +0.000 A 
ATOM      6  C   UNL     1       2.145   6.477  19.939  0.00  0.00    +0.000 A 
ATOM      7  C   UNL     1       2.605   5.065  20.201  0.00  0.00    +0.000 A 
ATOM      8  C   UNL     1       2.150   4.193  21.221  0.00  0.00    +0.000 A 
ATOM      9  C   UNL     1       2.585   2.850  21.291  0.00  0.00    +0.000 A 
ATOM     10  C   UNL     1       3.497   2.409  20.358  0.00  0.00    +0.000 A 
ATOM     11  N   UNL     1       3.988   3.221  19.404  0.00  0.00    +0.000 NA
ATOM     12  C   UNL     1       3.536   4.516  19.333  0.00  0.00    +0.000 A 
ENDROOT
BRANCH   5  13
ATOM     13  C   UNL     1       1.838   8.634  18.558  0.00  0.00    +0.000 C 
ATOM     14  O   UNL     1       2.168   9.028  17.407  0.00  0.00    +0.000 OA
ATOM     15  N   UNL     1       0.736   9.406  19.170  0.00  0.00    +0.000 N 
ATOM     16  C   UNL     1       0.002  10.049  18.064  0.00  0.00    +0.000 C 
ATOM     17  C   UNL     1      -1.248  10.411  18.745  0.00  0.00    +0.000 C 
ATOM     18  C   UNL     1      -0.426  11.109  19.771  0.00  0.00    +0.000 A 
ATOM     19  C   UNL     1      -0.167  12.513  19.588  0.00  0.00    +0.000 A 
ATOM     20  C   UNL     1      -0.248  13.293  20.686  0.00  0.00    +0.000 A 
ATOM     21  C   UNL     1      -0.298  12.496  21.784  0.00  0.00    +0.000 A 
ATOM     22  C   UNL     1       0.077  11.025  21.609  0.00  0.00    +0.000 A 
ATOM     23  C   UNL     1       0.413  10.209  20.483  0.00  0.00    +0.000 A 
ENDBRANCH   5  13
TORSDOF 1
ENDMDL
MODEL 8
REMARK VINA RESULT:      -7.5      1.670      7.473
REMARK  Name = 
REMARK  2 active torsions:
REMARK  status: ('A' for Active; 'I' for Inactive)
REMARK    1  A    between atoms: C_1  and  N_2
REMARK    2  A    between atoms: C_5  and  C_6
REMARK                            x       y       z     vdW  Elec       q    Type
REMARK                         _______ _______ _______ _____ _____    ______ ____
ROOT
ATOM      1  C   UNL     1       5.787   4.741  17.336  0.00  0.00    +0.000 C 
ATOM      2  N   UNL     1       4.448   5.133  17.749  0.00  0.00    +0.000 N 
ATOM      3  C   UNL     1       4.083   6.485  17.816  0.00  0.00    +0.000 A 
ATOM      4  O   UNL     1       4.855   7.390  17.510  0.00  0.00    +0.000 OA
ATOM      5  C   UNL     1       2.720   6.853  18.286  0.00  0.00    +0.000 A 
ATOM      6  C   UNL     1       1.950   5.788  18.722  0.00  0.00    +0.000 A 
ATOM      7  C   UNL     1       2.349   4.339  18.603  0.00  0.00    +0.000 A 
ATOM      8  C   UNL     1       1.563   3.206  18.930  0.00  0.00    +0.000 A 
ATOM      9  C   UNL     1       2.016   1.893  18.667  0.00  0.00    +0.000 A 
ATOM     10  C   UNL     1       3.266   1.733  18.113  0.00  0.00    +0.000 A 
ATOM     11  N   UNL     1       4.061   2.782  17.834  0.00  0.00    +0.000 NA
ATOM     12  C   UNL     1       3.596   4.052  18.071  0.00  0.00    +0.000 A 
ENDROOT
BRANCH   5  13
ATOM     13  C   UNL     1       2.116   8.321  18.259  0.00  0.00    +0.000 C 
ATOM     14  O   UNL     1       2.599   8.952  17.280  0.00  0.00    +0.000 OA
ATOM     15  N   UNL     1       0.985   9.003  18.920  0.00  0.00    +0.000 N 
ATOM     16  C   UNL     1       0.418   9.942  17.934  0.00  0.00    +0.000 C 
ATOM     17  C   UNL     1      -0.887  10.221  18.546  0.00  0.00    +0.000 C 
ATOM     18  C   UNL     1      -0.164  10.594  19.792  0.00  0.00    +0.000 A 
ATOM     19  C   UNL     1       0.177  11.979  19.986  0.00  0.00    +0.000 A 
ATOM     20  C   UNL     1       0.000  12.480  21.226  0.00  0.00    +0.000 A 
ATOM     21  C   UNL     1      -0.217  11.451  22.085  0.00  0.00    +0.000 A 
ATOM     22  C   UNL     1       0.110  10.040  21.596  0.00  0.00    +0.000 A 
ATOM     23  C   UNL     1       0.542   9.492  20.348  0.00  0.00    +0.000 A 
ENDBRANCH   5  13
TORSDOF 1
ENDMDL
MODEL 9
REMARK VINA RESULT:      -7.4      2.173      4.164
REMARK  Name = 
REMARK  2 active torsions:
REMARK  status: ('A' for Active; 'I' for Inactive)
REMARK    1  A    between atoms: C_1  and  N_2
REMARK    2  A    between atoms: C_5  and  C_6
REMARK                            x       y       z     vdW  Elec       q    Type
REMARK                         _______ _______ _______ _____ _____    ______ ____
ROOT
ATOM      1  C   UNL     1      -0.520  11.457  22.014  0.00  0.00    +0.000 C 
ATOM      2  N   UNL     1       0.277  11.262  20.813  0.00  0.00    +0.000 N 
ATOM      3  C   UNL     1       0.670   9.978  20.410  0.00  0.00    +0.000 A 
ATOM      4  O   UNL     1       0.343   8.967  21.028  0.00  0.00    +0.000 OA
ATOM      5  C   UNL     1       1.523   9.817  19.202  0.00  0.00    +0.000 A 
ATOM      6  C   UNL     1       1.945  11.004  18.629  0.00  0.00    +0.000 A 
ATOM      7  C   UNL     1       1.478  12.374  19.056  0.00  0.00    +0.000 A 
ATOM      8  C   UNL     1       1.788  13.612  18.441  0.00  0.00    +0.000 A 
ATOM      9  C   UNL     1       1.194  14.819  18.874  0.00  0.00    +0.000 A 
ATOM     10  C   UNL     1       0.325  14.773  19.941  0.00  0.00    +0.000 A 
ATOM     11  N   UNL     1       0.044  13.623  20.581  0.00  0.00    +0.000 NA
ATOM     12  C   UNL     1       0.608  12.455  20.131  0.00  0.00    +0.000 A 
ENDROOT
BRANCH   5  13
ATOM     13  C   UNL     1       1.905   8.426  18.539  0.00  0.00    +0.000 C 
ATOM     14  O   UNL     1       2.076   8.588  17.300  0.00  0.00    +0.000 OA
ATOM     15  N   UNL     1       2.342   7.108  19.044  0.00  0.00    +0.000 N 
ATOM     16  C   UNL     1       3.322   6.584  18.073  0.00  0.00    +0.000 C 
ATOM     17  C   UNL     1       3.954   5.527  18.873  0.00  0.00    +0.000 C 
ATOM     18  C   UNL     1       2.595   4.977  19.126  0.00  0.00    +0.000 A 
ATOM     19  C   UNL     1       2.105   3.954  18.239  0.00  0.00    +0.000 A 
ATOM     20  C   UNL     1       1.449   2.922  18.807  0.00  0.00    +0.000 A 
ATOM     21  C   UNL     1       1.172   3.239  20.098  0.00  0.00    +0.000 A 
ATOM     22  C   UNL     1       1.318   4.702  20.515  0.00  0.00    +0.000 A 
ATOM     23  C   UNL     1       1.781   5.884  19.857  0.00  0.00    +0.000 A 
ENDBRANCH   5  13
TORSDOF 1
ENDMDL
