MODEL 1
REMARK VINA RESULT:      -7.5      0.000      0.000
REMARK  Name = 
REMARK  4 active torsions:
REMARK  status: ('A' for Active; 'I' for Inactive)
REMARK    1  A    between atoms: C_2  and  C_3
REMARK    2  A    between atoms: C_8  and  N_9
REMARK    3  A    between atoms: N_9  and  C_10
REMARK    4  A    between atoms: C_10  and  C_11
REMARK                            x       y       z     vdW  Elec       q    Type
REMARK                         _______ _______ _______ _____ _____    ______ ____
ROOT
ATOM      1  C   UNL     1       4.847   4.942  17.482  0.00  0.00    +0.000 A 
ATOM      2  C   UNL     1       5.486   3.905  16.791  0.00  0.00    +0.000 A 
ATOM      3  C   UNL     1       5.901   4.100  15.479  0.00  0.00    +0.000 A 
ATOM      4  C   UNL     1       5.716   5.350  14.922  0.00  0.00    +0.000 A 
ATOM      5  N   UNL     1       5.173   6.389  15.590  0.00  0.00    +0.000 NA
ATOM      6  C   UNL     1       4.767   6.210  16.870  0.00  0.00    +0.000 A 
ENDROOT
BRANCH   1   8
ATOM      7  O   UNL     1       5.106   5.080  19.793  0.00  0.00    +0.000 OA
ATOM      8  C   UNL     1       4.372   4.710  18.876  0.00  0.00    +0.000 C 
ATOM      9  N   UNL     1       3.155   4.041  19.118  0.00  0.00    +0.000 N 
ATOM     10  C   UNL     1       2.729   3.943  20.520  0.00  0.00    +0.000 C 
ATOM     11  C   UNL     1       1.731   2.804  20.759  0.00  0.00    +0.000 C 
ATOM     12  O   UNL     1       0.634   2.853  19.836  0.00  0.00    +0.000 OA
ATOM     13  C   UNL     1       1.115   2.775  18.489  0.00  0.00    +0.000 C 
ATOM     14  C   UNL     1       2.029   3.965  18.168  0.00  0.00    +0.000 C 
ENDBRANCH   1   8
BRANCH   6  15
ATOM     15  N   UNL     1       4.238   7.313  17.555  0.00  0.00    +0.000 N 
ATOM     16  H   UNL     1       4.900   8.085  17.481  0.00  0.00    +0.000 HD
BRANCH  15  17
ATOM     17  C   UNL     1       2.869   7.708  17.250  0.00  0.00    +0.000 C 
BRANCH  17  18
ATOM     18  C   UNL     1       2.143   8.256  18.468  0.00  0.00    +0.000 A 
ATOM     19  C   UNL     1       1.349   9.413  18.396  0.00  0.00    +0.000 A 
ATOM     20  C   UNL     1       0.631   9.862  19.502  0.00  0.00    +0.000 A 
ATOM     21  C   UNL     1       0.686   9.149  20.691  0.00  0.00    +0.000 A 
ATOM     22  F   UNL     1      -0.023   9.567  21.747  0.00  0.00    +0.000 F 
ATOM     23  C   UNL     1       1.461   7.999  20.796  0.00  0.00    +0.000 A 
ATOM     24  C   UNL     1       2.189   7.553  19.688  0.00  0.00    +0.000 A 
ENDBRANCH  17  18
ENDBRANCH  15  17
ENDBRANCH   6  15
TORSDOF 4
ENDMDL
MODEL 2
REMARK VINA RESULT:      -7.5      0.398      1.082
REMARK  Name = 
REMARK  4 active torsions:
REMARK  status: ('A' for Active; 'I' for Inactive)
REMARK    1  A    between atoms: C_2  and  C_3
REMARK    2  A    between atoms: C_8  and  N_9
REMARK    3  A    between atoms: N_9  and  C_10
REMARK    4  A    between atoms: C_10  and  C_11
REMARK                            x       y       z     vdW  Elec       q    Type
REMARK                         _______ _______ _______ _____ _____    ______ ____
ROOT
ATOM      1  C   UNL     1       5.022   4.631  17.258  0.00  0.00    +0.000 A 
ATOM      2  C   UNL     1       5.595   3.666  16.421  0.00  0.00    +0.000 A 
ATOM      3  C   UNL     1       5.923   3.993  15.111  0.00  0.00    +0.000 A 
ATOM      4  C   UNL     1       5.722   5.296  14.700  0.00  0.00    +0.000 A 
ATOM      5  N   UNL     1       5.243   6.265  15.508  0.00  0.00    +0.000 NA
ATOM      6  C   UNL     1       4.922   5.957  16.788  0.00  0.00    +0.000 A 
ENDROOT
BRANCH   1   8
ATOM      7  O   UNL     1       5.503   4.356  19.521  0.00  0.00    +0.000 OA
ATOM      8  C   UNL     1       4.638   4.261  18.650  0.00  0.00    +0.000 C 
ATOM      9  N   UNL     1       3.348   3.766  18.932  0.00  0.00    +0.000 N 
ATOM     10  C   UNL     1       3.036   3.516  20.346  0.00  0.00    +0.000 C 
ATOM     11  C   UNL     1       1.879   2.528  20.532  0.00  0.00    +0.000 C 
ATOM     12  O   UNL     1       0.730   2.900  19.757  0.00  0.00    +0.000 OA
ATOM     13  C   UNL     1       1.069   2.961  18.366  0.00  0.00    +0.000 C 
ATOM     14  C   UNL     1       2.147   4.024  18.116  0.00  0.00    +0.000 C 
ENDBRANCH   1   8
BRANCH   6  15
ATOM     15  N   UNL     1       4.458   6.988  17.618  0.00  0.00    +0.000 N 
ATOM     16  H   UNL     1       5.235   7.621  17.808  0.00  0.00    +0.000 HD
BRANCH  15  17
ATOM     17  C   UNL     1       3.242   7.685  17.219  0.00  0.00    +0.000 C 
BRANCH  17  18
ATOM     18  C   UNL     1       2.371   8.050  18.410  0.00  0.00    +0.000 A 
ATOM     19  C   UNL     1       2.367   7.279  19.586  0.00  0.00    +0.000 A 
ATOM     20  C   UNL     1       1.619   7.666  20.696  0.00  0.00    +0.000 A 
ATOM     21  C   UNL     1       0.879   8.839  20.650  0.00  0.00    +0.000 A 
ATOM     22  F   UNL     1       0.180   9.223  21.725  0.00  0.00    +0.000 F 
ATOM     23  C   UNL     1       0.864   9.625  19.503  0.00  0.00    +0.000 A 
ATOM     24  C   UNL     1       1.606   9.233  18.385  0.00  0.00    +0.000 A 
ENDBRANCH  17  18
ENDBRANCH  15  17
ENDBRANCH   6  15
TORSDOF 4
ENDMDL
MODEL 3
REMARK VINA RESULT:      -7.5      1.816      4.048
REMARK  Name = 
REMARK  4 active torsions:
REMARK  status: ('A' for Active; 'I' for Inactive)
REMARK    1  A    between atoms: C_2  and  C_3
REMARK    2  A    between atoms: C_8  and  N_9
REMARK    3  A    between atoms: N_9  and  C_10
REMARK    4  A    between atoms: C_10  and  C_11
REMARK                            x       y       z     vdW  Elec       q    Type
REMARK                         _______ _______ _______ _____ _____    ______ ____
ROOT
ATOM      1  C   UNL     1       3.326   3.539  19.065  0.00  0.00    +0.000 A 
ATOM      2  C   UNL     1       2.789   2.363  18.526  0.00  0.00    +0.000 A 
ATOM      3  C   UNL     1       1.432   2.097  18.661  0.00  0.00    +0.000 A 
ATOM      4  C   UNL     1       0.645   3.048  19.280  0.00  0.00    +0.000 A 
ATOM      5  N   UNL     1       1.123   4.223  19.741  0.00  0.00    +0.000 NA
ATOM      6  C   UNL     1       2.444   4.493  19.612  0.00  0.00    +0.000 A 
ENDROOT
BRANCH   1   8
ATOM      7  O   UNL     1       5.522   3.315  19.814  0.00  0.00    +0.000 OA
ATOM      8  C   UNL     1       4.790   3.797  18.949  0.00  0.00    +0.000 C 
ATOM      9  N   UNL     1       5.295   4.614  17.916  0.00  0.00    +0.000 N 
ATOM     10  C   UNL     1       6.757   4.734  17.831  0.00  0.00    +0.000 C 
ATOM     11  C   UNL     1       7.205   5.988  17.072  0.00  0.00    +0.000 C 
ATOM     12  O   UNL     1       6.554   6.103  15.799  0.00  0.00    +0.000 OA
ATOM     13  C   UNL     1       5.132   6.149  15.972  0.00  0.00    +0.000 C 
ATOM     14  C   UNL     1       4.622   4.858  16.626  0.00  0.00    +0.000 C 
ENDBRANCH   1   8
BRANCH   6  15
ATOM     15  N   UNL     1       2.911   5.736  20.066  0.00  0.00    +0.000 N 
ATOM     16  H   UNL     1       3.856   5.611  20.429  0.00  0.00    +0.000 HD
BRANCH  15  17
ATOM     17  C   UNL     1       2.793   6.875  19.165  0.00  0.00    +0.000 C 
BRANCH  17  18
ATOM     18  C   UNL     1       1.863   7.946  19.711  0.00  0.00    +0.000 A 
ATOM     19  C   UNL     1       1.463   9.044  18.930  0.00  0.00    +0.000 A 
ATOM     20  C   UNL     1       0.552   9.979  19.418  0.00  0.00    +0.000 A 
ATOM     21  C   UNL     1       0.017   9.817  20.687  0.00  0.00    +0.000 A 
ATOM     22  F   UNL     1      -0.877  10.702  21.147  0.00  0.00    +0.000 F 
ATOM     23  C   UNL     1       0.390   8.741  21.485  0.00  0.00    +0.000 A 
ATOM     24  C   UNL     1       1.311   7.807  20.999  0.00  0.00    +0.000 A 
ENDBRANCH  17  18
ENDBRANCH  15  17
ENDBRANCH   6  15
TORSDOF 4
ENDMDL
MODEL 4
REMARK VINA RESULT:      -7.4      1.825      4.157
REMARK  Name = 
REMARK  4 active torsions:
REMARK  status: ('A' for Active; 'I' for Inactive)
REMARK    1  A    between atoms: C_2  and  C_3
REMARK    2  A    between atoms: C_8  and  N_9
REMARK    3  A    between atoms: N_9  and  C_10
REMARK    4  A    between atoms: C_10  and  C_11
REMARK                            x       y       z     vdW  Elec       q    Type
REMARK                         _______ _______ _______ _____ _____    ______ ____
ROOT
ATOM      1  C   UNL     1       3.303   3.540  19.073  0.00  0.00    +0.000 A 
ATOM      2  C   UNL     1       2.750   2.385  18.505  0.00  0.00    +0.000 A 
ATOM      3  C   UNL     1       1.391   2.129  18.644  0.00  0.00    +0.000 A 
ATOM      4  C   UNL     1       0.618   3.070  19.294  0.00  0.00    +0.000 A 
ATOM      5  N   UNL     1       1.111   4.228  19.783  0.00  0.00    +0.000 NA
ATOM      6  C   UNL     1       2.434   4.488  19.652  0.00  0.00    +0.000 A 
ENDROOT
BRANCH   1   8
ATOM      7  O   UNL     1       5.500   3.280  19.803  0.00  0.00    +0.000 OA
ATOM      8  C   UNL     1       4.768   3.787  18.952  0.00  0.00    +0.000 C 
ATOM      9  N   UNL     1       5.274   4.620  17.934  0.00  0.00    +0.000 N 
ATOM     10  C   UNL     1       6.737   4.728  17.843  0.00  0.00    +0.000 C 
ATOM     11  C   UNL     1       7.193   5.993  17.106  0.00  0.00    +0.000 C 
ATOM     12  O   UNL     1       6.535   6.141  15.840  0.00  0.00    +0.000 OA
ATOM     13  C   UNL     1       5.115   6.197  16.023  0.00  0.00    +0.000 C 
ATOM     14  C   UNL     1       4.597   4.897  16.653  0.00  0.00    +0.000 C 
ENDBRANCH   1   8
BRANCH   6  15
ATOM     15  N   UNL     1       2.917   5.713  20.136  0.00  0.00    +0.000 N 
ATOM     16  H   UNL     1       3.856   5.565  20.504  0.00  0.00    +0.000 HD
BRANCH  15  17
ATOM     17  C   UNL     1       2.826   6.872  19.259  0.00  0.00    +0.000 C 
BRANCH  17  18
ATOM     18  C   UNL     1       1.818   7.895  19.759  0.00  0.00    +0.000 A 
ATOM     19  C   UNL     1       1.272   7.823  21.052  0.00  0.00    +0.000 A 
ATOM     20  C   UNL     1       0.406   8.808  21.522  0.00  0.00    +0.000 A 
ATOM     21  C   UNL     1       0.089   9.887  20.710  0.00  0.00    +0.000 A 
ATOM     22  F   UNL     1      -0.724  10.846  21.170  0.00  0.00    +0.000 F 
ATOM     23  C   UNL     1       0.614   9.990  19.426  0.00  0.00    +0.000 A 
ATOM     24  C   UNL     1       1.476   8.997  18.950  0.00  0.00    +0.000 A 
ENDBRANCH  17  18
ENDBRANCH  15  17
ENDBRANCH   6  15
TORSDOF 4
ENDMDL
MODEL 5
REMARK VINA RESULT:      -7.3      1.958      4.365
REMARK  Name = 
REMARK  4 active torsions:
REMARK  status: ('A' for Active; 'I' for Inactive)
REMARK    1  A    between atoms: C_2  and  C_3
REMARK    2  A    between atoms: C_8  and  N_9
REMARK    3  A    between atoms: N_9  and  C_10
REMARK    4  A    between atoms: C_10  and  C_11
REMARK                            x       y       z     vdW  Elec       q    Type
REMARK                         _______ _______ _______ _____ _____    ______ ____
ROOT
ATOM      1  C   UNL     1       3.143   3.700  19.028  0.00  0.00    +0.000 A 
ATOM      2  C   UNL     1       3.386   2.585  19.840  0.00  0.00    +0.000 A 
ATOM      3  C   UNL     1       2.956   2.585  21.162  0.00  0.00    +0.000 A 
ATOM      4  C   UNL     1       2.242   3.679  21.610  0.00  0.00    +0.000 A 
ATOM      5  N   UNL     1       1.927   4.733  20.827  0.00  0.00    +0.000 NA
ATOM      6  C   UNL     1       2.340   4.742  19.537  0.00  0.00    +0.000 A 
ENDROOT
BRANCH   1   8
ATOM      7  O   UNL     1       2.866   3.325  16.745  0.00  0.00    +0.000 OA
ATOM      8  C   UNL     1       3.641   3.707  17.623  0.00  0.00    +0.000 C 
ATOM      9  N   UNL     1       4.969   4.082  17.334  0.00  0.00    +0.000 N 
ATOM     10  C   UNL     1       5.337   4.145  15.913  0.00  0.00    +0.000 C 
ATOM     11  C   UNL     1       6.850   4.040  15.687  0.00  0.00    +0.000 C 
ATOM     12  O   UNL     1       7.577   4.970  16.501  0.00  0.00    +0.000 OA
ATOM     13  C   UNL     1       7.297   4.740  17.888  0.00  0.00    +0.000 C 
ATOM     14  C   UNL     1       5.806   4.950  18.183  0.00  0.00    +0.000 C 
ENDBRANCH   1   8
BRANCH   6  15
ATOM     15  N   UNL     1       1.970   5.831  18.734  0.00  0.00    +0.000 N 
ATOM     16  H   UNL     1       0.967   5.982  18.839  0.00  0.00    +0.000 HD
BRANCH  15  17
ATOM     17  C   UNL     1       2.746   7.058  18.858  0.00  0.00    +0.000 C 
BRANCH  17  18
ATOM     18  C   UNL     1       1.877   8.255  19.210  0.00  0.00    +0.000 A 
ATOM     19  C   UNL     1       1.501   9.204  18.244  0.00  0.00    +0.000 A 
ATOM     20  C   UNL     1       0.645  10.256  18.564  0.00  0.00    +0.000 A 
ATOM     21  C   UNL     1       0.139  10.360  19.852  0.00  0.00    +0.000 A 
ATOM     22  F   UNL     1      -0.703  11.356  20.154  0.00  0.00    +0.000 F 
ATOM     23  C   UNL     1       0.489   9.436  20.831  0.00  0.00    +0.000 A 
ATOM     24  C   UNL     1       1.356   8.386  20.512  0.00  0.00    +0.000 A 
ENDBRANCH  17  18
ENDBRANCH  15  17
ENDBRANCH   6  15
TORSDOF 4
ENDMDL
MODEL 6
REMARK VINA RESULT:      -7.3      2.003      4.359
REMARK  Name = 
REMARK  4 active torsions:
REMARK  status: ('A' for Active; 'I' for Inactive)
REMARK    1  A    between atoms: C_2  and  C_3
REMARK    2  A    between atoms: C_8  and  N_9
REMARK    3  A    between atoms: N_9  and  C_10
REMARK    4  A    between atoms: C_10  and  C_11
REMARK                            x       y       z     vdW  Elec       q    Type
REMARK                         _______ _______ _______ _____ _____    ______ ____
ROOT
ATOM      1  C   UNL     1       3.488   3.439  18.920  0.00  0.00    +0.000 A 
ATOM      2  C   UNL     1       3.094   2.440  18.021  0.00  0.00    +0.000 A 
ATOM      3  C   UNL     1       1.783   1.979  18.031  0.00  0.00    +0.000 A 
ATOM      4  C   UNL     1       0.893   2.578  18.900  0.00  0.00    +0.000 A 
ATOM      5  N   UNL     1       1.227   3.594  19.723  0.00  0.00    +0.000 NA
ATOM      6  C   UNL     1       2.502   4.052  19.719  0.00  0.00    +0.000 A 
ENDROOT
BRANCH   1   8
ATOM      7  O   UNL     1       5.624   3.507  19.848  0.00  0.00    +0.000 OA
ATOM      8  C   UNL     1       4.906   3.900  18.928  0.00  0.00    +0.000 C 
ATOM      9  N   UNL     1       5.375   4.797  17.947  0.00  0.00    +0.000 N 
ATOM     10  C   UNL     1       6.808   5.120  17.986  0.00  0.00    +0.000 C 
ATOM     11  C   UNL     1       7.138   6.438  17.275  0.00  0.00    +0.000 C 
ATOM     12  O   UNL     1       6.583   6.485  15.953  0.00  0.00    +0.000 OA
ATOM     13  C   UNL     1       5.159   6.330  16.006  0.00  0.00    +0.000 C 
ATOM     14  C   UNL     1       4.783   4.969  16.606  0.00  0.00    +0.000 C 
ENDBRANCH   1   8
BRANCH   6  15
ATOM     15  N   UNL     1       2.817   5.133  20.557  0.00  0.00    +0.000 N 
ATOM     16  H   UNL     1       3.685   5.554  20.226  0.00  0.00    +0.000 HD
BRANCH  15  17
ATOM     17  C   UNL     1       1.773   6.114  20.820  0.00  0.00    +0.000 C 
BRANCH  17  18
ATOM     18  C   UNL     1       1.889   7.333  19.919  0.00  0.00    +0.000 A 
ATOM     19  C   UNL     1       2.540   7.273  18.675  0.00  0.00    +0.000 A 
ATOM     20  C   UNL     1       2.576   8.379  17.828  0.00  0.00    +0.000 A 
ATOM     21  C   UNL     1       1.944   9.554  18.208  0.00  0.00    +0.000 A 
ATOM     22  F   UNL     1       1.956  10.609  17.384  0.00  0.00    +0.000 F 
ATOM     23  C   UNL     1       1.288   9.646  19.431  0.00  0.00    +0.000 A 
ATOM     24  C   UNL     1       1.260   8.539  20.286  0.00  0.00    +0.000 A 
ENDBRANCH  17  18
ENDBRANCH  15  17
ENDBRANCH   6  15
TORSDOF 4
ENDMDL
MODEL 7
REMARK VINA RESULT:      -7.3      1.959      4.447
REMARK  Name = 
REMARK  4 active torsions:
REMARK  status: ('A' for Active; 'I' for Inactive)
REMARK    1  A    between atoms: C_2  and  C_3
REMARK    2  A    between atoms: C_8  and  N_9
REMARK    3  A    between atoms: N_9  and  C_10
REMARK    4  A    between atoms: C_10  and  C_11
REMARK                            x       y       z     vdW  Elec       q    Type
REMARK                         _______ _______ _______ _____ _____    ______ ____
ROOT
ATOM      1  C   UNL     1       3.056   3.671  18.990  0.00  0.00    +0.000 A 
ATOM      2  C   UNL     1       3.300   2.549  19.792  0.00  0.00    +0.000 A 
ATOM      3  C   UNL     1       2.906   2.553  21.124  0.00  0.00    +0.000 A 
ATOM      4  C   UNL     1       2.225   3.658  21.594  0.00  0.00    +0.000 A 
ATOM      5  N   UNL     1       1.908   4.720  20.824  0.00  0.00    +0.000 NA
ATOM      6  C   UNL     1       2.286   4.725  19.523  0.00  0.00    +0.000 A 
ENDROOT
BRANCH   1   8
ATOM      7  O   UNL     1       2.713   3.306  16.714  0.00  0.00    +0.000 OA
ATOM      8  C   UNL     1       3.517   3.673  17.572  0.00  0.00    +0.000 C 
ATOM      9  N   UNL     1       4.842   4.029  17.248  0.00  0.00    +0.000 N 
ATOM     10  C   UNL     1       5.173   4.089  15.818  0.00  0.00    +0.000 C 
ATOM     11  C   UNL     1       6.678   3.961  15.552  0.00  0.00    +0.000 C 
ATOM     12  O   UNL     1       7.441   4.879  16.348  0.00  0.00    +0.000 OA
ATOM     13  C   UNL     1       7.194   4.650  17.741  0.00  0.00    +0.000 C 
ATOM     14  C   UNL     1       5.715   4.881  18.076  0.00  0.00    +0.000 C 
ENDBRANCH   1   8
BRANCH   6  15
ATOM     15  N   UNL     1       1.916   5.824  18.733  0.00  0.00    +0.000 N 
ATOM     16  H   UNL     1       0.915   5.981  18.850  0.00  0.00    +0.000 HD
BRANCH  15  17
ATOM     17  C   UNL     1       2.701   7.045  18.860  0.00  0.00    +0.000 C 
BRANCH  17  18
ATOM     18  C   UNL     1       1.843   8.245  19.228  0.00  0.00    +0.000 A 
ATOM     19  C   UNL     1       1.369   8.442  20.536  0.00  0.00    +0.000 A 
ATOM     20  C   UNL     1       0.646   9.583  20.875  0.00  0.00    +0.000 A 
ATOM     21  C   UNL     1       0.402  10.552  19.911  0.00  0.00    +0.000 A 
ATOM     22  F   UNL     1      -0.272  11.660  20.242  0.00  0.00    +0.000 F 
ATOM     23  C   UNL     1       0.859  10.389  18.608  0.00  0.00    +0.000 A 
ATOM     24  C   UNL     1       1.577   9.239  18.265  0.00  0.00    +0.000 A 
ENDBRANCH  17  18
ENDBRANCH  15  17
ENDBRANCH   6  15
TORSDOF 4
ENDMDL
MODEL 8
REMARK VINA RESULT:      -7.3      1.894      4.206
REMARK  Name = 
REMARK  4 active torsions:
REMARK  status: ('A' for Active; 'I' for Inactive)
REMARK    1  A    between atoms: C_2  and  C_3
REMARK    2  A    between atoms: C_8  and  N_9
REMARK    3  A    between atoms: N_9  and  C_10
REMARK    4  A    between atoms: C_10  and  C_11
REMARK                            x       y       z     vdW  Elec       q    Type
REMARK                         _______ _______ _______ _____ _____    ______ ____
ROOT
ATOM      1  C   UNL     1       3.636   3.442  18.599  0.00  0.00    +0.000 A 
ATOM      2  C   UNL     1       3.373   2.066  18.582  0.00  0.00    +0.000 A 
ATOM      3  C   UNL     1       2.060   1.612  18.606  0.00  0.00    +0.000 A 
ATOM      4  C   UNL     1       1.050   2.554  18.585  0.00  0.00    +0.000 A 
ATOM      5  N   UNL     1       1.273   3.883  18.524  0.00  0.00    +0.000 NA
ATOM      6  C   UNL     1       2.550   4.336  18.498  0.00  0.00    +0.000 A 
ENDROOT
BRANCH   1   8
ATOM      7  O   UNL     1       5.654   3.870  19.683  0.00  0.00    +0.000 OA
ATOM      8  C   UNL     1       5.048   3.919  18.612  0.00  0.00    +0.000 C 
ATOM      9  N   UNL     1       5.635   4.457  17.448  0.00  0.00    +0.000 N 
ATOM     10  C   UNL     1       7.057   4.814  17.536  0.00  0.00    +0.000 C 
ATOM     11  C   UNL     1       7.480   5.834  16.472  0.00  0.00    +0.000 C 
ATOM     12  O   UNL     1       7.079   5.429  15.156  0.00  0.00    +0.000 OA
ATOM     13  C   UNL     1       5.657   5.262  15.100  0.00  0.00    +0.000 C 
ATOM     14  C   UNL     1       5.201   4.164  16.069  0.00  0.00    +0.000 C 
ENDBRANCH   1   8
BRANCH   6  15
ATOM     15  N   UNL     1       2.757   5.720  18.399  0.00  0.00    +0.000 N 
ATOM     16  H   UNL     1       2.179   6.078  17.639  0.00  0.00    +0.000 HD
BRANCH  15  17
ATOM     17  C   UNL     1       2.647   6.511  19.618  0.00  0.00    +0.000 C 
BRANCH  17  18
ATOM     18  C   UNL     1       1.992   7.860  19.371  0.00  0.00    +0.000 A 
ATOM     19  C   UNL     1       1.309   8.546  20.389  0.00  0.00    +0.000 A 
ATOM     20  C   UNL     1       0.776   9.815  20.168  0.00  0.00    +0.000 A 
ATOM     21  C   UNL     1       0.936  10.420  18.930  0.00  0.00    +0.000 A 
ATOM     22  F   UNL     1       0.445  11.649  18.726  0.00  0.00    +0.000 F 
ATOM     23  C   UNL     1       1.609   9.769  17.902  0.00  0.00    +0.000 A 
ATOM     24  C   UNL     1       2.135   8.492  18.120  0.00  0.00    +0.000 A 
ENDBRANCH  17  18
ENDBRANCH  15  17
ENDBRANCH   6  15
TORSDOF 4
ENDMDL
MODEL 9
REMARK VINA RESULT:      -7.2      1.909      4.200
REMARK  Name = 
REMARK  4 active torsions:
REMARK  status: ('A' for Active; 'I' for Inactive)
REMARK    1  A    between atoms: C_2  and  C_3
REMARK    2  A    between atoms: C_8  and  N_9
REMARK    3  A    between atoms: N_9  and  C_10
REMARK    4  A    between atoms: C_10  and  C_11
REMARK                            x       y       z     vdW  Elec       q    Type
REMARK                         _______ _______ _______ _____ _____    ______ ____
ROOT
ATOM      1  C   UNL     1       3.566   3.462  18.680  0.00  0.00    +0.000 A 
ATOM      2  C   UNL     1       3.236   2.113  18.499  0.00  0.00    +0.000 A 
ATOM      3  C   UNL     1       1.911   1.706  18.593  0.00  0.00    +0.000 A 
ATOM      4  C   UNL     1       0.951   2.674  18.805  0.00  0.00    +0.000 A 
ATOM      5  N   UNL     1       1.231   3.991  18.906  0.00  0.00    +0.000 NA
ATOM      6  C   UNL     1       2.520   4.398  18.814  0.00  0.00    +0.000 A 
ENDROOT
BRANCH   1   8
ATOM      7  O   UNL     1       5.663   3.780  19.645  0.00  0.00    +0.000 OA
ATOM      8  C   UNL     1       4.994   3.883  18.615  0.00  0.00    +0.000 C 
ATOM      9  N   UNL     1       5.528   4.432  17.432  0.00  0.00    +0.000 N 
ATOM     10  C   UNL     1       6.967   4.731  17.439  0.00  0.00    +0.000 C 
ATOM     11  C   UNL     1       7.363   5.765  16.378  0.00  0.00    +0.000 C 
ATOM     12  O   UNL     1       6.865   5.415  15.079  0.00  0.00    +0.000 OA
ATOM     13  C   UNL     1       5.436   5.305  15.109  0.00  0.00    +0.000 C 
ATOM     14  C   UNL     1       4.998   4.197  16.076  0.00  0.00    +0.000 C 
ENDBRANCH   1   8
BRANCH   6  15
ATOM     15  N   UNL     1       2.784   5.774  18.888  0.00  0.00    +0.000 N 
ATOM     16  H   UNL     1       2.574   6.190  17.980  0.00  0.00    +0.000 HD
BRANCH  15  17
ATOM     17  C   UNL     1       2.206   6.516  20.000  0.00  0.00    +0.000 C 
BRANCH  17  18
ATOM     18  C   UNL     1       1.837   7.939  19.613  0.00  0.00    +0.000 A 
ATOM     19  C   UNL     1       2.081   8.441  18.324  0.00  0.00    +0.000 A 
ATOM     20  C   UNL     1       1.672   9.723  17.961  0.00  0.00    +0.000 A 
ATOM     21  C   UNL     1       0.996  10.512  18.880  0.00  0.00    +0.000 A 
ATOM     22  F   UNL     1       0.581  11.734  18.525  0.00  0.00    +0.000 F 
ATOM     23  C   UNL     1       0.736  10.045  20.164  0.00  0.00    +0.000 A 
ATOM     24  C   UNL     1       1.155   8.762  20.532  0.00  0.00    +0.000 A 
ENDBRANCH  17  18
ENDBRANCH  15  17
ENDBRANCH   6  15
TORSDOF 4
ENDMDL
