MODEL 1
REMARK VINA RESULT:      -6.9      0.000      0.000
REMARK  Name = 
REMARK  4 active torsions:
REMARK  status: ('A' for Active; 'I' for Inactive)
REMARK    1  A    between atoms: C_1  and  C_2
REMARK    2  A    between atoms: C_2  and  N_3
REMARK    3  A    between atoms: C_2  and  C_15
REMARK    4  A    between atoms: C_4  and  C_6
REMARK                            x       y       z     vdW  Elec       q    Type
REMARK                         _______ _______ _______ _____ _____    ______ ____
ROOT
ATOM      1  N   UNL     1       2.215   6.890  20.466  0.00  0.00    +0.000 N 
ATOM      2  C   UNL     1       1.179   7.685  20.910  0.00  0.00    +0.000 C 
ATOM      3  O   UNL     1       0.051   7.231  21.100  0.00  0.00    +0.000 OA
ATOM      4  H   UNL     1       3.003   7.362  20.036  0.00  0.00    +0.000 HD
ENDROOT
BRANCH   2   5
ATOM      5  C   UNL     1       1.546   9.139  21.243  0.00  0.00    +0.000 C 
ATOM      6  C   UNL     1       1.460   9.376  22.776  0.00  0.00    +0.000 C 
ATOM      7  C   UNL     1      -0.002   9.451  23.268  0.00  0.00    +0.000 C 
ATOM      8  C   UNL     1      -0.763  10.620  22.625  0.00  0.00    +0.000 C 
ATOM      9  C   UNL     1      -0.444  10.749  21.173  0.00  0.00    +0.000 A 
ATOM     10  N   UNL     1      -1.160  11.603  20.362  0.00  0.00    +0.000 NA
ATOM     11  C   UNL     1      -0.626  11.605  19.159  0.00  0.00    +0.000 A 
ATOM     12  S   UNL     1       0.759  10.611  18.941  0.00  0.00    +0.000 S 
ATOM     13  C   UNL     1       0.614  10.098  20.562  0.00  0.00    +0.000 A 
ENDBRANCH   2   5
BRANCH   1  15
ATOM     14  C   UNL     1       2.213   4.565  21.312  0.00  0.00    +0.000 C 
ATOM     15  C   UNL     1       1.982   5.491  20.108  0.00  0.00    +0.000 C 
BRANCH  15  16
ATOM     16  C   UNL     1       2.874   5.100  18.939  0.00  0.00    +0.000 A 
ATOM     17  C   UNL     1       4.003   5.890  18.636  0.00  0.00    +0.000 A 
ATOM     18  C   UNL     1       4.820   5.601  17.539  0.00  0.00    +0.000 A 
ATOM     19  C   UNL     1       4.518   4.520  16.720  0.00  0.00    +0.000 A 
ATOM     20 CL   UNL     1       5.491   4.197  15.340  0.00  0.00    +0.000 Cl
ATOM     21  C   UNL     1       3.426   3.708  17.006  0.00  0.00    +0.000 A 
ATOM     22  C   UNL     1       2.617   3.985  18.114  0.00  0.00    +0.000 A 
ATOM     23 CL   UNL     1       1.315   2.890  18.417  0.00  0.00    +0.000 Cl
ENDBRANCH  15  16
ENDBRANCH   1  15
TORSDOF 3
ENDMDL
MODEL 2
REMARK VINA RESULT:      -6.8      5.012      6.549
REMARK  Name = 
REMARK  4 active torsions:
REMARK  status: ('A' for Active; 'I' for Inactive)
REMARK    1  A    between atoms: C_1  and  C_2
REMARK    2  A    between atoms: C_2  and  N_3
REMARK    3  A    between atoms: C_2  and  C_15
REMARK    4  A    between atoms: C_4  and  C_6
REMARK                            x       y       z     vdW  Elec       q    Type
REMARK                         _______ _______ _______ _____ _____    ______ ____
ROOT
ATOM      1  N   UNL     1       4.228   5.031  18.565  0.00  0.00    +0.000 N 
ATOM      2  C   UNL     1       5.038   4.155  19.257  0.00  0.00    +0.000 C 
ATOM      3  O   UNL     1       6.254   4.326  19.339  0.00  0.00    +0.000 OA
ATOM      4  H   UNL     1       3.322   4.682  18.270  0.00  0.00    +0.000 HD
ENDROOT
BRANCH   2   5
ATOM      5  C   UNL     1       4.317   3.016  19.995  0.00  0.00    +0.000 C 
ATOM      6  C   UNL     1       4.546   1.670  19.256  0.00  0.00    +0.000 C 
ATOM      7  C   UNL     1       3.722   1.579  17.952  0.00  0.00    +0.000 C 
ATOM      8  C   UNL     1       2.212   1.651  18.223  0.00  0.00    +0.000 C 
ATOM      9  C   UNL     1       1.889   2.680  19.255  0.00  0.00    +0.000 A 
ATOM     10  N   UNL     1       0.585   3.047  19.507  0.00  0.00    +0.000 NA
ATOM     11  C   UNL     1       0.562   3.892  20.516  0.00  0.00    +0.000 A 
ATOM     12  S   UNL     1       2.081   4.274  21.222  0.00  0.00    +0.000 S 
ATOM     13  C   UNL     1       2.840   3.273  20.066  0.00  0.00    +0.000 A 
ENDBRANCH   2   5
BRANCH   1  15
ATOM     14  C   UNL     1       3.749   7.229  17.533  0.00  0.00    +0.000 C 
ATOM     15  C   UNL     1       4.803   6.148  17.817  0.00  0.00    +0.000 C 
BRANCH  15  16
ATOM     16  C   UNL     1       5.425   5.639  16.524  0.00  0.00    +0.000 A 
ATOM     17  C   UNL     1       4.661   4.821  15.665  0.00  0.00    +0.000 A 
ATOM     18  C   UNL     1       5.208   4.286  14.495  0.00  0.00    +0.000 A 
ATOM     19  C   UNL     1       6.530   4.554  14.166  0.00  0.00    +0.000 A 
ATOM     20 CL   UNL     1       7.218   3.853  12.755  0.00  0.00    +0.000 Cl
ATOM     21  C   UNL     1       7.302   5.376  14.980  0.00  0.00    +0.000 A 
ATOM     22  C   UNL     1       6.752   5.927  16.143  0.00  0.00    +0.000 A 
ATOM     23 CL   UNL     1       7.772   6.977  17.061  0.00  0.00    +0.000 Cl
ENDBRANCH  15  16
ENDBRANCH   1  15
TORSDOF 3
ENDMDL
MODEL 3
REMARK VINA RESULT:      -6.7      3.714      7.664
REMARK  Name = 
REMARK  4 active torsions:
REMARK  status: ('A' for Active; 'I' for Inactive)
REMARK    1  A    between atoms: C_1  and  C_2
REMARK    2  A    between atoms: C_2  and  N_3
REMARK    3  A    between atoms: C_2  and  C_15
REMARK    4  A    between atoms: C_4  and  C_6
REMARK                            x       y       z     vdW  Elec       q    Type
REMARK                         _______ _______ _______ _____ _____    ______ ____
ROOT
ATOM      1  N   UNL     1       2.737   7.714  18.829  0.00  0.00    +0.000 N 
ATOM      2  C   UNL     1       2.648   6.376  18.504  0.00  0.00    +0.000 C 
ATOM      3  O   UNL     1       1.735   5.940  17.803  0.00  0.00    +0.000 OA
ATOM      4  H   UNL     1       3.300   7.951  19.638  0.00  0.00    +0.000 HD
ENDROOT
BRANCH   2   5
ATOM      5  C   UNL     1       3.807   5.490  18.986  0.00  0.00    +0.000 C 
ATOM      6  C   UNL     1       5.098   5.814  18.187  0.00  0.00    +0.000 C 
ATOM      7  C   UNL     1       5.042   5.255  16.748  0.00  0.00    +0.000 C 
ATOM      8  C   UNL     1       4.919   3.724  16.733  0.00  0.00    +0.000 C 
ATOM      9  C   UNL     1       3.963   3.241  17.772  0.00  0.00    +0.000 A 
ATOM     10  N   UNL     1       3.555   1.925  17.804  0.00  0.00    +0.000 NA
ATOM     11  C   UNL     1       2.796   1.734  18.862  0.00  0.00    +0.000 A 
ATOM     12  S   UNL     1       2.546   3.100  19.874  0.00  0.00    +0.000 S 
ATOM     13  C   UNL     1       3.485   4.036  18.799  0.00  0.00    +0.000 A 
ENDBRANCH   2   5
BRANCH   1  15
ATOM     14  C   UNL     1       2.257   9.795  17.581  0.00  0.00    +0.000 C 
ATOM     15  C   UNL     1       1.687   8.650  18.432  0.00  0.00    +0.000 C 
BRANCH  15  16
ATOM     16  C   UNL     1       0.978   9.188  19.667  0.00  0.00    +0.000 A 
ATOM     17  C   UNL     1       1.454   8.833  20.947  0.00  0.00    +0.000 A 
ATOM     18  C   UNL     1       0.803   9.258  22.108  0.00  0.00    +0.000 A 
ATOM     19  C   UNL     1      -0.340  10.040  22.011  0.00  0.00    +0.000 A 
ATOM     20 CL   UNL     1      -1.171  10.518  23.438  0.00  0.00    +0.000 Cl
ATOM     21  C   UNL     1      -0.821  10.427  20.764  0.00  0.00    +0.000 A 
ATOM     22  C   UNL     1      -0.160  10.017  19.600  0.00  0.00    +0.000 A 
ATOM     23 CL   UNL     1      -0.803  10.590  18.102  0.00  0.00    +0.000 Cl
ENDBRANCH  15  16
ENDBRANCH   1  15
TORSDOF 3
ENDMDL
MODEL 4
REMARK VINA RESULT:      -6.7      4.375      7.143
REMARK  Name = 
REMARK  4 active torsions:
REMARK  status: ('A' for Active; 'I' for Inactive)
REMARK    1  A    between atoms: C_1  and  C_2
REMARK    2  A    between atoms: C_2  and  N_3
REMARK    3  A    between atoms: C_2  and  C_15
REMARK    4  A    between atoms: C_4  and  C_6
REMARK                            x       y       z     vdW  Elec       q    Type
REMARK                         _______ _______ _______ _____ _____    ______ ____
ROOT
ATOM      1  N   UNL     1       4.380   4.104  17.881  0.00  0.00    +0.000 N 
ATOM      2  C   UNL     1       5.507   3.981  18.669  0.00  0.00    +0.000 C 
ATOM      3  O   UNL     1       5.435   3.642  19.850  0.00  0.00    +0.000 OA
ATOM      4  H   UNL     1       4.465   4.673  17.046  0.00  0.00    +0.000 HD
ENDROOT
BRANCH   2   5
ATOM      5  C   UNL     1       6.850   4.197  17.956  0.00  0.00    +0.000 C 
ATOM      6  C   UNL     1       7.670   5.300  18.680  0.00  0.00    +0.000 C 
ATOM      7  C   UNL     1       7.103   6.711  18.410  0.00  0.00    +0.000 C 
ATOM      8  C   UNL     1       7.151   7.072  16.919  0.00  0.00    +0.000 C 
ATOM      9  C   UNL     1       6.749   5.917  16.062  0.00  0.00    +0.000 A 
ATOM     10  N   UNL     1       6.533   6.078  14.710  0.00  0.00    +0.000 NA
ATOM     11  C   UNL     1       6.287   4.903  14.171  0.00  0.00    +0.000 A 
ATOM     12  S   UNL     1       6.318   3.556  15.237  0.00  0.00    +0.000 S 
ATOM     13  C   UNL     1       6.640   4.621  16.531  0.00  0.00    +0.000 A 
ENDBRANCH   2   5
BRANCH   1  15
ATOM     14  C   UNL     1       2.065   3.368  17.413  0.00  0.00    +0.000 C 
ATOM     15  C   UNL     1       3.046   3.930  18.453  0.00  0.00    +0.000 C 
BRANCH  15  16
ATOM     16  C   UNL     1       2.547   5.253  19.015  0.00  0.00    +0.000 A 
ATOM     17  C   UNL     1       2.737   6.436  18.270  0.00  0.00    +0.000 A 
ATOM     18  C   UNL     1       2.345   7.681  18.770  0.00  0.00    +0.000 A 
ATOM     19  C   UNL     1       1.762   7.766  20.028  0.00  0.00    +0.000 A 
ATOM     20 CL   UNL     1       1.328   9.303  20.665  0.00  0.00    +0.000 Cl
ATOM     21  C   UNL     1       1.539   6.616  20.777  0.00  0.00    +0.000 A 
ATOM     22  C   UNL     1       1.915   5.366  20.271  0.00  0.00    +0.000 A 
ATOM     23 CL   UNL     1       1.551   3.991  21.252  0.00  0.00    +0.000 Cl
ENDBRANCH  15  16
ENDBRANCH   1  15
TORSDOF 3
ENDMDL
MODEL 5
REMARK VINA RESULT:      -6.6      3.640      7.478
REMARK  Name = 
REMARK  4 active torsions:
REMARK  status: ('A' for Active; 'I' for Inactive)
REMARK    1  A    between atoms: C_1  and  C_2
REMARK    2  A    between atoms: C_2  and  N_3
REMARK    3  A    between atoms: C_2  and  C_15
REMARK    4  A    between atoms: C_4  and  C_6
REMARK                            x       y       z     vdW  Elec       q    Type
REMARK                         _______ _______ _______ _____ _____    ______ ____
ROOT
ATOM      1  N   UNL     1       2.503   7.121  19.392  0.00  0.00    +0.000 N 
ATOM      2  C   UNL     1       3.248   6.279  18.591  0.00  0.00    +0.000 C 
ATOM      3  O   UNL     1       3.374   6.479  17.383  0.00  0.00    +0.000 OA
ATOM      4  H   UNL     1       2.181   6.745  20.277  0.00  0.00    +0.000 HD
ENDROOT
BRANCH   2   5
ATOM      5  C   UNL     1       3.984   5.142  19.317  0.00  0.00    +0.000 C 
ATOM      6  C   UNL     1       5.019   4.481  18.366  0.00  0.00    +0.000 C 
ATOM      7  C   UNL     1       4.340   3.594  17.300  0.00  0.00    +0.000 C 
ATOM      8  C   UNL     1       3.560   2.433  17.933  0.00  0.00    +0.000 C 
ATOM      9  C   UNL     1       2.807   2.875  19.144  0.00  0.00    +0.000 A 
ATOM     10  N   UNL     1       1.889   2.045  19.751  0.00  0.00    +0.000 NA
ATOM     11  C   UNL     1       1.438   2.626  20.843  0.00  0.00    +0.000 A 
ATOM     12  S   UNL     1       2.094   4.172  21.207  0.00  0.00    +0.000 S 
ATOM     13  C   UNL     1       3.021   4.087  19.776  0.00  0.00    +0.000 A 
ENDBRANCH   2   5
BRANCH   1  15
ATOM     14  C   UNL     1       2.674   9.173  18.021  0.00  0.00    +0.000 C 
ATOM     15  C   UNL     1       1.751   8.232  18.810  0.00  0.00    +0.000 C 
BRANCH  15  16
ATOM     16  C   UNL     1       1.011   8.985  19.906  0.00  0.00    +0.000 A 
ATOM     17  C   UNL     1       1.352   8.755  21.255  0.00  0.00    +0.000 A 
ATOM     18  C   UNL     1       0.663   9.383  22.297  0.00  0.00    +0.000 A 
ATOM     19  C   UNL     1      -0.385  10.247  22.008  0.00  0.00    +0.000 A 
ATOM     20 CL   UNL     1      -1.268  10.977  23.290  0.00  0.00    +0.000 Cl
ATOM     21  C   UNL     1      -0.730  10.513  20.687  0.00  0.00    +0.000 A 
ATOM     22  C   UNL     1      -0.030   9.900  19.642  0.00  0.00    +0.000 A 
ATOM     23 CL   UNL     1      -0.498  10.333  18.037  0.00  0.00    +0.000 Cl
ENDBRANCH  15  16
ENDBRANCH   1  15
TORSDOF 3
ENDMDL
MODEL 6
REMARK VINA RESULT:      -6.6      4.223      7.220
REMARK  Name = 
REMARK  4 active torsions:
REMARK  status: ('A' for Active; 'I' for Inactive)
REMARK    1  A    between atoms: C_1  and  C_2
REMARK    2  A    between atoms: C_2  and  N_3
REMARK    3  A    between atoms: C_2  and  C_15
REMARK    4  A    between atoms: C_4  and  C_6
REMARK                            x       y       z     vdW  Elec       q    Type
REMARK                         _______ _______ _______ _____ _____    ______ ____
ROOT
ATOM      1  N   UNL     1       4.356   5.094  18.236  0.00  0.00    +0.000 N 
ATOM      2  C   UNL     1       5.352   4.369  18.858  0.00  0.00    +0.000 C 
ATOM      3  O   UNL     1       5.142   3.739  19.895  0.00  0.00    +0.000 OA
ATOM      4  H   UNL     1       4.652   5.822  17.595  0.00  0.00    +0.000 HD
ENDROOT
BRANCH   2   5
ATOM      5  C   UNL     1       6.701   4.318  18.125  0.00  0.00    +0.000 C 
ATOM      6  C   UNL     1       7.673   5.373  18.718  0.00  0.00    +0.000 C 
ATOM      7  C   UNL     1       7.298   6.809  18.289  0.00  0.00    +0.000 C 
ATOM      8  C   UNL     1       7.372   6.989  16.766  0.00  0.00    +0.000 C 
ATOM      9  C   UNL     1       6.804   5.810  16.047  0.00  0.00    +0.000 A 
ATOM     10  N   UNL     1       6.592   5.844  14.686  0.00  0.00    +0.000 NA
ATOM     11  C   UNL     1       6.180   4.660  14.284  0.00  0.00    +0.000 A 
ATOM     12  S   UNL     1       6.045   3.451  15.497  0.00  0.00    +0.000 S 
ATOM     13  C   UNL     1       6.528   4.602  16.662  0.00  0.00    +0.000 A 
ENDBRANCH   2   5
BRANCH   1  15
ATOM     14  C   UNL     1       2.015   4.297  18.161  0.00  0.00    +0.000 C 
ATOM     15  C   UNL     1       3.033   5.221  18.846  0.00  0.00    +0.000 C 
BRANCH  15  16
ATOM     16  C   UNL     1       2.576   6.672  18.793  0.00  0.00    +0.000 A 
ATOM     17  C   UNL     1       2.922   7.466  17.680  0.00  0.00    +0.000 A 
ATOM     18  C   UNL     1       2.571   8.818  17.614  0.00  0.00    +0.000 A 
ATOM     19  C   UNL     1       1.874   9.401  18.663  0.00  0.00    +0.000 A 
ATOM     20 CL   UNL     1       1.490  11.076  18.606  0.00  0.00    +0.000 Cl
ATOM     21  C   UNL     1       1.498   8.639  19.764  0.00  0.00    +0.000 A 
ATOM     22  C   UNL     1       1.832   7.282  19.825  0.00  0.00    +0.000 A 
ATOM     23 CL   UNL     1       1.276   6.408  21.208  0.00  0.00    +0.000 Cl
ENDBRANCH  15  16
ENDBRANCH   1  15
TORSDOF 3
ENDMDL
MODEL 7
REMARK VINA RESULT:      -6.6      1.940      2.046
REMARK  Name = 
REMARK  4 active torsions:
REMARK  status: ('A' for Active; 'I' for Inactive)
REMARK    1  A    between atoms: C_1  and  C_2
REMARK    2  A    between atoms: C_2  and  N_3
REMARK    3  A    between atoms: C_2  and  C_15
REMARK    4  A    between atoms: C_4  and  C_6
REMARK                            x       y       z     vdW  Elec       q    Type
REMARK                         _______ _______ _______ _____ _____    ______ ____
ROOT
ATOM      1  N   UNL     1       2.045   7.556  20.812  0.00  0.00    +0.000 N 
ATOM      2  C   UNL     1       1.236   8.664  20.663  0.00  0.00    +0.000 C 
ATOM      3  O   UNL     1       0.335   8.699  19.825  0.00  0.00    +0.000 OA
ATOM      4  H   UNL     1       2.936   7.699  21.273  0.00  0.00    +0.000 HD
ENDROOT
BRANCH   2   5
ATOM      5  C   UNL     1       1.468   9.804  21.667  0.00  0.00    +0.000 C 
ATOM      6  C   UNL     1       0.959   9.389  23.074  0.00  0.00    +0.000 C 
ATOM      7  C   UNL     1      -0.583   9.399  23.157  0.00  0.00    +0.000 C 
ATOM      8  C   UNL     1      -1.162  10.799  22.903  0.00  0.00    +0.000 C 
ATOM      9  C   UNL     1      -0.458  11.487  21.781  0.00  0.00    +0.000 A 
ATOM     10  N   UNL     1      -0.940  12.668  21.259  0.00  0.00    +0.000 NA
ATOM     11  C   UNL     1      -0.096  13.116  20.355  0.00  0.00    +0.000 A 
ATOM     12  S   UNL     1       1.315  12.170  20.097  0.00  0.00    +0.000 S 
ATOM     13  C   UNL     1       0.740  11.046  21.246  0.00  0.00    +0.000 A 
ENDBRANCH   2   5
BRANCH   1  15
ATOM     14  C   UNL     1       1.579   5.130  20.678  0.00  0.00    +0.000 C 
ATOM     15  C   UNL     1       1.921   6.414  19.908  0.00  0.00    +0.000 C 
BRANCH  15  16
ATOM     16  C   UNL     1       3.205   6.246  19.108  0.00  0.00    +0.000 A 
ATOM     17  C   UNL     1       4.135   5.257  19.494  0.00  0.00    +0.000 A 
ATOM     18  C   UNL     1       5.352   5.103  18.824  0.00  0.00    +0.000 A 
ATOM     19  C   UNL     1       5.664   5.939  17.760  0.00  0.00    +0.000 A 
ATOM     20 CL   UNL     1       7.183   5.784  16.969  0.00  0.00    +0.000 Cl
ATOM     21  C   UNL     1       4.758   6.907  17.340  0.00  0.00    +0.000 A 
ATOM     22  C   UNL     1       3.531   7.052  17.998  0.00  0.00    +0.000 A 
ATOM     23 CL   UNL     1       2.452   8.246  17.371  0.00  0.00    +0.000 Cl
ENDBRANCH  15  16
ENDBRANCH   1  15
TORSDOF 3
ENDMDL
MODEL 8
REMARK VINA RESULT:      -6.6      3.823      7.141
REMARK  Name = 
REMARK  4 active torsions:
REMARK  status: ('A' for Active; 'I' for Inactive)
REMARK    1  A    between atoms: C_1  and  C_2
REMARK    2  A    between atoms: C_2  and  N_3
REMARK    3  A    between atoms: C_2  and  C_15
REMARK    4  A    between atoms: C_4  and  C_6
REMARK                            x       y       z     vdW  Elec       q    Type
REMARK                         _______ _______ _______ _____ _____    ______ ____
ROOT
ATOM      1  N   UNL     1       2.401   5.182  18.721  0.00  0.00    +0.000 N 
ATOM      2  C   UNL     1       1.527   4.312  18.102  0.00  0.00    +0.000 C 
ATOM      3  O   UNL     1       0.919   4.626  17.079  0.00  0.00    +0.000 OA
ATOM      4  H   UNL     1       2.618   4.998  19.695  0.00  0.00    +0.000 HD
ENDROOT
BRANCH   2   5
ATOM      5  C   UNL     1       1.439   2.904  18.711  0.00  0.00    +0.000 C 
ATOM      6  C   UNL     1       0.480   2.908  19.932  0.00  0.00    +0.000 C 
ATOM      7  C   UNL     1       1.116   3.589  21.164  0.00  0.00    +0.000 C 
ATOM      8  C   UNL     1       2.381   2.856  21.634  0.00  0.00    +0.000 C 
ATOM      9  C   UNL     1       3.228   2.431  20.480  0.00  0.00    +0.000 A 
ATOM     10  N   UNL     1       4.498   1.933  20.678  0.00  0.00    +0.000 NA
ATOM     11  C   UNL     1       4.993   1.544  19.522  0.00  0.00    +0.000 A 
ATOM     12  S   UNL     1       3.970   1.734  18.155  0.00  0.00    +0.000 S 
ATOM     13  C   UNL     1       2.788   2.432  19.169  0.00  0.00    +0.000 A 
ENDBRANCH   2   5
BRANCH   1  15
ATOM     14  C   UNL     1       4.035   6.868  17.939  0.00  0.00    +0.000 C 
ATOM     15  C   UNL     1       2.561   6.552  18.235  0.00  0.00    +0.000 C 
BRANCH  15  16
ATOM     16  C   UNL     1       1.985   7.531  19.248  0.00  0.00    +0.000 A 
ATOM     17  C   UNL     1       1.749   7.099  20.570  0.00  0.00    +0.000 A 
ATOM     18  C   UNL     1       1.171   7.946  21.520  0.00  0.00    +0.000 A 
ATOM     19  C   UNL     1       0.812   9.239  21.162  0.00  0.00    +0.000 A 
ATOM     20 CL   UNL     1       0.052  10.264  22.315  0.00  0.00    +0.000 Cl
ATOM     21  C   UNL     1       1.054   9.703  19.874  0.00  0.00    +0.000 A 
ATOM     22  C   UNL     1       1.649   8.862  18.926  0.00  0.00    +0.000 A 
ATOM     23 CL   UNL     1       1.956   9.544  17.369  0.00  0.00    +0.000 Cl
ENDBRANCH  15  16
ENDBRANCH   1  15
TORSDOF 3
ENDMDL
MODEL 9
REMARK VINA RESULT:      -6.4      3.464      7.041
REMARK  Name = 
REMARK  4 active torsions:
REMARK  status: ('A' for Active; 'I' for Inactive)
REMARK    1  A    between atoms: C_1  and  C_2
REMARK    2  A    between atoms: C_2  and  N_3
REMARK    3  A    between atoms: C_2  and  C_15
REMARK    4  A    between atoms: C_4  and  C_6
REMARK                            x       y       z     vdW  Elec       q    Type
REMARK                         _______ _______ _______ _____ _____    ______ ____
ROOT
ATOM      1  N   UNL     1       1.223   6.867  20.466  0.00  0.00    +0.000 N 
ATOM      2  C   UNL     1       2.071   5.931  19.910  0.00  0.00    +0.000 C 
ATOM      3  O   UNL     1       3.255   6.183  19.685  0.00  0.00    +0.000 OA
ATOM      4  H   UNL     1       0.229   6.718  20.335  0.00  0.00    +0.000 HD
ENDROOT
BRANCH   2   5
ATOM      5  C   UNL     1       1.472   4.534  19.685  0.00  0.00    +0.000 C 
ATOM      6  C   UNL     1       1.050   3.907  21.041  0.00  0.00    +0.000 C 
ATOM      7  C   UNL     1       2.269   3.440  21.866  0.00  0.00    +0.000 C 
ATOM      8  C   UNL     1       3.070   2.350  21.138  0.00  0.00    +0.000 C 
ATOM      9  C   UNL     1       3.210   2.653  19.683  0.00  0.00    +0.000 A 
ATOM     10  N   UNL     1       4.053   1.914  18.882  0.00  0.00    +0.000 NA
ATOM     11  C   UNL     1       3.924   2.314  17.635  0.00  0.00    +0.000 A 
ATOM     12  S   UNL     1       2.786   3.570  17.354  0.00  0.00    +0.000 S 
ATOM     13  C   UNL     1       2.469   3.622  19.030  0.00  0.00    +0.000 A 
ENDBRANCH   2   5
BRANCH   1  15
ATOM     14  C   UNL     1       1.643   8.565  22.216  0.00  0.00    +0.000 C 
ATOM     15  C   UNL     1       1.681   8.233  20.717  0.00  0.00    +0.000 C 
BRANCH  15  16
ATOM     16  C   UNL     1       0.837   9.216  19.918  0.00  0.00    +0.000 A 
ATOM     17  C   UNL     1      -0.195   9.927  20.566  0.00  0.00    +0.000 A 
ATOM     18  C   UNL     1      -1.031  10.799  19.862  0.00  0.00    +0.000 A 
ATOM     19  C   UNL     1      -0.854  10.970  18.495  0.00  0.00    +0.000 A 
ATOM     20 CL   UNL     1      -1.915  12.001  17.620  0.00  0.00    +0.000 Cl
ATOM     21  C   UNL     1       0.170  10.302  17.832  0.00  0.00    +0.000 A 
ATOM     22  C   UNL     1       1.019   9.442  18.538  0.00  0.00    +0.000 A 
ATOM     23 CL   UNL     1       2.292   8.698  17.637  0.00  0.00    +0.000 Cl
ENDBRANCH  15  16
ENDBRANCH   1  15
TORSDOF 3
ENDMDL
