MODEL 1
REMARK VINA RESULT:      -8.8      0.000      0.000
REMARK  Name = 
REMARK  5 active torsions:
REMARK  status: ('A' for Active; 'I' for Inactive)
REMARK    1  A    between atoms: C_1  and  N_2
REMARK    2  A    between atoms: N_2  and  C_3
REMARK    3  A    between atoms: C_13  and  N_14
REMARK    4  A    between atoms: C_17  and  N_18
REMARK    5  A    between atoms: N_18  and  C_19
REMARK                            x       y       z     vdW  Elec       q    Type
REMARK                         _______ _______ _______ _____ _____    ______ ____
ROOT
ATOM      1  C   UNL     1       8.204   5.341  13.048  0.00  0.00    +0.000 C 
ATOM      2  N   UNL     1       6.882   4.809  13.378  0.00  0.00    +0.000 N 
ATOM      3  C   UNL     1       6.580   4.977  14.749  0.00  0.00    +0.000 A 
ATOM      4  N   UNL     1       7.087   6.039  15.403  0.00  0.00    +0.000 NA
ATOM      5  C   UNL     1       6.920   6.121  16.730  0.00  0.00    +0.000 A 
ATOM      6  N   UNL     1       7.531   7.227  17.320  0.00  0.00    +0.000 N 
ATOM      7  C   UNL     1       6.273   5.127  17.428  0.00  0.00    +0.000 A 
ATOM      8  C   UNL     1       5.706   4.089  16.720  0.00  0.00    +0.000 A 
ATOM      9  N   UNL     1       5.857   4.037  15.380  0.00  0.00    +0.000 NA
ATOM     10  H   UNL     1       7.872   7.842  16.583  0.00  0.00    +0.000 HD
ATOM     11  H   UNL     1       6.929   7.720  17.978  0.00  0.00    +0.000 HD
ENDROOT
BRANCH   2  12
ATOM     12  C   UNL     1       6.355   3.794  12.555  0.00  0.00    +0.000 A 
ATOM     13  C   UNL     1       4.991   3.697  12.237  0.00  0.00    +0.000 A 
ATOM     14  C   UNL     1       4.495   2.642  11.459  0.00  0.00    +0.000 A 
ATOM     15  C   UNL     1       5.358   1.660  10.985  0.00  0.00    +0.000 A 
ATOM     16  C   UNL     1       6.718   1.742  11.270  0.00  0.00    +0.000 A 
ATOM     17  C   UNL     1       7.209   2.803  12.038  0.00  0.00    +0.000 A 
ENDBRANCH   2  12
BRANCH   7  18
ATOM     18  N   UNL     1       6.225   5.166  18.855  0.00  0.00    +0.000 N 
ATOM     19  O   UNL     1       7.287   4.941  19.460  0.00  0.00    +0.000 OA
ATOM     20  O   UNL     1       5.149   5.439  19.396  0.00  0.00    +0.000 OA
ENDBRANCH   7  18
BRANCH   8  21
ATOM     21  N   UNL     1       5.004   3.047  17.347  0.00  0.00    +0.000 N 
ATOM     22  H   UNL     1       5.560   2.277  17.692  0.00  0.00    +0.000 HD
BRANCH  21  23
ATOM     23  C   UNL     1       3.656   3.014  17.748  0.00  0.00    +0.000 A 
ATOM     24  C   UNL     1       3.149   2.006  18.580  0.00  0.00    +0.000 A 
ATOM     25  C   UNL     1       1.833   2.053  19.043  0.00  0.00    +0.000 A 
ATOM     26  C   UNL     1       0.992   3.091  18.653  0.00  0.00    +0.000 A 
ATOM     27  C   UNL     1       1.460   4.064  17.773  0.00  0.00    +0.000 A 
ATOM     28  C   UNL     1       2.782   4.024  17.323  0.00  0.00    +0.000 A 
ENDBRANCH  21  23
ENDBRANCH   8  21
TORSDOF 4
ENDMDL
MODEL 2
REMARK VINA RESULT:      -8.8      0.160      1.501
REMARK  Name = 
REMARK  5 active torsions:
REMARK  status: ('A' for Active; 'I' for Inactive)
REMARK    1  A    between atoms: C_1  and  N_2
REMARK    2  A    between atoms: N_2  and  C_3
REMARK    3  A    between atoms: C_13  and  N_14
REMARK    4  A    between atoms: C_17  and  N_18
REMARK    5  A    between atoms: N_18  and  C_19
REMARK                            x       y       z     vdW  Elec       q    Type
REMARK                         _______ _______ _______ _____ _____    ______ ____
ROOT
ATOM      1  C   UNL     1       8.156   5.258  13.061  0.00  0.00    +0.000 C 
ATOM      2  N   UNL     1       6.827   4.768  13.424  0.00  0.00    +0.000 N 
ATOM      3  C   UNL     1       6.558   4.957  14.798  0.00  0.00    +0.000 A 
ATOM      4  N   UNL     1       7.109   6.010  15.432  0.00  0.00    +0.000 NA
ATOM      5  C   UNL     1       6.972   6.108  16.762  0.00  0.00    +0.000 A 
ATOM      6  N   UNL     1       7.627   7.202  17.328  0.00  0.00    +0.000 N 
ATOM      7  C   UNL     1       6.312   5.140  17.482  0.00  0.00    +0.000 A 
ATOM      8  C   UNL     1       5.701   4.112  16.796  0.00  0.00    +0.000 A 
ATOM      9  N   UNL     1       5.822   4.043  15.454  0.00  0.00    +0.000 NA
ATOM     10  H   UNL     1       7.970   7.799  16.578  0.00  0.00    +0.000 HD
ATOM     11  H   UNL     1       7.054   7.718  17.994  0.00  0.00    +0.000 HD
ENDROOT
BRANCH   2  12
ATOM     12  C   UNL     1       6.253   3.761  12.621  0.00  0.00    +0.000 A 
ATOM     13  C   UNL     1       6.993   2.693  12.089  0.00  0.00    +0.000 A 
ATOM     14  C   UNL     1       6.399   1.740  11.250  0.00  0.00    +0.000 A 
ATOM     15  C   UNL     1       5.051   1.840  10.926  0.00  0.00    +0.000 A 
ATOM     16  C   UNL     1       4.291   2.878  11.455  0.00  0.00    +0.000 A 
ATOM     17  C   UNL     1       4.885   3.821  12.300  0.00  0.00    +0.000 A 
ENDBRANCH   2  12
BRANCH   7  18
ATOM     18  N   UNL     1       6.295   5.193  18.909  0.00  0.00    +0.000 N 
ATOM     19  O   UNL     1       5.202   5.427  19.452  0.00  0.00    +0.000 OA
ATOM     20  O   UNL     1       7.352   4.983  19.514  0.00  0.00    +0.000 OA
ENDBRANCH   7  18
BRANCH   8  21
ATOM     21  N   UNL     1       4.983   3.096  17.447  0.00  0.00    +0.000 N 
ATOM     22  H   UNL     1       5.525   2.316  17.793  0.00  0.00    +0.000 HD
BRANCH  21  23
ATOM     23  C   UNL     1       3.641   3.103  17.870  0.00  0.00    +0.000 A 
ATOM     24  C   UNL     1       2.750   4.122  17.509  0.00  0.00    +0.000 A 
ATOM     25  C   UNL     1       1.399   4.052  17.858  0.00  0.00    +0.000 A 
ATOM     26  C   UNL     1       0.927   2.977  18.605  0.00  0.00    +0.000 A 
ATOM     27  C   UNL     1       1.812   1.989  19.029  0.00  0.00    +0.000 A 
ATOM     28  C   UNL     1       3.160   2.053  18.665  0.00  0.00    +0.000 A 
ENDBRANCH  21  23
ENDBRANCH   8  21
TORSDOF 4
ENDMDL
MODEL 3
REMARK VINA RESULT:      -8.6      3.485      6.159
REMARK  Name = 
REMARK  5 active torsions:
REMARK  status: ('A' for Active; 'I' for Inactive)
REMARK    1  A    between atoms: C_1  and  N_2
REMARK    2  A    between atoms: N_2  and  C_3
REMARK    3  A    between atoms: C_13  and  N_14
REMARK    4  A    between atoms: C_17  and  N_18
REMARK    5  A    between atoms: N_18  and  C_19
REMARK                            x       y       z     vdW  Elec       q    Type
REMARK                         _______ _______ _______ _____ _____    ______ ____
ROOT
ATOM      1  C   UNL     1       6.304   4.042  16.402  0.00  0.00    +0.000 C 
ATOM      2  N   UNL     1       6.171   4.708  17.697  0.00  0.00    +0.000 N 
ATOM      3  C   UNL     1       5.005   4.294  18.379  0.00  0.00    +0.000 A 
ATOM      4  N   UNL     1       4.548   3.041  18.189  0.00  0.00    +0.000 NA
ATOM      5  C   UNL     1       3.368   2.695  18.721  0.00  0.00    +0.000 A 
ATOM      6  N   UNL     1       2.959   1.397  18.419  0.00  0.00    +0.000 N 
ATOM      7  C   UNL     1       2.610   3.605  19.421  0.00  0.00    +0.000 A 
ATOM      8  C   UNL     1       3.136   4.858  19.655  0.00  0.00    +0.000 A 
ATOM      9  N   UNL     1       4.340   5.180  19.139  0.00  0.00    +0.000 NA
ATOM     10  H   UNL     1       3.728   0.913  17.959  0.00  0.00    +0.000 HD
ATOM     11  H   UNL     1       2.614   0.881  19.228  0.00  0.00    +0.000 HD
ENDROOT
BRANCH   2  12
ATOM     12  C   UNL     1       6.802   5.957  17.864  0.00  0.00    +0.000 A 
ATOM     13  C   UNL     1       6.503   7.079  17.074  0.00  0.00    +0.000 A 
ATOM     14  C   UNL     1       7.189   8.289  17.234  0.00  0.00    +0.000 A 
ATOM     15  C   UNL     1       8.194   8.400  18.190  0.00  0.00    +0.000 A 
ATOM     16  C   UNL     1       8.499   7.310  18.998  0.00  0.00    +0.000 A 
ATOM     17  C   UNL     1       7.802   6.107  18.842  0.00  0.00    +0.000 A 
ENDBRANCH   2  12
BRANCH   7  18
ATOM     18  N   UNL     1       1.296   3.258  19.861  0.00  0.00    +0.000 N 
ATOM     19  O   UNL     1       1.052   3.396  21.072  0.00  0.00    +0.000 OA
ATOM     20  O   UNL     1       0.482   2.866  19.018  0.00  0.00    +0.000 OA
ENDBRANCH   7  18
BRANCH   8  21
ATOM     21  N   UNL     1       2.444   5.839  20.383  0.00  0.00    +0.000 N 
ATOM     22  H   UNL     1       2.330   5.665  21.372  0.00  0.00    +0.000 HD
BRANCH  21  23
ATOM     23  C   UNL     1       2.063   7.130  19.974  0.00  0.00    +0.000 A 
ATOM     24  C   UNL     1       2.300   7.602  18.675  0.00  0.00    +0.000 A 
ATOM     25  C   UNL     1       1.822   8.849  18.267  0.00  0.00    +0.000 A 
ATOM     26  C   UNL     1       1.131   9.659  19.162  0.00  0.00    +0.000 A 
ATOM     27  C   UNL     1       0.946   9.235  20.475  0.00  0.00    +0.000 A 
ATOM     28  C   UNL     1       1.411   7.980  20.878  0.00  0.00    +0.000 A 
ENDBRANCH  21  23
ENDBRANCH   8  21
TORSDOF 4
ENDMDL
MODEL 4
REMARK VINA RESULT:      -8.6      3.412      6.135
REMARK  Name = 
REMARK  5 active torsions:
REMARK  status: ('A' for Active; 'I' for Inactive)
REMARK    1  A    between atoms: C_1  and  N_2
REMARK    2  A    between atoms: N_2  and  C_3
REMARK    3  A    between atoms: C_13  and  N_14
REMARK    4  A    between atoms: C_17  and  N_18
REMARK    5  A    between atoms: N_18  and  C_19
REMARK                            x       y       z     vdW  Elec       q    Type
REMARK                         _______ _______ _______ _____ _____    ______ ____
ROOT
ATOM      1  C   UNL     1       6.218   4.007  16.270  0.00  0.00    +0.000 C 
ATOM      2  N   UNL     1       6.162   4.624  17.594  0.00  0.00    +0.000 N 
ATOM      3  C   UNL     1       4.995   4.247  18.297  0.00  0.00    +0.000 A 
ATOM      4  N   UNL     1       4.461   3.031  18.071  0.00  0.00    +0.000 NA
ATOM      5  C   UNL     1       3.279   2.730  18.626  0.00  0.00    +0.000 A 
ATOM      6  N   UNL     1       2.788   1.470  18.286  0.00  0.00    +0.000 N 
ATOM      7  C   UNL     1       2.596   3.651  19.387  0.00  0.00    +0.000 A 
ATOM      8  C   UNL     1       3.200   4.861  19.654  0.00  0.00    +0.000 A 
ATOM      9  N   UNL     1       4.405   5.137  19.113  0.00  0.00    +0.000 NA
ATOM     10  H   UNL     1       3.514   0.964  17.782  0.00  0.00    +0.000 HD
ATOM     11  H   UNL     1       2.439   0.941  19.084  0.00  0.00    +0.000 HD
ENDROOT
BRANCH   2  12
ATOM     12  C   UNL     1       6.868   5.828  17.792  0.00  0.00    +0.000 A 
ATOM     13  C   UNL     1       7.823   5.998  18.808  0.00  0.00    +0.000 A 
ATOM     14  C   UNL     1       8.465   7.226  19.007  0.00  0.00    +0.000 A 
ATOM     15  C   UNL     1       8.163   8.312  18.193  0.00  0.00    +0.000 A 
ATOM     16  C   UNL     1       7.235   8.166  17.167  0.00  0.00    +0.000 A 
ATOM     17  C   UNL     1       6.604   6.934  16.965  0.00  0.00    +0.000 A 
ENDBRANCH   2  12
BRANCH   7  18
ATOM     18  N   UNL     1       1.279   3.359  19.854  0.00  0.00    +0.000 N 
ATOM     19  O   UNL     1       1.060   3.528  21.066  0.00  0.00    +0.000 OA
ATOM     20  O   UNL     1       0.437   2.982  19.032  0.00  0.00    +0.000 OA
ENDBRANCH   7  18
BRANCH   8  21
ATOM     21  N   UNL     1       2.588   5.848  20.443  0.00  0.00    +0.000 N 
ATOM     22  H   UNL     1       2.661   5.729  21.444  0.00  0.00    +0.000 HD
BRANCH  21  23
ATOM     23  C   UNL     1       2.061   7.089  20.043  0.00  0.00    +0.000 A 
ATOM     24  C   UNL     1       1.343   7.914  20.921  0.00  0.00    +0.000 A 
ATOM     25  C   UNL     1       0.919   9.184  20.526  0.00  0.00    +0.000 A 
ATOM     26  C   UNL     1       1.174   9.635  19.235  0.00  0.00    +0.000 A 
ATOM     27  C   UNL     1       1.827   8.803  18.329  0.00  0.00    +0.000 A 
ATOM     28  C   UNL     1       2.265   7.538  18.731  0.00  0.00    +0.000 A 
ENDBRANCH  21  23
ENDBRANCH   8  21
TORSDOF 4
ENDMDL
MODEL 5
REMARK VINA RESULT:      -8.0      3.766      6.164
REMARK  Name = 
REMARK  5 active torsions:
REMARK  status: ('A' for Active; 'I' for Inactive)
REMARK    1  A    between atoms: C_1  and  N_2
REMARK    2  A    between atoms: N_2  and  C_3
REMARK    3  A    between atoms: C_13  and  N_14
REMARK    4  A    between atoms: C_17  and  N_18
REMARK    5  A    between atoms: N_18  and  C_19
REMARK                            x       y       z     vdW  Elec       q    Type
REMARK                         _______ _______ _______ _____ _____    ______ ____
ROOT
ATOM      1  C   UNL     1       7.121   4.373  16.855  0.00  0.00    +0.000 C 
ATOM      2  N   UNL     1       6.806   5.167  18.042  0.00  0.00    +0.000 N 
ATOM      3  C   UNL     1       5.652   4.686  18.701  0.00  0.00    +0.000 A 
ATOM      4  N   UNL     1       5.372   3.370  18.649  0.00  0.00    +0.000 NA
ATOM      5  C   UNL     1       4.207   2.936  19.149  0.00  0.00    +0.000 A 
ATOM      6  N   UNL     1       3.989   1.567  18.996  0.00  0.00    +0.000 N 
ATOM      7  C   UNL     1       3.289   3.814  19.678  0.00  0.00    +0.000 A 
ATOM      8  C   UNL     1       3.635   5.145  19.777  0.00  0.00    +0.000 A 
ATOM      9  N   UNL     1       4.825   5.561  19.297  0.00  0.00    +0.000 NA
ATOM     10  H   UNL     1       4.846   1.139  18.650  0.00  0.00    +0.000 HD
ATOM     11  H   UNL     1       3.651   1.113  19.843  0.00  0.00    +0.000 HD
ENDROOT
BRANCH   2  12
ATOM     12  C   UNL     1       7.261   6.501  18.082  0.00  0.00    +0.000 A 
ATOM     13  C   UNL     1       6.767   7.505  17.233  0.00  0.00    +0.000 A 
ATOM     14  C   UNL     1       7.282   8.807  17.265  0.00  0.00    +0.000 A 
ATOM     15  C   UNL     1       8.304   9.131  18.150  0.00  0.00    +0.000 A 
ATOM     16  C   UNL     1       8.799   8.160  19.016  0.00  0.00    +0.000 A 
ATOM     17  C   UNL     1       8.274   6.864  18.987  0.00  0.00    +0.000 A 
ENDBRANCH   2  12
BRANCH   7  18
ATOM     18  N   UNL     1       2.000   3.350  20.079  0.00  0.00    +0.000 N 
ATOM     19  O   UNL     1       1.260   2.902  19.187  0.00  0.00    +0.000 OA
ATOM     20  O   UNL     1       1.708   3.401  21.278  0.00  0.00    +0.000 OA
ENDBRANCH   7  18
BRANCH   8  21
ATOM     21  N   UNL     1       2.772   6.106  20.328  0.00  0.00    +0.000 N 
ATOM     22  H   UNL     1       2.633   6.062  21.328  0.00  0.00    +0.000 HD
BRANCH  21  23
ATOM     23  C   UNL     1       2.229   7.251  19.717  0.00  0.00    +0.000 A 
ATOM     24  C   UNL     1       1.449   8.177  20.424  0.00  0.00    +0.000 A 
ATOM     25  C   UNL     1       1.008   9.355  19.819  0.00  0.00    +0.000 A 
ATOM     26  C   UNL     1       1.309   9.608  18.484  0.00  0.00    +0.000 A 
ATOM     27  C   UNL     1       2.025   8.668  17.748  0.00  0.00    +0.000 A 
ATOM     28  C   UNL     1       2.480   7.498  18.360  0.00  0.00    +0.000 A 
ENDBRANCH  21  23
ENDBRANCH   8  21
TORSDOF 4
ENDMDL
MODEL 6
REMARK VINA RESULT:      -7.9      3.794      6.255
REMARK  Name = 
REMARK  5 active torsions:
REMARK  status: ('A' for Active; 'I' for Inactive)
REMARK    1  A    between atoms: C_1  and  N_2
REMARK    2  A    between atoms: N_2  and  C_3
REMARK    3  A    between atoms: C_13  and  N_14
REMARK    4  A    between atoms: C_17  and  N_18
REMARK    5  A    between atoms: N_18  and  C_19
REMARK                            x       y       z     vdW  Elec       q    Type
REMARK                         _______ _______ _______ _____ _____    ______ ____
ROOT
ATOM      1  C   UNL     1       6.882   4.128  16.941  0.00  0.00    +0.000 C 
ATOM      2  N   UNL     1       6.630   4.984  18.099  0.00  0.00    +0.000 N 
ATOM      3  C   UNL     1       5.471   4.585  18.802  0.00  0.00    +0.000 A 
ATOM      4  N   UNL     1       5.132   3.281  18.812  0.00  0.00    +0.000 NA
ATOM      5  C   UNL     1       3.960   2.923  19.355  0.00  0.00    +0.000 A 
ATOM      6  N   UNL     1       3.677   1.560  19.265  0.00  0.00    +0.000 N 
ATOM      7  C   UNL     1       3.095   3.863  19.865  0.00  0.00    +0.000 A 
ATOM      8  C   UNL     1       3.502   5.180  19.900  0.00  0.00    +0.000 A 
ATOM      9  N   UNL     1       4.698   5.521  19.378  0.00  0.00    +0.000 NA
ATOM     10  H   UNL     1       4.506   1.078  18.919  0.00  0.00    +0.000 HD
ATOM     11  H   UNL     1       3.338   1.157  20.137  0.00  0.00    +0.000 HD
ENDROOT
BRANCH   2  12
ATOM     12  C   UNL     1       7.145   6.297  18.074  0.00  0.00    +0.000 A 
ATOM     13  C   UNL     1       8.211   6.717  18.885  0.00  0.00    +0.000 A 
ATOM     14  C   UNL     1       8.660   8.044  18.870  0.00  0.00    +0.000 A 
ATOM     15  C   UNL     1       8.048   8.979  18.043  0.00  0.00    +0.000 A 
ATOM     16  C   UNL     1       7.001   8.585  17.216  0.00  0.00    +0.000 A 
ATOM     17  C   UNL     1       6.563   7.256  17.226  0.00  0.00    +0.000 A 
ENDBRANCH   2  12
BRANCH   7  18
ATOM     18  N   UNL     1       1.795   3.475  20.312  0.00  0.00    +0.000 N 
ATOM     19  O   UNL     1       0.828   3.859  19.634  0.00  0.00    +0.000 OA
ATOM     20  O   UNL     1       1.712   2.771  21.324  0.00  0.00    +0.000 OA
ENDBRANCH   7  18
BRANCH   8  21
ATOM     21  N   UNL     1       2.695   6.201  20.427  0.00  0.00    +0.000 N 
ATOM     22  H   UNL     1       2.556   6.190  21.428  0.00  0.00    +0.000 HD
BRANCH  21  23
ATOM     23  C   UNL     1       2.217   7.360  19.789  0.00  0.00    +0.000 A 
ATOM     24  C   UNL     1       2.406   7.589  18.419  0.00  0.00    +0.000 A 
ATOM     25  C   UNL     1       1.834   8.698  17.792  0.00  0.00    +0.000 A 
ATOM     26  C   UNL     1       1.095   9.615  18.532  0.00  0.00    +0.000 A 
ATOM     27  C   UNL     1       0.954   9.438  19.906  0.00  0.00    +0.000 A 
ATOM     28  C   UNL     1       1.513   8.319  20.529  0.00  0.00    +0.000 A 
ENDBRANCH  21  23
ENDBRANCH   8  21
TORSDOF 4
ENDMDL
MODEL 7
REMARK VINA RESULT:      -7.0      4.245      7.720
REMARK  Name = 
REMARK  5 active torsions:
REMARK  status: ('A' for Active; 'I' for Inactive)
REMARK    1  A    between atoms: C_1  and  N_2
REMARK    2  A    between atoms: N_2  and  C_3
REMARK    3  A    between atoms: C_13  and  N_14
REMARK    4  A    between atoms: C_17  and  N_18
REMARK    5  A    between atoms: N_18  and  C_19
REMARK                            x       y       z     vdW  Elec       q    Type
REMARK                         _______ _______ _______ _____ _____    ______ ____
ROOT
ATOM      1  C   UNL     1       0.900   7.342  21.742  0.00  0.00    +0.000 C 
ATOM      2  N   UNL     1       1.275   7.110  20.348  0.00  0.00    +0.000 N 
ATOM      3  C   UNL     1       1.896   5.852  20.177  0.00  0.00    +0.000 A 
ATOM      4  N   UNL     1       1.537   4.833  20.981  0.00  0.00    +0.000 NA
ATOM      5  C   UNL     1       2.225   3.685  20.915  0.00  0.00    +0.000 A 
ATOM      6  N   UNL     1       1.812   2.714  21.827  0.00  0.00    +0.000 N 
ATOM      7  C   UNL     1       3.302   3.548  20.070  0.00  0.00    +0.000 A 
ATOM      8  C   UNL     1       3.600   4.586  19.212  0.00  0.00    +0.000 A 
ATOM      9  N   UNL     1       2.878   5.724  19.270  0.00  0.00    +0.000 NA
ATOM     10  H   UNL     1       0.955   3.033  22.276  0.00  0.00    +0.000 HD
ATOM     11  H   UNL     1       1.703   1.789  21.413  0.00  0.00    +0.000 HD
ENDROOT
BRANCH   2  12
ATOM     12  C   UNL     1       1.494   8.236  19.528  0.00  0.00    +0.000 A 
ATOM     13  C   UNL     1       2.255   8.188  18.349  0.00  0.00    +0.000 A 
ATOM     14  C   UNL     1       2.496   9.339  17.588  0.00  0.00    +0.000 A 
ATOM     15  C   UNL     1       1.980  10.565  17.994  0.00  0.00    +0.000 A 
ATOM     16  C   UNL     1       1.207  10.637  19.149  0.00  0.00    +0.000 A 
ATOM     17  C   UNL     1       0.960   9.483  19.899  0.00  0.00    +0.000 A 
ENDBRANCH   2  12
BRANCH   7  18
ATOM     18  N   UNL     1       4.104   2.368  20.114  0.00  0.00    +0.000 N 
ATOM     19  O   UNL     1       4.065   1.623  19.119  0.00  0.00    +0.000 OA
ATOM     20  O   UNL     1       4.797   2.169  21.117  0.00  0.00    +0.000 OA
ENDBRANCH   7  18
BRANCH   8  21
ATOM     21  N   UNL     1       4.663   4.522  18.298  0.00  0.00    +0.000 N 
ATOM     22  H   UNL     1       4.571   3.850  17.549  0.00  0.00    +0.000 HD
BRANCH  21  23
ATOM     23  C   UNL     1       5.751   5.403  18.154  0.00  0.00    +0.000 A 
ATOM     24  C   UNL     1       5.767   6.418  17.188  0.00  0.00    +0.000 A 
ATOM     25  C   UNL     1       6.814   7.341  17.133  0.00  0.00    +0.000 A 
ATOM     26  C   UNL     1       7.880   7.240  18.021  0.00  0.00    +0.000 A 
ATOM     27  C   UNL     1       7.913   6.197  18.944  0.00  0.00    +0.000 A 
ATOM     28  C   UNL     1       6.857   5.285  19.007  0.00  0.00    +0.000 A 
ENDBRANCH  21  23
ENDBRANCH   8  21
TORSDOF 4
ENDMDL
MODEL 8
REMARK VINA RESULT:      -6.9      4.259      6.329
REMARK  Name = 
REMARK  5 active torsions:
REMARK  status: ('A' for Active; 'I' for Inactive)
REMARK    1  A    between atoms: C_1  and  N_2
REMARK    2  A    between atoms: N_2  and  C_3
REMARK    3  A    between atoms: C_13  and  N_14
REMARK    4  A    between atoms: C_17  and  N_18
REMARK    5  A    between atoms: N_18  and  C_19
REMARK                            x       y       z     vdW  Elec       q    Type
REMARK                         _______ _______ _______ _____ _____    ______ ____
ROOT
ATOM      1  C   UNL     1       7.877   4.382  17.829  0.00  0.00    +0.000 C 
ATOM      2  N   UNL     1       7.071   5.444  18.430  0.00  0.00    +0.000 N 
ATOM      3  C   UNL     1       5.717   5.060  18.562  0.00  0.00    +0.000 A 
ATOM      4  N   UNL     1       5.425   3.761  18.768  0.00  0.00    +0.000 NA
ATOM      5  C   UNL     1       4.141   3.377  18.750  0.00  0.00    +0.000 A 
ATOM      6  N   UNL     1       3.949   2.005  18.916  0.00  0.00    +0.000 N 
ATOM      7  C   UNL     1       3.133   4.276  18.492  0.00  0.00    +0.000 A 
ATOM      8  C   UNL     1       3.460   5.609  18.353  0.00  0.00    +0.000 A 
ATOM      9  N   UNL     1       4.755   5.984  18.405  0.00  0.00    +0.000 NA
ATOM     10  H   UNL     1       4.840   1.580  19.165  0.00  0.00    +0.000 HD
ATOM     11  H   UNL     1       3.217   1.776  19.587  0.00  0.00    +0.000 HD
ENDROOT
BRANCH   2  12
ATOM     12  C   UNL     1       7.522   6.772  18.294  0.00  0.00    +0.000 A 
ATOM     13  C   UNL     1       8.494   7.341  19.133  0.00  0.00    +0.000 A 
ATOM     14  C   UNL     1       8.878   8.681  19.001  0.00  0.00    +0.000 A 
ATOM     15  C   UNL     1       8.294   9.482  18.025  0.00  0.00    +0.000 A 
ATOM     16  C   UNL     1       7.342   8.939  17.169  0.00  0.00    +0.000 A 
ATOM     17  C   UNL     1       6.969   7.597  17.297  0.00  0.00    +0.000 A 
ENDBRANCH   2  12
BRANCH   7  18
ATOM     18  N   UNL     1       1.787   3.823  18.341  0.00  0.00    +0.000 N 
ATOM     19  O   UNL     1       1.293   3.894  17.203  0.00  0.00    +0.000 OA
ATOM     20  O   UNL     1       1.207   3.373  19.335  0.00  0.00    +0.000 OA
ENDBRANCH   7  18
BRANCH   8  21
ATOM     21  N   UNL     1       2.493   6.599  18.116  0.00  0.00    +0.000 N 
ATOM     22  H   UNL     1       1.965   6.512  17.259  0.00  0.00    +0.000 HD
BRANCH  21  23
ATOM     23  C   UNL     1       2.011   7.583  18.998  0.00  0.00    +0.000 A 
ATOM     24  C   UNL     1       1.665   8.870  18.563  0.00  0.00    +0.000 A 
ATOM     25  C   UNL     1       1.095   9.795  19.440  0.00  0.00    +0.000 A 
ATOM     26  C   UNL     1       0.895   9.459  20.775  0.00  0.00    +0.000 A 
ATOM     27  C   UNL     1       1.296   8.208  21.240  0.00  0.00    +0.000 A 
ATOM     28  C   UNL     1       1.851   7.279  20.357  0.00  0.00    +0.000 A 
ENDBRANCH  21  23
ENDBRANCH   8  21
TORSDOF 4
ENDMDL
MODEL 9
REMARK VINA RESULT:      -6.8      4.385      8.029
REMARK  Name = 
REMARK  5 active torsions:
REMARK  status: ('A' for Active; 'I' for Inactive)
REMARK    1  A    between atoms: C_1  and  N_2
REMARK    2  A    between atoms: N_2  and  C_3
REMARK    3  A    between atoms: C_13  and  N_14
REMARK    4  A    between atoms: C_17  and  N_18
REMARK    5  A    between atoms: N_18  and  C_19
REMARK                            x       y       z     vdW  Elec       q    Type
REMARK                         _______ _______ _______ _____ _____    ______ ____
ROOT
ATOM      1  C   UNL     1       0.789   7.867  21.870  0.00  0.00    +0.000 C 
ATOM      2  N   UNL     1       1.084   7.784  20.440  0.00  0.00    +0.000 N 
ATOM      3  C   UNL     1       1.669   6.544  20.099  0.00  0.00    +0.000 A 
ATOM      4  N   UNL     1       1.333   5.448  20.805  0.00  0.00    +0.000 NA
ATOM      5  C   UNL     1       1.992   4.304  20.577  0.00  0.00    +0.000 A 
ATOM      6  N   UNL     1       1.608   3.244  21.398  0.00  0.00    +0.000 N 
ATOM      7  C   UNL     1       3.020   4.246  19.664  0.00  0.00    +0.000 A 
ATOM      8  C   UNL     1       3.294   5.367  18.910  0.00  0.00    +0.000 A 
ATOM      9  N   UNL     1       2.600   6.503  19.131  0.00  0.00    +0.000 NA
ATOM     10  H   UNL     1       0.783   3.525  21.925  0.00  0.00    +0.000 HD
ATOM     11  H   UNL     1       1.459   2.372  20.893  0.00  0.00    +0.000 HD
ENDROOT
BRANCH   2  12
ATOM     12  C   UNL     1       1.283   8.990  19.737  0.00  0.00    +0.000 A 
ATOM     13  C   UNL     1       1.840   9.043  18.449  0.00  0.00    +0.000 A 
ATOM     14  C   UNL     1       2.072  10.264  17.803  0.00  0.00    +0.000 A 
ATOM     15  C   UNL     1       1.752  11.460  18.437  0.00  0.00    +0.000 A 
ATOM     16  C   UNL     1       1.183  11.436  19.706  0.00  0.00    +0.000 A 
ATOM     17  C   UNL     1       0.942  10.213  20.342  0.00  0.00    +0.000 A 
ENDBRANCH   2  12
BRANCH   7  18
ATOM     18  N   UNL     1       3.799   3.056  19.535  0.00  0.00    +0.000 N 
ATOM     19  O   UNL     1       4.388   2.654  20.553  0.00  0.00    +0.000 OA
ATOM     20  O   UNL     1       3.824   2.490  18.437  0.00  0.00    +0.000 OA
ENDBRANCH   7  18
BRANCH   8  21
ATOM     21  N   UNL     1       4.307   5.389  17.937  0.00  0.00    +0.000 N 
ATOM     22  H   UNL     1       4.031   5.133  16.999  0.00  0.00    +0.000 HD
BRANCH  21  23
ATOM     23  C   UNL     1       5.608   5.913  18.037  0.00  0.00    +0.000 A 
ATOM     24  C   UNL     1       6.054   6.967  17.228  0.00  0.00    +0.000 A 
ATOM     25  C   UNL     1       7.316   7.533  17.417  0.00  0.00    +0.000 A 
ATOM     26  C   UNL     1       8.167   7.030  18.395  0.00  0.00    +0.000 A 
ATOM     27  C   UNL     1       7.767   5.940  19.164  0.00  0.00    +0.000 A 
ATOM     28  C   UNL     1       6.497   5.385  18.984  0.00  0.00    +0.000 A 
ENDBRANCH  21  23
ENDBRANCH   8  21
TORSDOF 4
ENDMDL
