MODEL 1
REMARK VINA RESULT:      -7.9      0.000      0.000
REMARK  Name = 
REMARK  3 active torsions:
REMARK  status: ('A' for Active; 'I' for Inactive)
REMARK    1  A    between atoms: C_1  and  C_2
REMARK    2  A    between atoms: C_2  and  N_3
REMARK    3  A    between atoms: C_9  and  C_10
REMARK                            x       y       z     vdW  Elec       q    Type
REMARK                         _______ _______ _______ _____ _____    ______ ____
ROOT
ATOM      1  C   UNL     1       7.078   4.196  16.185  0.00  0.00    +0.000 C 
ATOM      2  C   UNL     1       5.713   4.837  15.874  0.00  0.00    +0.000 C 
ATOM      3  C   UNL     1       4.560   3.977  16.413  0.00  0.00    +0.000 C 
ATOM      4  C   UNL     1       4.534   3.957  17.940  0.00  0.00    +0.000 C 
ATOM      5  N   UNL     1       4.488   5.321  18.451  0.00  0.00    +0.000 N 
ATOM      6  C   UNL     1       3.485   5.747  19.270  0.00  0.00    +0.000 A 
ATOM      7  N   UNL     1       3.059   6.992  19.345  0.00  0.00    +0.000 NA
ATOM      8  C   UNL     1       1.969   7.094  20.196  0.00  0.00    +0.000 A 
ATOM      9  C   UNL     1       1.650   5.933  20.867  0.00  0.00    +0.000 A 
ATOM     10  S   UNL     1       2.662   4.667  20.356  0.00  0.00    +0.000 S 
ATOM     11  C   UNL     1       5.508   6.255  17.989  0.00  0.00    +0.000 C 
ATOM     12  C   UNL     1       5.599   6.258  16.461  0.00  0.00    +0.000 C 
ENDROOT
BRANCH   8  13
ATOM     13  C   UNL     1       1.228   8.339  20.369  0.00  0.00    +0.000 A 
ATOM     14  C   UNL     1       1.146   9.260  19.323  0.00  0.00    +0.000 A 
ATOM     15  C   UNL     1       0.438  10.457  19.489  0.00  0.00    +0.000 A 
ATOM     16  C   UNL     1      -0.203  10.748  20.704  0.00  0.00    +0.000 A 
ATOM     17  C   UNL     1      -0.912  11.944  20.891  0.00  0.00    +0.000 A 
ATOM     18  C   UNL     1      -1.533  12.203  22.110  0.00  0.00    +0.000 A 
ATOM     19  F   UNL     1      -2.200  13.353  22.277  0.00  0.00    +0.000 F 
ATOM     20  C   UNL     1      -1.474  11.291  23.155  0.00  0.00    +0.000 A 
ATOM     21  C   UNL     1      -0.778  10.098  22.983  0.00  0.00    +0.000 A 
ATOM     22  C   UNL     1      -0.134   9.817  21.764  0.00  0.00    +0.000 A 
ATOM     23  C   UNL     1       0.576   8.622  21.580  0.00  0.00    +0.000 A 
ENDBRANCH   8  13
BRANCH   2  24
ATOM     24  N   UNL     1       5.591   4.916  14.408  0.00  0.00    +0.000 NA
ATOM     25  H   UNL     1       5.292   5.850  14.131  0.00  0.00    +0.000 HD
ATOM     26  H   UNL     1       4.868   4.275  14.083  0.00  0.00    +0.000 HD
ENDBRANCH   2  24
TORSDOF 2
ENDMDL
MODEL 2
REMARK VINA RESULT:      -7.9      4.053      8.624
REMARK  Name = 
REMARK  3 active torsions:
REMARK  status: ('A' for Active; 'I' for Inactive)
REMARK    1  A    between atoms: C_1  and  C_2
REMARK    2  A    between atoms: C_2  and  N_3
REMARK    3  A    between atoms: C_9  and  C_10
REMARK                            x       y       z     vdW  Elec       q    Type
REMARK                         _______ _______ _______ _____ _____    ______ ____
ROOT
ATOM      1  C   UNL     1      -0.366  14.560  19.578  0.00  0.00    +0.000 C 
ATOM      2  C   UNL     1       1.009  13.876  19.477  0.00  0.00    +0.000 C 
ATOM      3  C   UNL     1       1.404  13.225  20.812  0.00  0.00    +0.000 C 
ATOM      4  C   UNL     1       0.508  12.036  21.150  0.00  0.00    +0.000 C 
ATOM      5  N   UNL     1       0.517  11.081  20.050  0.00  0.00    +0.000 N 
ATOM      6  C   UNL     1       0.893   9.784  20.229  0.00  0.00    +0.000 A 
ATOM      7  N   UNL     1       1.433   9.025  19.295  0.00  0.00    +0.000 NA
ATOM      8  C   UNL     1       1.790   7.786  19.807  0.00  0.00    +0.000 A 
ATOM      9  C   UNL     1       1.399   7.565  21.110  0.00  0.00    +0.000 A 
ATOM     10  S   UNL     1       0.660   8.959  21.742  0.00  0.00    +0.000 S 
ATOM     11  C   UNL     1       0.194  11.577  18.717  0.00  0.00    +0.000 C 
ATOM     12  C   UNL     1       1.038  12.806  18.368  0.00  0.00    +0.000 C 
ENDROOT
BRANCH   8  13
ATOM     13  C   UNL     1       2.516   6.797  19.017  0.00  0.00    +0.000 A 
ATOM     14  C   UNL     1       2.360   5.435  19.281  0.00  0.00    +0.000 A 
ATOM     15  C   UNL     1       3.058   4.485  18.525  0.00  0.00    +0.000 A 
ATOM     16  C   UNL     1       3.920   4.883  17.491  0.00  0.00    +0.000 A 
ATOM     17  C   UNL     1       4.633   3.946  16.728  0.00  0.00    +0.000 A 
ATOM     18  C   UNL     1       5.482   4.376  15.711  0.00  0.00    +0.000 A 
ATOM     19  F   UNL     1       6.162   3.471  14.996  0.00  0.00    +0.000 F 
ATOM     20  C   UNL     1       5.637   5.726  15.427  0.00  0.00    +0.000 A 
ATOM     21  C   UNL     1       4.933   6.667  16.173  0.00  0.00    +0.000 A 
ATOM     22  C   UNL     1       4.076   6.259  17.211  0.00  0.00    +0.000 A 
ATOM     23  C   UNL     1       3.366   7.197  17.974  0.00  0.00    +0.000 A 
ENDBRANCH   8  13
BRANCH   2  24
ATOM     24  N   UNL     1       1.996  14.921  19.157  0.00  0.00    +0.000 NA
ATOM     25  H   UNL     1       2.844  14.499  18.782  0.00  0.00    +0.000 HD
ATOM     26  H   UNL     1       2.271  15.413  20.006  0.00  0.00    +0.000 HD
ENDBRANCH   2  24
TORSDOF 2
ENDMDL
MODEL 3
REMARK VINA RESULT:      -7.9      1.964      3.123
REMARK  Name = 
REMARK  3 active torsions:
REMARK  status: ('A' for Active; 'I' for Inactive)
REMARK    1  A    between atoms: C_1  and  C_2
REMARK    2  A    between atoms: C_2  and  N_3
REMARK    3  A    between atoms: C_9  and  C_10
REMARK                            x       y       z     vdW  Elec       q    Type
REMARK                         _______ _______ _______ _____ _____    ______ ____
ROOT
ATOM      1  C   UNL     1       3.977   1.424  18.315  0.00  0.00    +0.000 C 
ATOM      2  C   UNL     1       4.201   2.451  19.440  0.00  0.00    +0.000 C 
ATOM      3  C   UNL     1       5.026   3.648  18.943  0.00  0.00    +0.000 C 
ATOM      4  C   UNL     1       4.252   4.487  17.929  0.00  0.00    +0.000 C 
ATOM      5  N   UNL     1       2.975   4.899  18.498  0.00  0.00    +0.000 N 
ATOM      6  C   UNL     1       2.626   6.212  18.602  0.00  0.00    +0.000 A 
ATOM      7  N   UNL     1       1.818   6.700  19.522  0.00  0.00    +0.000 NA
ATOM      8  C   UNL     1       1.730   8.081  19.424  0.00  0.00    +0.000 A 
ATOM      9  C   UNL     1       2.381   8.625  18.338  0.00  0.00    +0.000 A 
ATOM     10  S   UNL     1       3.199   7.408  17.478  0.00  0.00    +0.000 S 
ATOM     11  C   UNL     1       2.107   3.860  19.041  0.00  0.00    +0.000 C 
ATOM     12  C   UNL     1       2.869   2.965  20.022  0.00  0.00    +0.000 C 
ENDROOT
BRANCH   8  13
ATOM     13  C   UNL     1       0.997   8.886  20.394  0.00  0.00    +0.000 A 
ATOM     14  C   UNL     1       1.083   8.597  21.758  0.00  0.00    +0.000 A 
ATOM     15  C   UNL     1       0.377   9.367  22.690  0.00  0.00    +0.000 A 
ATOM     16  C   UNL     1      -0.423  10.443  22.272  0.00  0.00    +0.000 A 
ATOM     17  C   UNL     1      -1.142  11.222  23.191  0.00  0.00    +0.000 A 
ATOM     18  C   UNL     1      -1.929  12.281  22.742  0.00  0.00    +0.000 A 
ATOM     19  F   UNL     1      -2.616  13.011  23.629  0.00  0.00    +0.000 F 
ATOM     20  C   UNL     1      -2.013  12.591  21.392  0.00  0.00    +0.000 A 
ATOM     21  C   UNL     1      -1.302  11.829  20.469  0.00  0.00    +0.000 A 
ATOM     22  C   UNL     1      -0.507  10.750  20.896  0.00  0.00    +0.000 A 
ATOM     23  C   UNL     1       0.209   9.971  19.977  0.00  0.00    +0.000 A 
ENDBRANCH   8  13
BRANCH   2  24
ATOM     24  N   UNL     1       4.957   1.774  20.507  0.00  0.00    +0.000 NA
ATOM     25  H   UNL     1       5.924   2.095  20.510  0.00  0.00    +0.000 HD
ATOM     26  H   UNL     1       4.988   0.770  20.330  0.00  0.00    +0.000 HD
ENDBRANCH   2  24
TORSDOF 2
ENDMDL
MODEL 4
REMARK VINA RESULT:      -7.6      4.319      8.220
REMARK  Name = 
REMARK  3 active torsions:
REMARK  status: ('A' for Active; 'I' for Inactive)
REMARK    1  A    between atoms: C_1  and  C_2
REMARK    2  A    between atoms: C_2  and  N_3
REMARK    3  A    between atoms: C_9  and  C_10
REMARK                            x       y       z     vdW  Elec       q    Type
REMARK                         _______ _______ _______ _____ _____    ______ ____
ROOT
ATOM      1  C   UNL     1       0.851  15.548  18.957  0.00  0.00    +0.000 C 
ATOM      2  C   UNL     1       2.013  14.561  19.172  0.00  0.00    +0.000 C 
ATOM      3  C   UNL     1       2.079  14.091  20.633  0.00  0.00    +0.000 C 
ATOM      4  C   UNL     1       0.880  13.219  21.002  0.00  0.00    +0.000 C 
ATOM      5  N   UNL     1       0.774  12.104  20.070  0.00  0.00    +0.000 N 
ATOM      6  C   UNL     1       0.790  10.809  20.496  0.00  0.00    +0.000 A 
ATOM      7  N   UNL     1       1.223   9.792  19.779  0.00  0.00    +0.000 NA
ATOM      8  C   UNL     1       1.198   8.618  20.518  0.00  0.00    +0.000 A 
ATOM      9  C   UNL     1       0.619   8.732  21.763  0.00  0.00    +0.000 A 
ATOM     10  S   UNL     1       0.188  10.348  22.061  0.00  0.00    +0.000 S 
ATOM     11  C   UNL     1       0.738  12.411  18.645  0.00  0.00    +0.000 C 
ATOM     12  C   UNL     1       1.898  13.330  18.252  0.00  0.00    +0.000 C 
ENDROOT
BRANCH   8  13
ATOM     13  C   UNL     1       1.737   7.363  20.005  0.00  0.00    +0.000 A 
ATOM     14  C   UNL     1       2.470   7.345  18.816  0.00  0.00    +0.000 A 
ATOM     15  C   UNL     1       2.984   6.140  18.321  0.00  0.00    +0.000 A 
ATOM     16  C   UNL     1       2.778   4.934  19.011  0.00  0.00    +0.000 A 
ATOM     17  C   UNL     1       3.280   3.717  18.528  0.00  0.00    +0.000 A 
ATOM     18  C   UNL     1       3.054   2.539  19.236  0.00  0.00    +0.000 A 
ATOM     19  F   UNL     1       3.533   1.384  18.759  0.00  0.00    +0.000 F 
ATOM     20  C   UNL     1       2.341   2.542  20.427  0.00  0.00    +0.000 A 
ATOM     21  C   UNL     1       1.839   3.743  20.921  0.00  0.00    +0.000 A 
ATOM     22  C   UNL     1       2.047   4.945  20.220  0.00  0.00    +0.000 A 
ATOM     23  C   UNL     1       1.542   6.160  20.703  0.00  0.00    +0.000 A 
ENDBRANCH   8  13
BRANCH   2  24
ATOM     24  N   UNL     1       3.260  15.277  18.855  0.00  0.00    +0.000 NA
ATOM     25  H   UNL     1       3.969  15.075  19.558  0.00  0.00    +0.000 HD
ATOM     26  H   UNL     1       3.103  16.284  18.887  0.00  0.00    +0.000 HD
ENDBRANCH   2  24
TORSDOF 2
ENDMDL
MODEL 5
REMARK VINA RESULT:      -7.6      4.171      8.990
REMARK  Name = 
REMARK  3 active torsions:
REMARK  status: ('A' for Active; 'I' for Inactive)
REMARK    1  A    between atoms: C_1  and  C_2
REMARK    2  A    between atoms: C_2  and  N_3
REMARK    3  A    between atoms: C_9  and  C_10
REMARK                            x       y       z     vdW  Elec       q    Type
REMARK                         _______ _______ _______ _____ _____    ______ ____
ROOT
ATOM      1  C   UNL     1      -1.456  13.633  22.533  0.00  0.00    +0.000 C 
ATOM      2  C   UNL     1      -1.923  12.259  22.023  0.00  0.00    +0.000 C 
ATOM      3  C   UNL     1      -1.902  12.200  20.487  0.00  0.00    +0.000 C 
ATOM      4  C   UNL     1      -0.478  12.250  19.938  0.00  0.00    +0.000 C 
ATOM      5  N   UNL     1       0.321  11.189  20.539  0.00  0.00    +0.000 N 
ATOM      6  C   UNL     1       0.951  10.248  19.781  0.00  0.00    +0.000 A 
ATOM      7  N   UNL     1       1.220   9.022  20.182  0.00  0.00    +0.000 NA
ATOM      8  C   UNL     1       1.782   8.275  19.157  0.00  0.00    +0.000 A 
ATOM      9  C   UNL     1       2.054   8.987  18.008  0.00  0.00    +0.000 A 
ATOM     10  S   UNL     1       1.513  10.589  18.171  0.00  0.00    +0.000 S 
ATOM     11  C   UNL     1       0.358  11.108  21.995  0.00  0.00    +0.000 C 
ATOM     12  C   UNL     1      -1.056  11.113  22.581  0.00  0.00    +0.000 C 
ENDROOT
BRANCH   8  13
ATOM     13  C   UNL     1       2.066   6.851  19.295  0.00  0.00    +0.000 A 
ATOM     14  C   UNL     1       1.792   6.192  20.495  0.00  0.00    +0.000 A 
ATOM     15  C   UNL     1       2.068   4.826  20.630  0.00  0.00    +0.000 A 
ATOM     16  C   UNL     1       2.618   4.096  19.564  0.00  0.00    +0.000 A 
ATOM     17  C   UNL     1       2.907   2.729  19.682  0.00  0.00    +0.000 A 
ATOM     18  C   UNL     1       3.455   2.036  18.605  0.00  0.00    +0.000 A 
ATOM     19  F   UNL     1       3.733   0.733  18.735  0.00  0.00    +0.000 F 
ATOM     20  C   UNL     1       3.719   2.673  17.401  0.00  0.00    +0.000 A 
ATOM     21  C   UNL     1       3.435   4.030  17.267  0.00  0.00    +0.000 A 
ATOM     22  C   UNL     1       2.888   4.753  18.343  0.00  0.00    +0.000 A 
ATOM     23  C   UNL     1       2.603   6.120  18.223  0.00  0.00    +0.000 A 
ENDBRANCH   8  13
BRANCH   2  24
ATOM     24  N   UNL     1      -3.311  12.070  22.478  0.00  0.00    +0.000 NA
ATOM     25  H   UNL     1      -3.652  12.920  22.925  0.00  0.00    +0.000 HD
ATOM     26  H   UNL     1      -3.350  11.338  23.186  0.00  0.00    +0.000 HD
ENDBRANCH   2  24
TORSDOF 2
ENDMDL
MODEL 6
REMARK VINA RESULT:      -7.5      1.973      3.031
REMARK  Name = 
REMARK  3 active torsions:
REMARK  status: ('A' for Active; 'I' for Inactive)
REMARK    1  A    between atoms: C_1  and  C_2
REMARK    2  A    between atoms: C_2  and  N_3
REMARK    3  A    between atoms: C_9  and  C_10
REMARK                            x       y       z     vdW  Elec       q    Type
REMARK                         _______ _______ _______ _____ _____    ______ ____
ROOT
ATOM      1  C   UNL     1       4.147   1.079  18.975  0.00  0.00    +0.000 C 
ATOM      2  C   UNL     1       4.256   2.264  19.951  0.00  0.00    +0.000 C 
ATOM      3  C   UNL     1       5.246   3.319  19.435  0.00  0.00    +0.000 C 
ATOM      4  C   UNL     1       4.726   4.019  18.181  0.00  0.00    +0.000 C 
ATOM      5  N   UNL     1       3.408   4.583  18.441  0.00  0.00    +0.000 N 
ATOM      6  C   UNL     1       3.152   5.911  18.278  0.00  0.00    +0.000 A 
ATOM      7  N   UNL     1       2.239   6.585  18.950  0.00  0.00    +0.000 NA
ATOM      8  C   UNL     1       2.280   7.933  18.629  0.00  0.00    +0.000 A 
ATOM      9  C   UNL     1       3.148   8.257  17.608  0.00  0.00    +0.000 A 
ATOM     10  S   UNL     1       4.001   6.876  17.107  0.00  0.00    +0.000 S 
ATOM     11  C   UNL     1       2.380   3.693  18.969  0.00  0.00    +0.000 C 
ATOM     12  C   UNL     1       2.890   2.934  20.197  0.00  0.00    +0.000 C 
ENDROOT
BRANCH   8  13
ATOM     13  C   UNL     1       1.458   8.923  19.315  0.00  0.00    +0.000 A 
ATOM     14  C   UNL     1       1.067  10.092  18.658  0.00  0.00    +0.000 A 
ATOM     15  C   UNL     1       0.280  11.045  19.318  0.00  0.00    +0.000 A 
ATOM     16  C   UNL     1      -0.131  10.841  20.645  0.00  0.00    +0.000 A 
ATOM     17  C   UNL     1      -0.914  11.786  21.323  0.00  0.00    +0.000 A 
ATOM     18  C   UNL     1      -1.302  11.553  22.641  0.00  0.00    +0.000 A 
ATOM     19  F   UNL     1      -2.043  12.469  23.278  0.00  0.00    +0.000 F 
ATOM     20  C   UNL     1      -0.935  10.391  23.303  0.00  0.00    +0.000 A 
ATOM     21  C   UNL     1      -0.161   9.441  22.641  0.00  0.00    +0.000 A 
ATOM     22  C   UNL     1       0.251   9.657  21.314  0.00  0.00    +0.000 A 
ATOM     23  C   UNL     1       1.035   8.712  20.638  0.00  0.00    +0.000 A 
ENDBRANCH   8  13
BRANCH   2  24
ATOM     24  N   UNL     1       4.763   1.733  21.228  0.00  0.00    +0.000 NA
ATOM     25  H   UNL     1       5.684   1.320  21.096  0.00  0.00    +0.000 HD
ATOM     26  H   UNL     1       4.157   0.983  21.560  0.00  0.00    +0.000 HD
ENDBRANCH   2  24
TORSDOF 2
ENDMDL
MODEL 7
REMARK VINA RESULT:      -7.5      4.633      9.371
REMARK  Name = 
REMARK  3 active torsions:
REMARK  status: ('A' for Active; 'I' for Inactive)
REMARK    1  A    between atoms: C_1  and  C_2
REMARK    2  A    between atoms: C_2  and  N_3
REMARK    3  A    between atoms: C_9  and  C_10
REMARK                            x       y       z     vdW  Elec       q    Type
REMARK                         _______ _______ _______ _____ _____    ______ ____
ROOT
ATOM      1  C   UNL     1      -3.618  14.200  24.181  0.00  0.00    +0.000 C 
ATOM      2  C   UNL     1      -3.774  13.033  23.190  0.00  0.00    +0.000 C 
ATOM      3  C   UNL     1      -3.704  13.526  21.736  0.00  0.00    +0.000 C 
ATOM      4  C   UNL     1      -2.310  14.034  21.376  0.00  0.00    +0.000 C 
ATOM      5  N   UNL     1      -1.320  13.000  21.652  0.00  0.00    +0.000 N 
ATOM      6  C   UNL     1      -0.489  12.524  20.683  0.00  0.00    +0.000 A 
ATOM      7  N   UNL     1       0.022  11.309  20.667  0.00  0.00    +0.000 NA
ATOM      8  C   UNL     1       0.752  11.093  19.507  0.00  0.00    +0.000 A 
ATOM      9  C   UNL     1       0.896  12.202  18.701  0.00  0.00    +0.000 A 
ATOM     10  S   UNL     1       0.026  13.511  19.347  0.00  0.00    +0.000 S 
ATOM     11  C   UNL     1      -1.302  12.419  22.990  0.00  0.00    +0.000 C 
ATOM     12  C   UNL     1      -2.699  11.949  23.405  0.00  0.00    +0.000 C 
ENDROOT
BRANCH   8  13
ATOM     13  C   UNL     1       1.326   9.793  19.178  0.00  0.00    +0.000 A 
ATOM     14  C   UNL     1       1.941   9.588  17.942  0.00  0.00    +0.000 A 
ATOM     15  C   UNL     1       2.490   8.339  17.624  0.00  0.00    +0.000 A 
ATOM     16  C   UNL     1       2.435   7.277  18.541  0.00  0.00    +0.000 A 
ATOM     17  C   UNL     1       2.974   6.018  18.238  0.00  0.00    +0.000 A 
ATOM     18  C   UNL     1       2.899   4.985  19.169  0.00  0.00    +0.000 A 
ATOM     19  F   UNL     1       3.410   3.786  18.863  0.00  0.00    +0.000 F 
ATOM     20  C   UNL     1       2.304   5.177  20.408  0.00  0.00    +0.000 A 
ATOM     21  C   UNL     1       1.768   6.423  20.725  0.00  0.00    +0.000 A 
ATOM     22  C   UNL     1       1.824   7.479  19.798  0.00  0.00    +0.000 A 
ATOM     23  C   UNL     1       1.283   8.736  20.101  0.00  0.00    +0.000 A 
ENDBRANCH   8  13
BRANCH   2  24
ATOM     24  N   UNL     1      -5.101  12.439  23.418  0.00  0.00    +0.000 NA
ATOM     25  H   UNL     1      -5.611  12.975  24.118  0.00  0.00    +0.000 HD
ATOM     26  H   UNL     1      -5.002  11.497  23.795  0.00  0.00    +0.000 HD
ENDBRANCH   2  24
TORSDOF 2
ENDMDL
MODEL 8
REMARK VINA RESULT:      -7.4      4.408      9.479
REMARK  Name = 
REMARK  3 active torsions:
REMARK  status: ('A' for Active; 'I' for Inactive)
REMARK    1  A    between atoms: C_1  and  C_2
REMARK    2  A    between atoms: C_2  and  N_3
REMARK    3  A    between atoms: C_9  and  C_10
REMARK                            x       y       z     vdW  Elec       q    Type
REMARK                         _______ _______ _______ _____ _____    ______ ____
ROOT
ATOM      1  C   UNL     1      -3.693  14.235  23.663  0.00  0.00    +0.000 C 
ATOM      2  C   UNL     1      -3.833  12.878  22.952  0.00  0.00    +0.000 C 
ATOM      3  C   UNL     1      -3.759  13.040  21.426  0.00  0.00    +0.000 C 
ATOM      4  C   UNL     1      -2.368  13.471  20.968  0.00  0.00    +0.000 C 
ATOM      5  N   UNL     1      -1.370  12.533  21.468  0.00  0.00    +0.000 N 
ATOM      6  C   UNL     1      -0.529  11.865  20.630  0.00  0.00    +0.000 A 
ATOM      7  N   UNL     1      -0.007  10.681  20.882  0.00  0.00    +0.000 NA
ATOM      8  C   UNL     1       0.731  10.223  19.801  0.00  0.00    +0.000 A 
ATOM      9  C   UNL     1       0.870  11.130  18.772  0.00  0.00    +0.000 A 
ATOM     10  S   UNL     1      -0.015  12.539  19.112  0.00  0.00    +0.000 S 
ATOM     11  C   UNL     1      -1.354  12.260  22.901  0.00  0.00    +0.000 C 
ATOM     12  C   UNL     1      -2.749  11.878  23.403  0.00  0.00    +0.000 C 
ENDROOT
BRANCH   8  13
ATOM     13  C   UNL     1       1.319   8.889  19.767  0.00  0.00    +0.000 A 
ATOM     14  C   UNL     1       1.110   8.001  20.825  0.00  0.00    +0.000 A 
ATOM     15  C   UNL     1       1.676   6.720  20.795  0.00  0.00    +0.000 A 
ATOM     16  C   UNL     1       2.457   6.307  19.704  0.00  0.00    +0.000 A 
ATOM     17  C   UNL     1       3.038   5.030  19.659  0.00  0.00    +0.000 A 
ATOM     18  C   UNL     1       3.810   4.654  18.563  0.00  0.00    +0.000 A 
ATOM     19  F   UNL     1       4.364   3.435  18.538  0.00  0.00    +0.000 F 
ATOM     20  C   UNL     1       4.015   5.518  17.497  0.00  0.00    +0.000 A 
ATOM     21  C   UNL     1       3.442   6.787  17.526  0.00  0.00    +0.000 A 
ATOM     22  C   UNL     1       2.665   7.194  18.625  0.00  0.00    +0.000 A 
ATOM     23  C   UNL     1       2.088   8.471  18.669  0.00  0.00    +0.000 A 
ENDBRANCH   8  13
BRANCH   2  24
ATOM     24  N   UNL     1      -5.156  12.334  23.300  0.00  0.00    +0.000 NA
ATOM     25  H   UNL     1      -5.623  12.947  23.968  0.00  0.00    +0.000 HD
ATOM     26  H   UNL     1      -5.052  11.432  23.764  0.00  0.00    +0.000 HD
ENDBRANCH   2  24
TORSDOF 2
ENDMDL
MODEL 9
REMARK VINA RESULT:      -7.3      4.348      8.940
REMARK  Name = 
REMARK  3 active torsions:
REMARK  status: ('A' for Active; 'I' for Inactive)
REMARK    1  A    between atoms: C_1  and  C_2
REMARK    2  A    between atoms: C_2  and  N_3
REMARK    3  A    between atoms: C_9  and  C_10
REMARK                            x       y       z     vdW  Elec       q    Type
REMARK                         _______ _______ _______ _____ _____    ______ ____
ROOT
ATOM      1  C   UNL     1      -2.556  13.929  23.417  0.00  0.00    +0.000 C 
ATOM      2  C   UNL     1      -2.836  12.674  22.570  0.00  0.00    +0.000 C 
ATOM      3  C   UNL     1      -2.691  12.973  21.070  0.00  0.00    +0.000 C 
ATOM      4  C   UNL     1      -1.242  13.268  20.688  0.00  0.00    +0.000 C 
ATOM      5  N   UNL     1      -0.385  12.169  21.114  0.00  0.00    +0.000 N 
ATOM      6  C   UNL     1       0.397  11.485  20.232  0.00  0.00    +0.000 A 
ATOM      7  N   UNL     1       0.762  10.227  20.376  0.00  0.00    +0.000 NA
ATOM      8  C   UNL     1       1.475   9.787  19.271  0.00  0.00    +0.000 A 
ATOM      9  C   UNL     1       1.759  10.764  18.341  0.00  0.00    +0.000 A 
ATOM     10  S   UNL     1       1.041  12.233  18.801  0.00  0.00    +0.000 S 
ATOM     11  C   UNL     1      -0.451  11.759  22.512  0.00  0.00    +0.000 C 
ATOM     12  C   UNL     1      -1.898  11.508  22.943  0.00  0.00    +0.000 C 
ENDROOT
BRANCH   8  13
ATOM     13  C   UNL     1       1.896   8.399  19.117  0.00  0.00    +0.000 A 
ATOM     14  C   UNL     1       2.525   7.980  17.943  0.00  0.00    +0.000 A 
ATOM     15  C   UNL     1       2.927   6.646  17.793  0.00  0.00    +0.000 A 
ATOM     16  C   UNL     1       2.709   5.712  18.819  0.00  0.00    +0.000 A 
ATOM     17  C   UNL     1       3.099   4.372  18.684  0.00  0.00    +0.000 A 
ATOM     18  C   UNL     1       2.865   3.470  19.720  0.00  0.00    +0.000 A 
ATOM     19  F   UNL     1       3.236   2.192  19.574  0.00  0.00    +0.000 F 
ATOM     20  C   UNL     1       2.255   3.873  20.899  0.00  0.00    +0.000 A 
ATOM     21  C   UNL     1       1.866   5.202  21.049  0.00  0.00    +0.000 A 
ATOM     22  C   UNL     1       2.083   6.129  20.014  0.00  0.00    +0.000 A 
ATOM     23  C   UNL     1       1.691   7.469  20.149  0.00  0.00    +0.000 A 
ENDBRANCH   8  13
BRANCH   2  24
ATOM     24  N   UNL     1      -4.227  12.269  22.833  0.00  0.00    +0.000 NA
ATOM     25  H   UNL     1      -4.667  12.924  23.478  0.00  0.00    +0.000 HD
ATOM     26  H   UNL     1      -4.245  11.360  23.293  0.00  0.00    +0.000 HD
ENDBRANCH   2  24
TORSDOF 2
ENDMDL
