MODEL 1
REMARK VINA RESULT:      -8.5      0.000      0.000
REMARK  Name = 
REMARK  8 active torsions:
REMARK  status: ('A' for Active; 'I' for Inactive)
REMARK    1  A    between atoms: C_2  and  C_3
REMARK    2  A    between atoms: C_5  and  S_6
REMARK    3  A    between atoms: S_6  and  N_9
REMARK    4  A    between atoms: C_17  and  O_18
REMARK    5  A    between atoms: O_18  and  C_19
REMARK    6  A    between atoms: C_21  and  C_22
REMARK    7  A    between atoms: N_26  and  C_27
REMARK    8  A    between atoms: C_27  and  C_28
REMARK                            x       y       z     vdW  Elec       q    Type
REMARK                         _______ _______ _______ _____ _____    ______ ____
ROOT
ATOM      1  C   UNL     1       2.202   5.103  20.471  0.00  0.00    +0.000 A 
ATOM      2  C   UNL     1       1.586   6.264  20.965  0.00  0.00    +0.000 A 
ATOM      3  C   UNL     1       1.621   7.447  20.232  0.00  0.00    +0.000 A 
ATOM      4  C   UNL     1       2.276   7.492  19.000  0.00  0.00    +0.000 A 
ATOM      5  C   UNL     1       2.860   6.325  18.488  0.00  0.00    +0.000 A 
ATOM      6  C   UNL     1       2.819   5.119  19.208  0.00  0.00    +0.000 A 
ENDROOT
BRANCH   3   7
ATOM      7  S   UNL     1       0.972   8.931  20.976  0.00  0.00    +0.000 S 
ATOM      8  O   UNL     1      -0.458   8.752  21.096  0.00  0.00    +0.000 OA
ATOM      9  O   UNL     1       1.790   9.216  22.136  0.00  0.00    +0.000 OA
BRANCH   7  10
ATOM     10  N   UNL     1       1.194  10.065  19.736  0.00  0.00    +0.000 N 
ATOM     11  C   UNL     1      -0.048  10.596  19.321  0.00  0.00    +0.000 A 
ATOM     12  N   UNL     1      -0.651  10.098  18.273  0.00  0.00    +0.000 NA
ATOM     13  C   UNL     1      -1.857  10.758  18.104  0.00  0.00    +0.000 A 
ATOM     14  C   UNL     1      -2.075  11.826  18.951  0.00  0.00    +0.000 A 
ATOM     15  S   UNL     1      -0.766  11.964  20.050  0.00  0.00    +0.000 S 
ATOM     16  H   UNL     1       1.601   9.544  18.957  0.00  0.00    +0.000 HD
ENDBRANCH   7  10
ENDBRANCH   3   7
BRANCH   1  18
ATOM     17  N   UNL     1       2.101   3.008  21.990  0.00  0.00    +0.000 NA
ATOM     18  C   UNL     1       2.177   3.976  21.353  0.00  0.00    +0.000 C 
ENDBRANCH   1  18
BRANCH   6  19
ATOM     19  O   UNL     1       3.511   4.074  18.621  0.00  0.00    +0.000 OA
BRANCH  19  20
ATOM     20  C   UNL     1       4.441   4.264  17.682  0.00  0.00    +0.000 A 
ATOM     21  C   UNL     1       4.476   4.065  16.314  0.00  0.00    +0.000 A 
ATOM     22  C   UNL     1       5.837   4.166  15.978  0.00  0.00    +0.000 A 
ATOM     23  N   UNL     1       6.575   4.628  16.989  0.00  0.00    +0.000 NA
ATOM     24  N   UNL     1       5.686   4.771  17.992  0.00  0.00    +0.000 N 
BRANCH  22  25
ATOM     25  C   UNL     1       6.405   3.728  14.639  0.00  0.00    +0.000 C 
ATOM     26  C   UNL     1       5.617   4.017  13.379  0.00  0.00    +0.000 C 
ATOM     27  C   UNL     1       6.847   4.808  13.667  0.00  0.00    +0.000 C 
ENDBRANCH  22  25
BRANCH  24  28
ATOM     28  C   UNL     1       6.173   5.243  19.267  0.00  0.00    +0.000 C 
BRANCH  28  29
ATOM     29  C   UNL     1       7.637   5.594  19.263  0.00  0.00    +0.000 C 
ATOM     30  F   UNL     1       8.418   4.733  18.575  0.00  0.00    +0.000 F 
ATOM     31  F   UNL     1       7.824   6.822  18.716  0.00  0.00    +0.000 F 
ATOM     32  F   UNL     1       8.126   5.655  20.524  0.00  0.00    +0.000 F 
ENDBRANCH  28  29
ENDBRANCH  24  28
ENDBRANCH  19  20
ENDBRANCH   6  19
TORSDOF 8
ENDMDL
MODEL 2
REMARK VINA RESULT:      -8.5      1.925      2.438
REMARK  Name = 
REMARK  8 active torsions:
REMARK  status: ('A' for Active; 'I' for Inactive)
REMARK    1  A    between atoms: C_2  and  C_3
REMARK    2  A    between atoms: C_5  and  S_6
REMARK    3  A    between atoms: S_6  and  N_9
REMARK    4  A    between atoms: C_17  and  O_18
REMARK    5  A    between atoms: O_18  and  C_19
REMARK    6  A    between atoms: C_21  and  C_22
REMARK    7  A    between atoms: N_26  and  C_27
REMARK    8  A    between atoms: C_27  and  C_28
REMARK                            x       y       z     vdW  Elec       q    Type
REMARK                         _______ _______ _______ _____ _____    ______ ____
ROOT
ATOM      1  C   UNL     1       2.678   6.328  19.363  0.00  0.00    +0.000 A 
ATOM      2  C   UNL     1       1.868   7.473  19.420  0.00  0.00    +0.000 A 
ATOM      3  C   UNL     1       2.029   8.498  18.492  0.00  0.00    +0.000 A 
ATOM      4  C   UNL     1       3.004   8.399  17.497  0.00  0.00    +0.000 A 
ATOM      5  C   UNL     1       3.789   7.240  17.416  0.00  0.00    +0.000 A 
ATOM      6  C   UNL     1       3.627   6.190  18.336  0.00  0.00    +0.000 A 
ENDROOT
BRANCH   3   7
ATOM      7  S   UNL     1       1.094  10.000  18.708  0.00  0.00    +0.000 S 
ATOM      8  O   UNL     1       1.956  11.093  18.316  0.00  0.00    +0.000 OA
ATOM      9  O   UNL     1      -0.190   9.794  18.072  0.00  0.00    +0.000 OA
BRANCH   7  10
ATOM     10  N   UNL     1       0.970  10.090  20.396  0.00  0.00    +0.000 N 
ATOM     11  C   UNL     1       0.501  11.362  20.791  0.00  0.00    +0.000 A 
ATOM     12  N   UNL     1       1.352  12.284  21.161  0.00  0.00    +0.000 NA
ATOM     13  C   UNL     1       0.648  13.440  21.456  0.00  0.00    +0.000 A 
ATOM     14  C   UNL     1      -0.727  13.324  21.428  0.00  0.00    +0.000 A 
ATOM     15  S   UNL     1      -1.159  11.738  20.938  0.00  0.00    +0.000 S 
ATOM     16  H   UNL     1       1.922   9.971  20.747  0.00  0.00    +0.000 HD
ENDBRANCH   7  10
ENDBRANCH   3   7
BRANCH   1  18
ATOM     17  N   UNL     1       2.216   4.611  21.246  0.00  0.00    +0.000 NA
ATOM     18  C   UNL     1       2.480   5.386  20.423  0.00  0.00    +0.000 C 
ENDBRANCH   1  18
BRANCH   6  19
ATOM     19  O   UNL     1       4.529   5.151  18.187  0.00  0.00    +0.000 OA
BRANCH  19  20
ATOM     20  C   UNL     1       5.244   4.971  17.074  0.00  0.00    +0.000 A 
ATOM     21  C   UNL     1       4.943   4.517  15.803  0.00  0.00    +0.000 A 
ATOM     22  C   UNL     1       6.193   4.279  15.208  0.00  0.00    +0.000 A 
ATOM     23  N   UNL     1       7.200   4.764  15.935  0.00  0.00    +0.000 NA
ATOM     24  N   UNL     1       6.591   5.267  17.027  0.00  0.00    +0.000 N 
BRANCH  22  25
ATOM     25  C   UNL     1       6.373   3.493  13.920  0.00  0.00    +0.000 C 
ATOM     26  C   UNL     1       5.384   3.697  12.794  0.00  0.00    +0.000 C 
ATOM     27  C   UNL     1       6.757   4.260  12.667  0.00  0.00    +0.000 C 
ENDBRANCH  22  25
BRANCH  24  28
ATOM     28  C   UNL     1       7.417   5.863  18.051  0.00  0.00    +0.000 C 
BRANCH  28  29
ATOM     29  C   UNL     1       7.685   7.328  17.835  0.00  0.00    +0.000 C 
ATOM     30  F   UNL     1       6.596   8.119  17.940  0.00  0.00    +0.000 F 
ATOM     31  F   UNL     1       8.590   7.778  18.741  0.00  0.00    +0.000 F 
ATOM     32  F   UNL     1       8.222   7.550  16.613  0.00  0.00    +0.000 F 
ENDBRANCH  28  29
ENDBRANCH  24  28
ENDBRANCH  19  20
ENDBRANCH   6  19
TORSDOF 8
ENDMDL
MODEL 3
REMARK VINA RESULT:      -8.5      1.871      2.340
REMARK  Name = 
REMARK  8 active torsions:
REMARK  status: ('A' for Active; 'I' for Inactive)
REMARK    1  A    between atoms: C_2  and  C_3
REMARK    2  A    between atoms: C_5  and  S_6
REMARK    3  A    between atoms: S_6  and  N_9
REMARK    4  A    between atoms: C_17  and  O_18
REMARK    5  A    between atoms: O_18  and  C_19
REMARK    6  A    between atoms: C_21  and  C_22
REMARK    7  A    between atoms: N_26  and  C_27
REMARK    8  A    between atoms: C_27  and  C_28
REMARK                            x       y       z     vdW  Elec       q    Type
REMARK                         _______ _______ _______ _____ _____    ______ ____
ROOT
ATOM      1  C   UNL     1       2.638   6.390  19.212  0.00  0.00    +0.000 A 
ATOM      2  C   UNL     1       1.825   7.528  19.339  0.00  0.00    +0.000 A 
ATOM      3  C   UNL     1       1.976   8.603  18.468  0.00  0.00    +0.000 A 
ATOM      4  C   UNL     1       2.945   8.563  17.463  0.00  0.00    +0.000 A 
ATOM      5  C   UNL     1       3.733   7.413  17.312  0.00  0.00    +0.000 A 
ATOM      6  C   UNL     1       3.580   6.313  18.172  0.00  0.00    +0.000 A 
ENDROOT
BRANCH   3   7
ATOM      7  S   UNL     1       1.039  10.087  18.775  0.00  0.00    +0.000 S 
ATOM      8  O   UNL     1       1.850  11.199  18.330  0.00  0.00    +0.000 OA
ATOM      9  O   UNL     1      -0.288   9.868  18.239  0.00  0.00    +0.000 OA
BRANCH   7  10
ATOM     10  N   UNL     1       1.046  10.158  20.468  0.00  0.00    +0.000 N 
ATOM     11  C   UNL     1       0.520  11.390  20.916  0.00  0.00    +0.000 A 
ATOM     12  N   UNL     1       1.330  12.369  21.227  0.00  0.00    +0.000 NA
ATOM     13  C   UNL     1       0.571  13.468  21.592  0.00  0.00    +0.000 A 
ATOM     14  C   UNL     1      -0.790  13.252  21.673  0.00  0.00    +0.000 A 
ATOM     15  S   UNL     1      -1.145  11.643  21.201  0.00  0.00    +0.000 S 
ATOM     16  H   UNL     1       2.029  10.106  20.740  0.00  0.00    +0.000 HD
ENDBRANCH   7  10
ENDBRANCH   3   7
BRANCH   1  18
ATOM     17  N   UNL     1       2.379   4.628  21.093  0.00  0.00    +0.000 NA
ATOM     18  C   UNL     1       2.450   5.390  20.219  0.00  0.00    +0.000 C 
ENDBRANCH   1  18
BRANCH   6  19
ATOM     19  O   UNL     1       4.484   5.287  17.959  0.00  0.00    +0.000 OA
BRANCH  19  20
ATOM     20  C   UNL     1       5.162   5.149  16.817  0.00  0.00    +0.000 A 
ATOM     21  C   UNL     1       4.916   4.485  15.630  0.00  0.00    +0.000 A 
ATOM     22  C   UNL     1       6.153   4.482  14.964  0.00  0.00    +0.000 A 
ATOM     23  N   UNL     1       7.046   5.279  15.553  0.00  0.00    +0.000 NA
ATOM     24  N   UNL     1       6.389   5.751  16.631  0.00  0.00    +0.000 N 
BRANCH  22  25
ATOM     25  C   UNL     1       6.453   3.612  13.756  0.00  0.00    +0.000 C 
ATOM     26  C   UNL     1       5.457   3.569  12.618  0.00  0.00    +0.000 C 
ATOM     27  C   UNL     1       6.740   4.304  12.435  0.00  0.00    +0.000 C 
ENDBRANCH  22  25
BRANCH  24  28
ATOM     28  C   UNL     1       7.096   6.646  17.517  0.00  0.00    +0.000 C 
BRANCH  28  29
ATOM     29  C   UNL     1       7.683   5.965  18.724  0.00  0.00    +0.000 C 
ATOM     30  F   UNL     1       6.805   5.744  19.726  0.00  0.00    +0.000 F 
ATOM     31  F   UNL     1       8.199   4.758  18.377  0.00  0.00    +0.000 F 
ATOM     32  F   UNL     1       8.705   6.686  19.242  0.00  0.00    +0.000 F 
ENDBRANCH  28  29
ENDBRANCH  24  28
ENDBRANCH  19  20
ENDBRANCH   6  19
TORSDOF 8
ENDMDL
MODEL 4
REMARK VINA RESULT:      -8.4      4.448      8.732
REMARK  Name = 
REMARK  8 active torsions:
REMARK  status: ('A' for Active; 'I' for Inactive)
REMARK    1  A    between atoms: C_2  and  C_3
REMARK    2  A    between atoms: C_5  and  S_6
REMARK    3  A    between atoms: S_6  and  N_9
REMARK    4  A    between atoms: C_17  and  O_18
REMARK    5  A    between atoms: O_18  and  C_19
REMARK    6  A    between atoms: C_21  and  C_22
REMARK    7  A    between atoms: N_26  and  C_27
REMARK    8  A    between atoms: C_27  and  C_28
REMARK                            x       y       z     vdW  Elec       q    Type
REMARK                         _______ _______ _______ _____ _____    ______ ____
ROOT
ATOM      1  C   UNL     1       1.265   8.563  20.414  0.00  0.00    +0.000 A 
ATOM      2  C   UNL     1       1.951   7.340  20.355  0.00  0.00    +0.000 A 
ATOM      3  C   UNL     1       2.600   6.951  19.186  0.00  0.00    +0.000 A 
ATOM      4  C   UNL     1       2.570   7.773  18.058  0.00  0.00    +0.000 A 
ATOM      5  C   UNL     1       1.916   9.011  18.126  0.00  0.00    +0.000 A 
ATOM      6  C   UNL     1       1.271   9.425  19.303  0.00  0.00    +0.000 A 
ENDROOT
BRANCH   3   7
ATOM      7  S   UNL     1       3.312   5.319  19.109  0.00  0.00    +0.000 S 
ATOM      8  O   UNL     1       2.759   4.565  20.213  0.00  0.00    +0.000 OA
ATOM      9  O   UNL     1       3.170   4.860  17.743  0.00  0.00    +0.000 OA
BRANCH   7  10
ATOM     10  N   UNL     1       4.927   5.626  19.521  0.00  0.00    +0.000 N 
ATOM     11  C   UNL     1       5.765   5.469  18.395  0.00  0.00    +0.000 A 
ATOM     12  N   UNL     1       6.400   4.340  18.208  0.00  0.00    +0.000 NA
ATOM     13  C   UNL     1       7.113   4.427  17.024  0.00  0.00    +0.000 A 
ATOM     14  C   UNL     1       7.103   5.664  16.413  0.00  0.00    +0.000 A 
ATOM     15  S   UNL     1       6.105   6.737  17.303  0.00  0.00    +0.000 S 
ATOM     16  H   UNL     1       5.174   4.914  20.212  0.00  0.00    +0.000 HD
ENDBRANCH   7  10
ENDBRANCH   3   7
BRANCH   1  18
ATOM     17  N   UNL     1      -0.097   8.971  22.578  0.00  0.00    +0.000 NA
ATOM     18  C   UNL     1       0.562   8.812  21.636  0.00  0.00    +0.000 C 
ENDBRANCH   1  18
BRANCH   6  19
ATOM     19  O   UNL     1       0.596  10.629  19.196  0.00  0.00    +0.000 OA
BRANCH  19  20
ATOM     20  C   UNL     1      -0.551  10.754  18.524  0.00  0.00    +0.000 A 
ATOM     21  C   UNL     1      -1.492   9.856  18.057  0.00  0.00    +0.000 A 
ATOM     22  C   UNL     1      -2.287  10.604  17.173  0.00  0.00    +0.000 A 
ATOM     23  N   UNL     1      -2.036  11.912  17.250  0.00  0.00    +0.000 NA
ATOM     24  N   UNL     1      -1.037  11.991  18.151  0.00  0.00    +0.000 N 
BRANCH  22  25
ATOM     25  C   UNL     1      -3.266   9.981  16.192  0.00  0.00    +0.000 C 
ATOM     26  C   UNL     1      -3.991  10.877  15.212  0.00  0.00    +0.000 C 
ATOM     27  C   UNL     1      -2.899   9.992  14.718  0.00  0.00    +0.000 C 
ENDBRANCH  22  25
BRANCH  24  28
ATOM     28  C   UNL     1      -0.501  13.297  18.457  0.00  0.00    +0.000 C 
BRANCH  28  29
ATOM     29  C   UNL     1      -0.930  13.827  19.799  0.00  0.00    +0.000 C 
ATOM     30  F   UNL     1      -1.088  15.167  19.848  0.00  0.00    +0.000 F 
ATOM     31  F   UNL     1      -2.115  13.275  20.164  0.00  0.00    +0.000 F 
ATOM     32  F   UNL     1      -0.038  13.496  20.761  0.00  0.00    +0.000 F 
ENDBRANCH  28  29
ENDBRANCH  24  28
ENDBRANCH  19  20
ENDBRANCH   6  19
TORSDOF 8
ENDMDL
MODEL 5
REMARK VINA RESULT:      -8.4      4.209      8.916
REMARK  Name = 
REMARK  8 active torsions:
REMARK  status: ('A' for Active; 'I' for Inactive)
REMARK    1  A    between atoms: C_2  and  C_3
REMARK    2  A    between atoms: C_5  and  S_6
REMARK    3  A    between atoms: S_6  and  N_9
REMARK    4  A    between atoms: C_17  and  O_18
REMARK    5  A    between atoms: O_18  and  C_19
REMARK    6  A    between atoms: C_21  and  C_22
REMARK    7  A    between atoms: N_26  and  C_27
REMARK    8  A    between atoms: C_27  and  C_28
REMARK                            x       y       z     vdW  Elec       q    Type
REMARK                         _______ _______ _______ _____ _____    ______ ____
ROOT
ATOM      1  C   UNL     1       1.305   8.848  20.469  0.00  0.00    +0.000 A 
ATOM      2  C   UNL     1       1.939   7.600  20.366  0.00  0.00    +0.000 A 
ATOM      3  C   UNL     1       2.381   7.132  19.131  0.00  0.00    +0.000 A 
ATOM      4  C   UNL     1       2.192   7.900  17.980  0.00  0.00    +0.000 A 
ATOM      5  C   UNL     1       1.592   9.163  18.086  0.00  0.00    +0.000 A 
ATOM      6  C   UNL     1       1.156   9.655  19.328  0.00  0.00    +0.000 A 
ENDROOT
BRANCH   3   7
ATOM      7  S   UNL     1       3.026   5.474  19.028  0.00  0.00    +0.000 S 
ATOM      8  O   UNL     1       2.857   4.874  20.333  0.00  0.00    +0.000 OA
ATOM      9  O   UNL     1       2.450   4.869  17.846  0.00  0.00    +0.000 OA
BRANCH   7  10
ATOM     10  N   UNL     1       4.688   5.759  18.861  0.00  0.00    +0.000 N 
ATOM     11  C   UNL     1       5.128   5.390  17.571  0.00  0.00    +0.000 A 
ATOM     12  N   UNL     1       5.672   4.216  17.379  0.00  0.00    +0.000 NA
ATOM     13  C   UNL     1       5.974   4.086  16.034  0.00  0.00    +0.000 A 
ATOM     14  C   UNL     1       5.771   5.214  15.265  0.00  0.00    +0.000 A 
ATOM     15  S   UNL     1       5.104   6.459  16.238  0.00  0.00    +0.000 S 
ATOM     16  H   UNL     1       5.141   5.150  19.545  0.00  0.00    +0.000 HD
ENDBRANCH   7  10
ENDBRANCH   3   7
BRANCH   1  18
ATOM     17  N   UNL     1       0.504   9.517  22.839  0.00  0.00    +0.000 NA
ATOM     18  C   UNL     1       0.816   9.179  21.773  0.00  0.00    +0.000 C 
ENDBRANCH   1  18
BRANCH   6  19
ATOM     19  O   UNL     1       0.506  10.875  19.266  0.00  0.00    +0.000 OA
BRANCH  19  20
ATOM     20  C   UNL     1      -0.808  10.982  19.052  0.00  0.00    +0.000 A 
ATOM     21  C   UNL     1      -1.751  10.168  18.453  0.00  0.00    +0.000 A 
ATOM     22  C   UNL     1      -2.874  10.995  18.282  0.00  0.00    +0.000 A 
ATOM     23  N   UNL     1      -2.751  12.155  18.929  0.00  0.00    +0.000 NA
ATOM     24  N   UNL     1      -1.519  12.087  19.471  0.00  0.00    +0.000 N 
BRANCH  22  25
ATOM     25  C   UNL     1      -4.056  10.632  17.400  0.00  0.00    +0.000 C 
ATOM     26  C   UNL     1      -4.914  11.741  16.832  0.00  0.00    +0.000 C 
ATOM     27  C   UNL     1      -3.986  11.004  15.929  0.00  0.00    +0.000 C 
ENDBRANCH  22  25
BRANCH  24  28
ATOM     28  C   UNL     1      -1.053  13.220  20.238  0.00  0.00    +0.000 C 
BRANCH  28  29
ATOM     29  C   UNL     1      -0.875  12.926  21.703  0.00  0.00    +0.000 C 
ATOM     30  F   UNL     1      -1.187  13.952  22.523  0.00  0.00    +0.000 F 
ATOM     31  F   UNL     1      -1.652  11.876  22.069  0.00  0.00    +0.000 F 
ATOM     32  F   UNL     1       0.403  12.573  21.977  0.00  0.00    +0.000 F 
ENDBRANCH  28  29
ENDBRANCH  24  28
ENDBRANCH  19  20
ENDBRANCH   6  19
TORSDOF 8
ENDMDL
MODEL 6
REMARK VINA RESULT:      -8.4      4.378      8.871
REMARK  Name = 
REMARK  8 active torsions:
REMARK  status: ('A' for Active; 'I' for Inactive)
REMARK    1  A    between atoms: C_2  and  C_3
REMARK    2  A    between atoms: C_5  and  S_6
REMARK    3  A    between atoms: S_6  and  N_9
REMARK    4  A    between atoms: C_17  and  O_18
REMARK    5  A    between atoms: O_18  and  C_19
REMARK    6  A    between atoms: C_21  and  C_22
REMARK    7  A    between atoms: N_26  and  C_27
REMARK    8  A    between atoms: C_27  and  C_28
REMARK                            x       y       z     vdW  Elec       q    Type
REMARK                         _______ _______ _______ _____ _____    ______ ____
ROOT
ATOM      1  C   UNL     1       1.348   8.626  20.507  0.00  0.00    +0.000 A 
ATOM      2  C   UNL     1       1.973   7.377  20.365  0.00  0.00    +0.000 A 
ATOM      3  C   UNL     1       2.480   6.978  19.132  0.00  0.00    +0.000 A 
ATOM      4  C   UNL     1       2.365   7.815  18.020  0.00  0.00    +0.000 A 
ATOM      5  C   UNL     1       1.774   9.078  18.167  0.00  0.00    +0.000 A 
ATOM      6  C   UNL     1       1.272   9.502  19.410  0.00  0.00    +0.000 A 
ENDROOT
BRANCH   3   7
ATOM      7  S   UNL     1       3.111   5.320  18.966  0.00  0.00    +0.000 S 
ATOM      8  O   UNL     1       2.443   4.512  19.962  0.00  0.00    +0.000 OA
ATOM      9  O   UNL     1       3.046   4.981  17.559  0.00  0.00    +0.000 OA
BRANCH   7  10
ATOM     10  N   UNL     1       4.706   5.501  19.511  0.00  0.00    +0.000 N 
ATOM     11  C   UNL     1       5.613   5.412  18.432  0.00  0.00    +0.000 A 
ATOM     12  N   UNL     1       6.208   4.275  18.174  0.00  0.00    +0.000 NA
ATOM     13  C   UNL     1       7.005   4.441  17.054  0.00  0.00    +0.000 A 
ATOM     14  C   UNL     1       7.094   5.731  16.571  0.00  0.00    +0.000 A 
ATOM     15  S   UNL     1       6.085   6.762  17.498  0.00  0.00    +0.000 S 
ATOM     16  H   UNL     1       4.871   4.714  20.141  0.00  0.00    +0.000 HD
ENDBRANCH   7  10
ENDBRANCH   3   7
BRANCH   1  18
ATOM     17  N   UNL     1       0.359   9.203  22.830  0.00  0.00    +0.000 NA
ATOM     18  C   UNL     1       0.788   8.886  21.799  0.00  0.00    +0.000 C 
ENDBRANCH   1  18
BRANCH   6  19
ATOM     19  O   UNL     1       0.640  10.732  19.385  0.00  0.00    +0.000 OA
BRANCH  19  20
ATOM     20  C   UNL     1      -0.649  10.874  19.066  0.00  0.00    +0.000 A 
ATOM     21  C   UNL     1      -1.592  10.042  18.492  0.00  0.00    +0.000 A 
ATOM     22  C   UNL     1      -2.655  10.895  18.152  0.00  0.00    +0.000 A 
ATOM     23  N   UNL     1      -2.515  12.112  18.678  0.00  0.00    +0.000 NA
ATOM     24  N   UNL     1      -1.328  12.050  19.312  0.00  0.00    +0.000 N 
BRANCH  22  25
ATOM     25  C   UNL     1      -3.793  10.491  17.231  0.00  0.00    +0.000 C 
ATOM     26  C   UNL     1      -4.732  11.558  16.714  0.00  0.00    +0.000 C 
ATOM     27  C   UNL     1      -3.736  10.953  15.785  0.00  0.00    +0.000 C 
ENDBRANCH  22  25
BRANCH  24  28
ATOM     28  C   UNL     1      -0.854  13.238  19.985  0.00  0.00    +0.000 C 
BRANCH  28  29
ATOM     29  C   UNL     1      -0.054  14.155  19.100  0.00  0.00    +0.000 C 
ATOM     30  F   UNL     1      -0.662  15.325  18.809  0.00  0.00    +0.000 F 
ATOM     31  F   UNL     1       1.130  14.461  19.689  0.00  0.00    +0.000 F 
ATOM     32  F   UNL     1       0.245  13.557  17.923  0.00  0.00    +0.000 F 
ENDBRANCH  28  29
ENDBRANCH  24  28
ENDBRANCH  19  20
ENDBRANCH   6  19
TORSDOF 8
ENDMDL
MODEL 7
REMARK VINA RESULT:      -8.3      4.932      8.930
REMARK  Name = 
REMARK  8 active torsions:
REMARK  status: ('A' for Active; 'I' for Inactive)
REMARK    1  A    between atoms: C_2  and  C_3
REMARK    2  A    between atoms: C_5  and  S_6
REMARK    3  A    between atoms: S_6  and  N_9
REMARK    4  A    between atoms: C_17  and  O_18
REMARK    5  A    between atoms: O_18  and  C_19
REMARK    6  A    between atoms: C_21  and  C_22
REMARK    7  A    between atoms: N_26  and  C_27
REMARK    8  A    between atoms: C_27  and  C_28
REMARK                            x       y       z     vdW  Elec       q    Type
REMARK                         _______ _______ _______ _____ _____    ______ ____
ROOT
ATOM      1  C   UNL     1       1.201   8.885  20.163  0.00  0.00    +0.000 A 
ATOM      2  C   UNL     1       1.964   7.738  19.894  0.00  0.00    +0.000 A 
ATOM      3  C   UNL     1       2.586   7.578  18.658  0.00  0.00    +0.000 A 
ATOM      4  C   UNL     1       2.450   8.556  17.670  0.00  0.00    +0.000 A 
ATOM      5  C   UNL     1       1.718   9.719  17.950  0.00  0.00    +0.000 A 
ATOM      6  C   UNL     1       1.099   9.903  19.199  0.00  0.00    +0.000 A 
ENDROOT
BRANCH   3   7
ATOM      7  S   UNL     1       3.401   6.033  18.307  0.00  0.00    +0.000 S 
ATOM      8  O   UNL     1       4.118   6.207  17.063  0.00  0.00    +0.000 OA
ATOM      9  O   UNL     1       4.089   5.633  19.517  0.00  0.00    +0.000 OA
BRANCH   7  10
ATOM     10  N   UNL     1       2.089   5.023  17.947  0.00  0.00    +0.000 N 
ATOM     11  C   UNL     1       1.967   4.003  18.917  0.00  0.00    +0.000 A 
ATOM     12  N   UNL     1       2.481   2.822  18.687  0.00  0.00    +0.000 NA
ATOM     13  C   UNL     1       2.264   2.024  19.799  0.00  0.00    +0.000 A 
ATOM     14  C   UNL     1       1.479   2.581  20.787  0.00  0.00    +0.000 A 
ATOM     15  S   UNL     1       1.061   4.186  20.353  0.00  0.00    +0.000 S 
ATOM     16  H   UNL     1       2.313   4.592  17.048  0.00  0.00    +0.000 HD
ENDBRANCH   7  10
ENDBRANCH   3   7
BRANCH   1  18
ATOM     17  N   UNL     1      -0.045   8.997  22.430  0.00  0.00    +0.000 NA
ATOM     18  C   UNL     1       0.539   8.894  21.432  0.00  0.00    +0.000 C 
ENDBRANCH   1  18
BRANCH   6  19
ATOM     19  O   UNL     1       0.341  11.055  19.300  0.00  0.00    +0.000 OA
BRANCH  19  20
ATOM     20  C   UNL     1      -0.984  11.064  19.129  0.00  0.00    +0.000 A 
ATOM     21  C   UNL     1      -1.866  10.259  18.433  0.00  0.00    +0.000 A 
ATOM     22  C   UNL     1      -3.066  10.990  18.408  0.00  0.00    +0.000 A 
ATOM     23  N   UNL     1      -3.030  12.049  19.218  0.00  0.00    +0.000 NA
ATOM     24  N   UNL     1      -1.781  12.022  19.722  0.00  0.00    +0.000 N 
BRANCH  22  25
ATOM     25  C   UNL     1      -4.237  10.648  17.504  0.00  0.00    +0.000 C 
ATOM     26  C   UNL     1      -5.510  11.459  17.615  0.00  0.00    +0.000 C 
ATOM     27  C   UNL     1      -4.624  11.651  16.432  0.00  0.00    +0.000 C 
ENDBRANCH  22  25
BRANCH  24  28
ATOM     28  C   UNL     1      -1.397  13.070  20.640  0.00  0.00    +0.000 C 
BRANCH  28  29
ATOM     29  C   UNL     1      -1.149  12.583  22.042  0.00  0.00    +0.000 C 
ATOM     30  F   UNL     1       0.099  12.115  22.261  0.00  0.00    +0.000 F 
ATOM     31  F   UNL     1      -1.356  13.587  22.931  0.00  0.00    +0.000 F 
ATOM     32  F   UNL     1      -2.009  11.592  22.373  0.00  0.00    +0.000 F 
ENDBRANCH  28  29
ENDBRANCH  24  28
ENDBRANCH  19  20
ENDBRANCH   6  19
TORSDOF 8
ENDMDL
MODEL 8
REMARK VINA RESULT:      -8.3      2.912      3.743
REMARK  Name = 
REMARK  8 active torsions:
REMARK  status: ('A' for Active; 'I' for Inactive)
REMARK    1  A    between atoms: C_2  and  C_3
REMARK    2  A    between atoms: C_5  and  S_6
REMARK    3  A    between atoms: S_6  and  N_9
REMARK    4  A    between atoms: C_17  and  O_18
REMARK    5  A    between atoms: O_18  and  C_19
REMARK    6  A    between atoms: C_21  and  C_22
REMARK    7  A    between atoms: N_26  and  C_27
REMARK    8  A    between atoms: C_27  and  C_28
REMARK                            x       y       z     vdW  Elec       q    Type
REMARK                         _______ _______ _______ _____ _____    ______ ____
ROOT
ATOM      1  C   UNL     1       1.754   6.975  20.118  0.00  0.00    +0.000 A 
ATOM      2  C   UNL     1       1.274   8.007  20.940  0.00  0.00    +0.000 A 
ATOM      3  C   UNL     1       1.070   9.284  20.424  0.00  0.00    +0.000 A 
ATOM      4  C   UNL     1       1.348   9.552  19.081  0.00  0.00    +0.000 A 
ATOM      5  C   UNL     1       1.793   8.514  18.250  0.00  0.00    +0.000 A 
ATOM      6  C   UNL     1       1.987   7.216  18.753  0.00  0.00    +0.000 A 
ENDROOT
BRANCH   3   7
ATOM      7  S   UNL     1       0.622  10.595  21.543  0.00  0.00    +0.000 S 
ATOM      8  O   UNL     1       0.642  10.037  22.877  0.00  0.00    +0.000 OA
ATOM      9  O   UNL     1       1.436  11.742  21.200  0.00  0.00    +0.000 OA
BRANCH   7  10
ATOM     10  N   UNL     1      -1.014  10.829  21.165  0.00  0.00    +0.000 N 
ATOM     11  C   UNL     1      -1.518  11.971  21.825  0.00  0.00    +0.000 A 
ATOM     12  N   UNL     1      -2.166  11.837  22.954  0.00  0.00    +0.000 NA
ATOM     13  C   UNL     1      -2.515  13.097  23.413  0.00  0.00    +0.000 A 
ATOM     14  C   UNL     1      -2.236  14.141  22.555  0.00  0.00    +0.000 A 
ATOM     15  S   UNL     1      -1.438  13.543  21.161  0.00  0.00    +0.000 S 
ATOM     16  H   UNL     1      -1.499  10.005  21.525  0.00  0.00    +0.000 HD
ENDBRANCH   7  10
ENDBRANCH   3   7
BRANCH   1  18
ATOM     17  N   UNL     1       2.172   4.676  21.233  0.00  0.00    +0.000 NA
ATOM     18  C   UNL     1       2.009   5.733  20.782  0.00  0.00    +0.000 C 
ENDBRANCH   1  18
BRANCH   6  19
ATOM     19  O   UNL     1       2.511   6.319  17.839  0.00  0.00    +0.000 OA
BRANCH  19  20
ATOM     20  C   UNL     1       3.816   6.043  17.766  0.00  0.00    +0.000 A 
ATOM     21  C   UNL     1       4.963   6.751  18.070  0.00  0.00    +0.000 A 
ATOM     22  C   UNL     1       6.001   6.014  17.474  0.00  0.00    +0.000 A 
ATOM     23  N   UNL     1       5.589   4.821  17.040  0.00  0.00    +0.000 NA
ATOM     24  N   UNL     1       4.270   4.821  17.314  0.00  0.00    +0.000 N 
BRANCH  22  25
ATOM     25  C   UNL     1       7.409   6.550  17.283  0.00  0.00    +0.000 C 
ATOM     26  C   UNL     1       7.676   8.016  17.547  0.00  0.00    +0.000 C 
ATOM     27  C   UNL     1       8.172   6.999  18.517  0.00  0.00    +0.000 C 
ENDBRANCH  22  25
BRANCH  24  28
ATOM     28  C   UNL     1       3.500   3.657  16.942  0.00  0.00    +0.000 C 
BRANCH  28  29
ATOM     29  C   UNL     1       3.097   2.800  18.112  0.00  0.00    +0.000 C 
ATOM     30  F   UNL     1       1.838   3.009  18.553  0.00  0.00    +0.000 F 
ATOM     31  F   UNL     1       3.189   1.486  17.786  0.00  0.00    +0.000 F 
ATOM     32  F   UNL     1       3.925   2.994  19.165  0.00  0.00    +0.000 F 
ENDBRANCH  28  29
ENDBRANCH  24  28
ENDBRANCH  19  20
ENDBRANCH   6  19
TORSDOF 8
ENDMDL
MODEL 9
REMARK VINA RESULT:      -8.3      4.298      8.946
REMARK  Name = 
REMARK  8 active torsions:
REMARK  status: ('A' for Active; 'I' for Inactive)
REMARK    1  A    between atoms: C_2  and  C_3
REMARK    2  A    between atoms: C_5  and  S_6
REMARK    3  A    between atoms: S_6  and  N_9
REMARK    4  A    between atoms: C_17  and  O_18
REMARK    5  A    between atoms: O_18  and  C_19
REMARK    6  A    between atoms: C_21  and  C_22
REMARK    7  A    between atoms: N_26  and  C_27
REMARK    8  A    between atoms: C_27  and  C_28
REMARK                            x       y       z     vdW  Elec       q    Type
REMARK                         _______ _______ _______ _____ _____    ______ ____
ROOT
ATOM      1  C   UNL     1       1.878   8.623  18.995  0.00  0.00    +0.000 A 
ATOM      2  C   UNL     1       2.521   7.419  18.668  0.00  0.00    +0.000 A 
ATOM      3  C   UNL     1       2.450   6.326  19.528  0.00  0.00    +0.000 A 
ATOM      4  C   UNL     1       1.742   6.420  20.728  0.00  0.00    +0.000 A 
ATOM      5  C   UNL     1       1.069   7.610  21.039  0.00  0.00    +0.000 A 
ATOM      6  C   UNL     1       1.118   8.716  20.173  0.00  0.00    +0.000 A 
ENDROOT
BRANCH   3   7
ATOM      7  S   UNL     1       3.419   4.879  19.150  0.00  0.00    +0.000 S 
ATOM      8  O   UNL     1       3.087   3.878  20.139  0.00  0.00    +0.000 OA
ATOM      9  O   UNL     1       3.255   4.617  17.735  0.00  0.00    +0.000 OA
BRANCH   7  10
ATOM     10  N   UNL     1       4.986   5.403  19.530  0.00  0.00    +0.000 N 
ATOM     11  C   UNL     1       5.820   5.342  18.392  0.00  0.00    +0.000 A 
ATOM     12  N   UNL     1       6.595   4.304  18.209  0.00  0.00    +0.000 NA
ATOM     13  C   UNL     1       7.273   4.467  17.012  0.00  0.00    +0.000 A 
ATOM     14  C   UNL     1       7.090   5.683  16.385  0.00  0.00    +0.000 A 
ATOM     15  S   UNL     1       5.972   6.628  17.278  0.00  0.00    +0.000 S 
ATOM     16  H   UNL     1       5.335   4.741  20.226  0.00  0.00    +0.000 HD
ENDBRANCH   7  10
ENDBRANCH   3   7
BRANCH   1  18
ATOM     17  N   UNL     1       2.320  10.631  17.420  0.00  0.00    +0.000 NA
ATOM     18  C   UNL     1       2.098   9.701  18.078  0.00  0.00    +0.000 C 
ENDBRANCH   1  18
BRANCH   6  19
ATOM     19  O   UNL     1       0.480   9.848  20.651  0.00  0.00    +0.000 OA
BRANCH  19  20
ATOM     20  C   UNL     1      -0.530  10.433  20.004  0.00  0.00    +0.000 A 
ATOM     21  C   UNL     1      -1.340  10.056  18.948  0.00  0.00    +0.000 A 
ATOM     22  C   UNL     1      -1.987  11.241  18.559  0.00  0.00    +0.000 A 
ATOM     23  N   UNL     1      -1.800  12.231  19.434  0.00  0.00    +0.000 NA
ATOM     24  N   UNL     1      -0.983  11.687  20.358  0.00  0.00    +0.000 N 
BRANCH  22  25
ATOM     25  C   UNL     1      -2.750  11.391  17.254  0.00  0.00    +0.000 C 
ATOM     26  C   UNL     1      -3.179  10.146  16.510  0.00  0.00    +0.000 C 
ATOM     27  C   UNL     1      -4.205  10.955  17.227  0.00  0.00    +0.000 C 
ENDBRANCH  22  25
BRANCH  24  28
ATOM     28  C   UNL     1      -0.558  12.519  21.461  0.00  0.00    +0.000 C 
BRANCH  28  29
ATOM     29  C   UNL     1      -1.220  12.175  22.768  0.00  0.00    +0.000 C 
ATOM     30  F   UNL     1      -1.157  13.148  23.701  0.00  0.00    +0.000 F 
ATOM     31  F   UNL     1      -2.534  11.899  22.571  0.00  0.00    +0.000 F 
ATOM     32  F   UNL     1      -0.671  11.064  23.314  0.00  0.00    +0.000 F 
ENDBRANCH  28  29
ENDBRANCH  24  28
ENDBRANCH  19  20
ENDBRANCH   6  19
TORSDOF 8
ENDMDL
