MODEL 1
REMARK VINA RESULT:      -6.5      0.000      0.000
REMARK  Name = 
REMARK  22 active torsions:
REMARK  status: ('A' for Active; 'I' for Inactive)
REMARK    1  A    between atoms: C_1  and  C_2
REMARK    2  A    between atoms: C_2  and  C_3
REMARK    3  A    between atoms: C_3  and  C_4
REMARK    4  A    between atoms: C_4  and  C_5
REMARK    5  A    between atoms: C_5  and  C_6
REMARK    6  A    between atoms: C_6  and  C_7
REMARK    7  A    between atoms: C_7  and  C_8
REMARK    8  A    between atoms: C_8  and  C_9
REMARK    9  A    between atoms: C_9  and  C_10
REMARK   10  A    between atoms: C_10  and  C_11
REMARK   11  A    between atoms: C_11  and  C_12
REMARK   12  A    between atoms: C_12  and  C_13
REMARK   13  A    between atoms: C_13  and  C_14
REMARK   14  A    between atoms: C_14  and  O_15
REMARK   15  A    between atoms: O_15  and  C_16
REMARK   16  A    between atoms: C_16  and  O_18
REMARK   17  A    between atoms: O_18  and  C_19
REMARK   18  A    between atoms: C_19  and  C_20
REMARK   19  A    between atoms: C_19  and  C_29
REMARK   20  A    between atoms: C_20  and  N_21
REMARK   21  A    between atoms: C_29  and  P_30
REMARK   22  A    between atoms: P_30  and  O_33
REMARK                            x       y       z     vdW  Elec       q    Type
REMARK                         _______ _______ _______ _____ _____    ______ ____
ROOT
ATOM      1  C   UNL     1       7.201   5.882  18.142  0.00  0.00    +0.000 C 
ATOM      2  O   UNL     1       7.666   4.964  18.788  0.00  0.00    +0.000 OA
ENDROOT
BRANCH   1   3
ATOM      3  O   UNL     1       5.911   6.287  18.144  0.00  0.00    +0.000 OA
BRANCH   3   4
ATOM      4  C   UNL     1       4.965   5.564  17.337  0.00  0.00    +0.000 C 
BRANCH   4   5
ATOM      5  C   UNL     1       5.210   5.946  15.877  0.00  0.00    +0.000 C 
BRANCH   5   6
ATOM      6  P   UNL     1       5.804   4.583  14.809  0.00  0.00    +0.000 P 
ATOM      7  O   UNL     1       7.107   5.316  14.505  0.00  0.00    +0.000 OA
ATOM      8  O   UNL     1       5.687   3.653  16.015  0.00  0.00    +0.000 OA
BRANCH   6   9
ATOM      9  O   UNL     1       6.364   3.296  13.799  0.00  0.00    +0.000 OA
ATOM     10  H   UNL     1       5.489   3.001  13.470  0.00  0.00    +0.000 HD
ENDBRANCH   6   9
ENDBRANCH   5   6
ENDBRANCH   4   5
BRANCH   4  11
ATOM     11  C   UNL     1       3.493   5.764  17.703  0.00  0.00    +0.000 C 
BRANCH  11  12
ATOM     12  N   UNL     1       2.814   4.663  18.565  0.00  0.00    +0.000 N 
ATOM     13  C   UNL     1       1.734   3.840  17.838  0.00  0.00    +0.000 C 
ATOM     14  C   UNL     1       1.297   2.641  18.644  0.00  0.00    +0.000 C 
ATOM     15  C   UNL     1       1.884   2.739  20.047  0.00  0.00    +0.000 C 
ATOM     16  C   UNL     1       1.579   4.121  20.652  0.00  0.00    +0.000 C 
ATOM     17  C   UNL     1       2.179   5.254  19.819  0.00  0.00    +0.000 C 
ATOM     18  C   UNL     1       3.393   2.586  19.874  0.00  0.00    +0.000 C 
ATOM     19  C   UNL     1       3.955   3.723  19.023  0.00  0.00    +0.000 C 
ENDBRANCH  11  12
ENDBRANCH   4  11
ENDBRANCH   3   4
ENDBRANCH   1   3
BRANCH   1  20
ATOM     20  O   UNL     1       7.889   6.777  17.382  0.00  0.00    +0.000 OA
BRANCH  20  21
ATOM     21  C   UNL     1       7.638   8.176  17.582  0.00  0.00    +0.000 C 
BRANCH  21  22
ATOM     22  C   UNL     1       8.611   8.789  18.576  0.00  0.00    +0.000 C 
BRANCH  22  23
ATOM     23  C   UNL     1       8.824  10.278  18.277  0.00  0.00    +0.000 C 
BRANCH  23  24
ATOM     24  C   UNL     1      10.112  10.836  18.877  0.00  0.00    +0.000 C 
BRANCH  24  25
ATOM     25  C   UNL     1      10.721  11.928  18.008  0.00  0.00    +0.000 C 
BRANCH  25  26
ATOM     26  C   UNL     1      10.630  13.283  18.687  0.00  0.00    +0.000 C 
BRANCH  26  27
ATOM     27  C   UNL     1       9.639  14.164  17.941  0.00  0.00    +0.000 C 
BRANCH  27  28
ATOM     28  C   UNL     1       9.565  15.533  18.591  0.00  0.00    +0.000 C 
BRANCH  28  29
ATOM     29  C   UNL     1       8.781  15.459  19.891  0.00  0.00    +0.000 C 
BRANCH  29  30
ATOM     30  C   UNL     1       7.638  16.461  19.867  0.00  0.00    +0.000 C 
BRANCH  30  31
ATOM     31  C   UNL     1       6.719  16.189  18.684  0.00  0.00    +0.000 C 
BRANCH  31  32
ATOM     32  C   UNL     1       5.759  15.053  19.011  0.00  0.00    +0.000 C 
BRANCH  32  34
ATOM     33  C   UNL     1       3.840  16.065  17.759  0.00  0.00    +0.000 C 
ATOM     34  C   UNL     1       4.751  14.856  17.886  0.00  0.00    +0.000 C 
ENDBRANCH  32  34
ENDBRANCH  31  32
ENDBRANCH  30  31
ENDBRANCH  29  30
ENDBRANCH  28  29
ENDBRANCH  27  28
ENDBRANCH  26  27
ENDBRANCH  25  26
ENDBRANCH  24  25
ENDBRANCH  23  24
ENDBRANCH  22  23
ENDBRANCH  21  22
ENDBRANCH  20  21
ENDBRANCH   1  20
TORSDOF 21
ENDMDL
MODEL 2
REMARK VINA RESULT:      -6.4      4.643      6.534
REMARK  Name = 
REMARK  22 active torsions:
REMARK  status: ('A' for Active; 'I' for Inactive)
REMARK    1  A    between atoms: C_1  and  C_2
REMARK    2  A    between atoms: C_2  and  C_3
REMARK    3  A    between atoms: C_3  and  C_4
REMARK    4  A    between atoms: C_4  and  C_5
REMARK    5  A    between atoms: C_5  and  C_6
REMARK    6  A    between atoms: C_6  and  C_7
REMARK    7  A    between atoms: C_7  and  C_8
REMARK    8  A    between atoms: C_8  and  C_9
REMARK    9  A    between atoms: C_9  and  C_10
REMARK   10  A    between atoms: C_10  and  C_11
REMARK   11  A    between atoms: C_11  and  C_12
REMARK   12  A    between atoms: C_12  and  C_13
REMARK   13  A    between atoms: C_13  and  C_14
REMARK   14  A    between atoms: C_14  and  O_15
REMARK   15  A    between atoms: O_15  and  C_16
REMARK   16  A    between atoms: C_16  and  O_18
REMARK   17  A    between atoms: O_18  and  C_19
REMARK   18  A    between atoms: C_19  and  C_20
REMARK   19  A    between atoms: C_19  and  C_29
REMARK   20  A    between atoms: C_20  and  N_21
REMARK   21  A    between atoms: C_29  and  P_30
REMARK   22  A    between atoms: P_30  and  O_33
REMARK                            x       y       z     vdW  Elec       q    Type
REMARK                         _______ _______ _______ _____ _____    ______ ____
ROOT
ATOM      1  C   UNL     1       4.672   6.408  18.003  0.00  0.00    +0.000 C 
ATOM      2  O   UNL     1       5.052   6.100  19.115  0.00  0.00    +0.000 OA
ENDROOT
BRANCH   1   3
ATOM      3  O   UNL     1       4.625   5.596  16.922  0.00  0.00    +0.000 OA
BRANCH   3   4
ATOM      4  C   UNL     1       4.598   4.174  17.136  0.00  0.00    +0.000 C 
BRANCH   4   5
ATOM      5  C   UNL     1       5.418   3.521  16.023  0.00  0.00    +0.000 C 
BRANCH   5   6
ATOM      6  P   UNL     1       6.663   4.607  15.237  0.00  0.00    +0.000 P 
ATOM      7  O   UNL     1       7.706   4.272  16.299  0.00  0.00    +0.000 OA
ATOM      8  O   UNL     1       6.531   3.760  13.972  0.00  0.00    +0.000 OA
BRANCH   6   9
ATOM      9  O   UNL     1       7.840   5.632  14.494  0.00  0.00    +0.000 OA
ATOM     10  H   UNL     1       7.221   6.170  13.956  0.00  0.00    +0.000 HD
ENDBRANCH   6   9
ENDBRANCH   5   6
ENDBRANCH   4   5
BRANCH   4  11
ATOM     11  C   UNL     1       3.207   3.543  17.218  0.00  0.00    +0.000 C 
BRANCH  11  12
ATOM     12  N   UNL     1       2.582   3.370  18.630  0.00  0.00    +0.000 N 
ATOM     13  C   UNL     1       1.910   4.631  19.205  0.00  0.00    +0.000 C 
ATOM     14  C   UNL     1       1.115   4.332  20.452  0.00  0.00    +0.000 C 
ATOM     15  C   UNL     1       1.415   2.909  20.908  0.00  0.00    +0.000 C 
ATOM     16  C   UNL     1       2.936   2.692  20.995  0.00  0.00    +0.000 C 
ATOM     17  C   UNL     1       3.619   2.899  19.643  0.00  0.00    +0.000 C 
ATOM     18  C   UNL     1       0.836   1.999  19.828  0.00  0.00    +0.000 C 
ATOM     19  C   UNL     1       1.528   2.245  18.489  0.00  0.00    +0.000 C 
ENDBRANCH  11  12
ENDBRANCH   4  11
ENDBRANCH   3   4
ENDBRANCH   1   3
BRANCH   1  20
ATOM     20  O   UNL     1       4.096   7.584  17.632  0.00  0.00    +0.000 OA
BRANCH  20  21
ATOM     21  C   UNL     1       2.676   7.724  17.782  0.00  0.00    +0.000 C 
BRANCH  21  22
ATOM     22  C   UNL     1       2.244   9.181  17.742  0.00  0.00    +0.000 C 
BRANCH  22  23
ATOM     23  C   UNL     1       0.954   9.386  18.546  0.00  0.00    +0.000 C 
BRANCH  23  24
ATOM     24  C   UNL     1       1.126  10.330  19.733  0.00  0.00    +0.000 C 
BRANCH  24  25
ATOM     25  C   UNL     1       1.533  11.731  19.295  0.00  0.00    +0.000 C 
BRANCH  25  26
ATOM     26  C   UNL     1       0.656  12.785  19.948  0.00  0.00    +0.000 C 
BRANCH  26  27
ATOM     27  C   UNL     1      -0.041  13.609  18.876  0.00  0.00    +0.000 C 
BRANCH  27  28
ATOM     28  C   UNL     1      -1.152  12.798  18.234  0.00  0.00    +0.000 C 
BRANCH  28  29
ATOM     29  C   UNL     1      -2.206  12.436  19.267  0.00  0.00    +0.000 C 
BRANCH  29  30
ATOM     30  C   UNL     1      -3.147  11.384  18.702  0.00  0.00    +0.000 C 
BRANCH  30  31
ATOM     31  C   UNL     1      -2.390  10.432  17.787  0.00  0.00    +0.000 C 
BRANCH  31  32
ATOM     32  C   UNL     1      -3.276   9.998  16.626  0.00  0.00    +0.000 C 
BRANCH  32  34
ATOM     33  C   UNL     1      -3.569  10.018  14.139  0.00  0.00    +0.000 C 
ATOM     34  C   UNL     1      -2.660  10.404  15.293  0.00  0.00    +0.000 C 
ENDBRANCH  32  34
ENDBRANCH  31  32
ENDBRANCH  30  31
ENDBRANCH  29  30
ENDBRANCH  28  29
ENDBRANCH  27  28
ENDBRANCH  26  27
ENDBRANCH  25  26
ENDBRANCH  24  25
ENDBRANCH  23  24
ENDBRANCH  22  23
ENDBRANCH  21  22
ENDBRANCH  20  21
ENDBRANCH   1  20
TORSDOF 21
ENDMDL
MODEL 3
REMARK VINA RESULT:      -6.3      6.250      8.263
REMARK  Name = 
REMARK  22 active torsions:
REMARK  status: ('A' for Active; 'I' for Inactive)
REMARK    1  A    between atoms: C_1  and  C_2
REMARK    2  A    between atoms: C_2  and  C_3
REMARK    3  A    between atoms: C_3  and  C_4
REMARK    4  A    between atoms: C_4  and  C_5
REMARK    5  A    between atoms: C_5  and  C_6
REMARK    6  A    between atoms: C_6  and  C_7
REMARK    7  A    between atoms: C_7  and  C_8
REMARK    8  A    between atoms: C_8  and  C_9
REMARK    9  A    between atoms: C_9  and  C_10
REMARK   10  A    between atoms: C_10  and  C_11
REMARK   11  A    between atoms: C_11  and  C_12
REMARK   12  A    between atoms: C_12  and  C_13
REMARK   13  A    between atoms: C_13  and  C_14
REMARK   14  A    between atoms: C_14  and  O_15
REMARK   15  A    between atoms: O_15  and  C_16
REMARK   16  A    between atoms: C_16  and  O_18
REMARK   17  A    between atoms: O_18  and  C_19
REMARK   18  A    between atoms: C_19  and  C_20
REMARK   19  A    between atoms: C_19  and  C_29
REMARK   20  A    between atoms: C_20  and  N_21
REMARK   21  A    between atoms: C_29  and  P_30
REMARK   22  A    between atoms: P_30  and  O_33
REMARK                            x       y       z     vdW  Elec       q    Type
REMARK                         _______ _______ _______ _____ _____    ______ ____
ROOT
ATOM      1  C   UNL     1       2.426   7.899  18.385  0.00  0.00    +0.000 C 
ATOM      2  O   UNL     1       2.295   7.397  19.484  0.00  0.00    +0.000 OA
ENDROOT
BRANCH   1   3
ATOM      3  O   UNL     1       3.419   7.643  17.503  0.00  0.00    +0.000 OA
BRANCH   3   4
ATOM      4  C   UNL     1       4.278   6.516  17.749  0.00  0.00    +0.000 C 
BRANCH   4   5
ATOM      5  C   UNL     1       5.676   6.878  17.248  0.00  0.00    +0.000 C 
BRANCH   5   6
ATOM      6  P   UNL     1       6.863   5.486  17.188  0.00  0.00    +0.000 P 
ATOM      7  O   UNL     1       7.652   6.135  16.056  0.00  0.00    +0.000 OA
ATOM      8  O   UNL     1       7.201   5.775  18.650  0.00  0.00    +0.000 OA
BRANCH   6   9
ATOM      9  O   UNL     1       7.984   4.171  17.131  0.00  0.00    +0.000 OA
ATOM     10  H   UNL     1       7.470   3.589  16.532  0.00  0.00    +0.000 HD
ENDBRANCH   6   9
ENDBRANCH   5   6
ENDBRANCH   4   5
BRANCH   4  11
ATOM     11  C   UNL     1       3.819   5.189  17.143  0.00  0.00    +0.000 C 
BRANCH  11  12
ATOM     12  N   UNL     1       3.275   4.107  18.117  0.00  0.00    +0.000 N 
ATOM     13  C   UNL     1       3.579   4.357  19.606  0.00  0.00    +0.000 C 
ATOM     14  C   UNL     1       2.818   3.415  20.507  0.00  0.00    +0.000 C 
ATOM     15  C   UNL     1       2.160   2.334  19.659  0.00  0.00    +0.000 C 
ATOM     16  C   UNL     1       3.196   1.696  18.716  0.00  0.00    +0.000 C 
ATOM     17  C   UNL     1       3.808   2.723  17.763  0.00  0.00    +0.000 C 
ATOM     18  C   UNL     1       1.097   3.051  18.829  0.00  0.00    +0.000 C 
ATOM     19  C   UNL     1       1.742   4.080  17.903  0.00  0.00    +0.000 C 
ENDBRANCH  11  12
ENDBRANCH   4  11
ENDBRANCH   3   4
ENDBRANCH   1   3
BRANCH   1  20
ATOM     20  O   UNL     1       1.545   8.720  17.751  0.00  0.00    +0.000 OA
BRANCH  20  21
ATOM     21  C   UNL     1       1.222   9.976  18.364  0.00  0.00    +0.000 C 
BRANCH  21  22
ATOM     22  C   UNL     1      -0.258  10.078  18.700  0.00  0.00    +0.000 C 
BRANCH  22  23
ATOM     23  C   UNL     1      -0.671  11.543  18.886  0.00  0.00    +0.000 C 
BRANCH  23  24
ATOM     24  C   UNL     1      -1.290  11.827  20.252  0.00  0.00    +0.000 C 
BRANCH  24  25
ATOM     25  C   UNL     1      -0.270  11.708  21.377  0.00  0.00    +0.000 C 
BRANCH  25  26
ATOM     26  C   UNL     1      -0.762  12.397  22.638  0.00  0.00    +0.000 C 
BRANCH  26  27
ATOM     27  C   UNL     1      -2.114  11.826  23.040  0.00  0.00    +0.000 C 
BRANCH  27  28
ATOM     28  C   UNL     1      -3.040  12.943  23.487  0.00  0.00    +0.000 C 
BRANCH  28  29
ATOM     29  C   UNL     1      -4.169  12.383  24.337  0.00  0.00    +0.000 C 
BRANCH  29  30
ATOM     30  C   UNL     1      -5.505  12.907  23.835  0.00  0.00    +0.000 C 
BRANCH  30  31
ATOM     31  C   UNL     1      -5.493  13.022  22.318  0.00  0.00    +0.000 C 
BRANCH  31  32
ATOM     32  C   UNL     1      -6.770  12.433  21.732  0.00  0.00    +0.000 C 
BRANCH  32  34
ATOM     33  C   UNL     1      -7.706  13.647  19.751  0.00  0.00    +0.000 C 
ATOM     34  C   UNL     1      -7.712  13.536  21.266  0.00  0.00    +0.000 C 
ENDBRANCH  32  34
ENDBRANCH  31  32
ENDBRANCH  30  31
ENDBRANCH  29  30
ENDBRANCH  28  29
ENDBRANCH  27  28
ENDBRANCH  26  27
ENDBRANCH  25  26
ENDBRANCH  24  25
ENDBRANCH  23  24
ENDBRANCH  22  23
ENDBRANCH  21  22
ENDBRANCH  20  21
ENDBRANCH   1  20
TORSDOF 21
ENDMDL
MODEL 4
REMARK VINA RESULT:      -6.3      1.135      1.593
REMARK  Name = 
REMARK  22 active torsions:
REMARK  status: ('A' for Active; 'I' for Inactive)
REMARK    1  A    between atoms: C_1  and  C_2
REMARK    2  A    between atoms: C_2  and  C_3
REMARK    3  A    between atoms: C_3  and  C_4
REMARK    4  A    between atoms: C_4  and  C_5
REMARK    5  A    between atoms: C_5  and  C_6
REMARK    6  A    between atoms: C_6  and  C_7
REMARK    7  A    between atoms: C_7  and  C_8
REMARK    8  A    between atoms: C_8  and  C_9
REMARK    9  A    between atoms: C_9  and  C_10
REMARK   10  A    between atoms: C_10  and  C_11
REMARK   11  A    between atoms: C_11  and  C_12
REMARK   12  A    between atoms: C_12  and  C_13
REMARK   13  A    between atoms: C_13  and  C_14
REMARK   14  A    between atoms: C_14  and  O_15
REMARK   15  A    between atoms: O_15  and  C_16
REMARK   16  A    between atoms: C_16  and  O_18
REMARK   17  A    between atoms: O_18  and  C_19
REMARK   18  A    between atoms: C_19  and  C_20
REMARK   19  A    between atoms: C_19  and  C_29
REMARK   20  A    between atoms: C_20  and  N_21
REMARK   21  A    between atoms: C_29  and  P_30
REMARK   22  A    between atoms: P_30  and  O_33
REMARK                            x       y       z     vdW  Elec       q    Type
REMARK                         _______ _______ _______ _____ _____    ______ ____
ROOT
ATOM      1  C   UNL     1       7.221   5.810  19.064  0.00  0.00    +0.000 C 
ATOM      2  O   UNL     1       7.560   5.839  20.230  0.00  0.00    +0.000 OA
ENDROOT
BRANCH   1   3
ATOM      3  O   UNL     1       6.813   4.718  18.377  0.00  0.00    +0.000 OA
BRANCH   3   4
ATOM      4  C   UNL     1       5.443   4.655  17.945  0.00  0.00    +0.000 C 
BRANCH   4   5
ATOM      5  C   UNL     1       5.356   5.317  16.570  0.00  0.00    +0.000 C 
BRANCH   5   6
ATOM      6  P   UNL     1       6.048   4.333  15.191  0.00  0.00    +0.000 P 
ATOM      7  O   UNL     1       4.787   4.520  14.353  0.00  0.00    +0.000 OA
ATOM      8  O   UNL     1       7.197   5.337  15.116  0.00  0.00    +0.000 OA
BRANCH   6   9
ATOM      9  O   UNL     1       6.702   3.404  13.887  0.00  0.00    +0.000 OA
ATOM     10  H   UNL     1       7.127   2.706  14.428  0.00  0.00    +0.000 HD
ENDBRANCH   6   9
ENDBRANCH   5   6
ENDBRANCH   4   5
BRANCH   4  11
ATOM     11  C   UNL     1       4.419   5.269  18.901  0.00  0.00    +0.000 C 
BRANCH  11  12
ATOM     12  N   UNL     1       3.116   4.464  19.168  0.00  0.00    +0.000 N 
ATOM     13  C   UNL     1       2.210   4.264  17.939  0.00  0.00    +0.000 C 
ATOM     14  C   UNL     1       1.101   3.275  18.207  0.00  0.00    +0.000 C 
ATOM     15  C   UNL     1       1.067   2.952  19.696  0.00  0.00    +0.000 C 
ATOM     16  C   UNL     1       1.040   4.252  20.518  0.00  0.00    +0.000 C 
ATOM     17  C   UNL     1       2.275   5.116  20.260  0.00  0.00    +0.000 C 
ATOM     18  C   UNL     1       2.364   2.199  19.984  0.00  0.00    +0.000 C 
ATOM     19  C   UNL     1       3.575   3.085  19.699  0.00  0.00    +0.000 C 
ENDBRANCH  11  12
ENDBRANCH   4  11
ENDBRANCH   3   4
ENDBRANCH   1   3
BRANCH   1  20
ATOM     20  O   UNL     1       7.053   6.876  18.235  0.00  0.00    +0.000 OA
BRANCH  20  21
ATOM     21  C   UNL     1       8.215   7.618  17.835  0.00  0.00    +0.000 C 
BRANCH  21  22
ATOM     22  C   UNL     1       8.011   9.117  17.993  0.00  0.00    +0.000 C 
BRANCH  22  23
ATOM     23  C   UNL     1       9.054   9.707  18.950  0.00  0.00    +0.000 C 
BRANCH  23  24
ATOM     24  C   UNL     1       9.559  11.081  18.520  0.00  0.00    +0.000 C 
BRANCH  24  25
ATOM     25  C   UNL     1      11.009  11.310  18.927  0.00  0.00    +0.000 C 
BRANCH  25  26
ATOM     26  C   UNL     1      11.096  12.128  20.204  0.00  0.00    +0.000 C 
BRANCH  26  27
ATOM     27  C   UNL     1       9.868  13.016  20.329  0.00  0.00    +0.000 C 
BRANCH  27  28
ATOM     28  C   UNL     1      10.285  14.466  20.487  0.00  0.00    +0.000 C 
BRANCH  28  29
ATOM     29  C   UNL     1      10.944  14.968  19.212  0.00  0.00    +0.000 C 
BRANCH  29  30
ATOM     30  C   UNL     1      10.011  14.758  18.029  0.00  0.00    +0.000 C 
BRANCH  30  31
ATOM     31  C   UNL     1       8.759  15.609  18.184  0.00  0.00    +0.000 C 
BRANCH  31  32
ATOM     32  C   UNL     1       7.526  14.814  17.774  0.00  0.00    +0.000 C 
BRANCH  32  34
ATOM     33  C   UNL     1       5.021  14.827  17.758  0.00  0.00    +0.000 C 
ATOM     34  C   UNL     1       6.270  15.397  18.409  0.00  0.00    +0.000 C 
ENDBRANCH  32  34
ENDBRANCH  31  32
ENDBRANCH  30  31
ENDBRANCH  29  30
ENDBRANCH  28  29
ENDBRANCH  27  28
ENDBRANCH  26  27
ENDBRANCH  25  26
ENDBRANCH  24  25
ENDBRANCH  23  24
ENDBRANCH  22  23
ENDBRANCH  21  22
ENDBRANCH  20  21
ENDBRANCH   1  20
TORSDOF 21
ENDMDL
MODEL 5
REMARK VINA RESULT:      -6.3      2.078      2.728
REMARK  Name = 
REMARK  22 active torsions:
REMARK  status: ('A' for Active; 'I' for Inactive)
REMARK    1  A    between atoms: C_1  and  C_2
REMARK    2  A    between atoms: C_2  and  C_3
REMARK    3  A    between atoms: C_3  and  C_4
REMARK    4  A    between atoms: C_4  and  C_5
REMARK    5  A    between atoms: C_5  and  C_6
REMARK    6  A    between atoms: C_6  and  C_7
REMARK    7  A    between atoms: C_7  and  C_8
REMARK    8  A    between atoms: C_8  and  C_9
REMARK    9  A    between atoms: C_9  and  C_10
REMARK   10  A    between atoms: C_10  and  C_11
REMARK   11  A    between atoms: C_11  and  C_12
REMARK   12  A    between atoms: C_12  and  C_13
REMARK   13  A    between atoms: C_13  and  C_14
REMARK   14  A    between atoms: C_14  and  O_15
REMARK   15  A    between atoms: O_15  and  C_16
REMARK   16  A    between atoms: C_16  and  O_18
REMARK   17  A    between atoms: O_18  and  C_19
REMARK   18  A    between atoms: C_19  and  C_20
REMARK   19  A    between atoms: C_19  and  C_29
REMARK   20  A    between atoms: C_20  and  N_21
REMARK   21  A    between atoms: C_29  and  P_30
REMARK   22  A    between atoms: P_30  and  O_33
REMARK                            x       y       z     vdW  Elec       q    Type
REMARK                         _______ _______ _______ _____ _____    ______ ____
ROOT
ATOM      1  C   UNL     1       7.509   5.766  18.724  0.00  0.00    +0.000 C 
ATOM      2  O   UNL     1       8.053   4.685  18.843  0.00  0.00    +0.000 OA
ENDROOT
BRANCH   1   3
ATOM      3  O   UNL     1       6.176   5.993  18.714  0.00  0.00    +0.000 OA
BRANCH   3   4
ATOM      4  C   UNL     1       5.385   5.373  17.686  0.00  0.00    +0.000 C 
BRANCH   4   5
ATOM      5  C   UNL     1       5.901   5.871  16.336  0.00  0.00    +0.000 C 
BRANCH   5   6
ATOM      6  P   UNL     1       6.262   4.559  15.111  0.00  0.00    +0.000 P 
ATOM      7  O   UNL     1       4.811   4.086  15.110  0.00  0.00    +0.000 OA
ATOM      8  O   UNL     1       6.733   5.652  14.153  0.00  0.00    +0.000 OA
BRANCH   6   9
ATOM      9  O   UNL     1       6.602   3.320  13.955  0.00  0.00    +0.000 OA
ATOM     10  H   UNL     1       5.979   2.647  14.300  0.00  0.00    +0.000 HD
ENDBRANCH   6   9
ENDBRANCH   5   6
ENDBRANCH   4   5
BRANCH   4  11
ATOM     11  C   UNL     1       3.874   5.587  17.794  0.00  0.00    +0.000 C 
BRANCH  11  12
ATOM     12  N   UNL     1       3.069   4.582  18.663  0.00  0.00    +0.000 N 
ATOM     13  C   UNL     1       1.704   4.166  18.083  0.00  0.00    +0.000 C 
ATOM     14  C   UNL     1       1.092   3.013  18.842  0.00  0.00    +0.000 C 
ATOM     15  C   UNL     1       1.901   2.764  20.110  0.00  0.00    +0.000 C 
ATOM     16  C   UNL     1       2.083   4.079  20.888  0.00  0.00    +0.000 C 
ATOM     17  C   UNL     1       2.826   5.131  20.065  0.00  0.00    +0.000 C 
ATOM     18  C   UNL     1       3.264   2.264  19.638  0.00  0.00    +0.000 C 
ATOM     19  C   UNL     1       3.969   3.332  18.805  0.00  0.00    +0.000 C 
ENDBRANCH  11  12
ENDBRANCH   4  11
ENDBRANCH   3   4
ENDBRANCH   1   3
BRANCH   1  20
ATOM     20  O   UNL     1       8.112   6.986  18.705  0.00  0.00    +0.000 OA
BRANCH  20  21
ATOM     21  C   UNL     1       7.894   7.837  17.571  0.00  0.00    +0.000 C 
BRANCH  21  22
ATOM     22  C   UNL     1       8.126   9.301  17.908  0.00  0.00    +0.000 C 
BRANCH  22  23
ATOM     23  C   UNL     1       9.171   9.441  19.022  0.00  0.00    +0.000 C 
BRANCH  23  24
ATOM     24  C   UNL     1       9.665  10.873  19.210  0.00  0.00    +0.000 C 
BRANCH  24  25
ATOM     25  C   UNL     1       9.244  11.778  18.060  0.00  0.00    +0.000 C 
BRANCH  25  26
ATOM     26  C   UNL     1      10.295  12.840  17.786  0.00  0.00    +0.000 C 
BRANCH  26  27
ATOM     27  C   UNL     1      10.918  13.295  19.098  0.00  0.00    +0.000 C 
BRANCH  27  28
ATOM     28  C   UNL     1      10.198  14.526  19.618  0.00  0.00    +0.000 C 
BRANCH  28  29
ATOM     29  C   UNL     1      10.478  14.714  21.100  0.00  0.00    +0.000 C 
BRANCH  29  30
ATOM     30  C   UNL     1       9.475  13.921  21.923  0.00  0.00    +0.000 C 
BRANCH  30  31
ATOM     31  C   UNL     1       8.949  14.764  23.075  0.00  0.00    +0.000 C 
BRANCH  31  32
ATOM     32  C   UNL     1       8.133  13.904  24.031  0.00  0.00    +0.000 C 
BRANCH  32  34
ATOM     33  C   UNL     1       7.411  11.536  24.414  0.00  0.00    +0.000 C 
ATOM     34  C   UNL     1       8.525  12.437  23.908  0.00  0.00    +0.000 C 
ENDBRANCH  32  34
ENDBRANCH  31  32
ENDBRANCH  30  31
ENDBRANCH  29  30
ENDBRANCH  28  29
ENDBRANCH  27  28
ENDBRANCH  26  27
ENDBRANCH  25  26
ENDBRANCH  24  25
ENDBRANCH  23  24
ENDBRANCH  22  23
ENDBRANCH  21  22
ENDBRANCH  20  21
ENDBRANCH   1  20
TORSDOF 21
ENDMDL
MODEL 6
REMARK VINA RESULT:      -6.2      5.184      7.410
REMARK  Name = 
REMARK  22 active torsions:
REMARK  status: ('A' for Active; 'I' for Inactive)
REMARK    1  A    between atoms: C_1  and  C_2
REMARK    2  A    between atoms: C_2  and  C_3
REMARK    3  A    between atoms: C_3  and  C_4
REMARK    4  A    between atoms: C_4  and  C_5
REMARK    5  A    between atoms: C_5  and  C_6
REMARK    6  A    between atoms: C_6  and  C_7
REMARK    7  A    between atoms: C_7  and  C_8
REMARK    8  A    between atoms: C_8  and  C_9
REMARK    9  A    between atoms: C_9  and  C_10
REMARK   10  A    between atoms: C_10  and  C_11
REMARK   11  A    between atoms: C_11  and  C_12
REMARK   12  A    between atoms: C_12  and  C_13
REMARK   13  A    between atoms: C_13  and  C_14
REMARK   14  A    between atoms: C_14  and  O_15
REMARK   15  A    between atoms: O_15  and  C_16
REMARK   16  A    between atoms: C_16  and  O_18
REMARK   17  A    between atoms: O_18  and  C_19
REMARK   18  A    between atoms: C_19  and  C_20
REMARK   19  A    between atoms: C_19  and  C_29
REMARK   20  A    between atoms: C_20  and  N_21
REMARK   21  A    between atoms: C_29  and  P_30
REMARK   22  A    between atoms: P_30  and  O_33
REMARK                            x       y       z     vdW  Elec       q    Type
REMARK                         _______ _______ _______ _____ _____    ______ ____
ROOT
ATOM      1  C   UNL     1       4.093   6.912  16.905  0.00  0.00    +0.000 C 
ATOM      2  O   UNL     1       4.373   7.555  15.913  0.00  0.00    +0.000 OA
ENDROOT
BRANCH   1   3
ATOM      3  O   UNL     1       4.317   5.591  17.090  0.00  0.00    +0.000 OA
BRANCH   3   4
ATOM      4  C   UNL     1       4.896   5.164  18.335  0.00  0.00    +0.000 C 
BRANCH   4   5
ATOM      5  C   UNL     1       6.404   5.396  18.252  0.00  0.00    +0.000 C 
BRANCH   5   6
ATOM      6  P   UNL     1       7.136   5.152  16.592  0.00  0.00    +0.000 P 
ATOM      7  O   UNL     1       7.474   6.634  16.463  0.00  0.00    +0.000 OA
ATOM      8  O   UNL     1       8.123   4.173  17.225  0.00  0.00    +0.000 OA
BRANCH   6   9
ATOM      9  O   UNL     1       7.828   4.922  15.024  0.00  0.00    +0.000 OA
ATOM     10  H   UNL     1       7.037   4.540  14.590  0.00  0.00    +0.000 HD
ENDBRANCH   6   9
ENDBRANCH   5   6
ENDBRANCH   4   5
BRANCH   4  11
ATOM     11  C   UNL     1       4.598   3.719  18.742  0.00  0.00    +0.000 C 
BRANCH  11  12
ATOM     12  N   UNL     1       3.287   3.454  19.533  0.00  0.00    +0.000 N 
ATOM     13  C   UNL     1       3.451   2.593  20.799  0.00  0.00    +0.000 C 
ATOM     14  C   UNL     1       2.200   2.583  21.645  0.00  0.00    +0.000 C 
ATOM     15  C   UNL     1       1.064   3.234  20.866  0.00  0.00    +0.000 C 
ATOM     16  C   UNL     1       0.952   2.603  19.466  0.00  0.00    +0.000 C 
ATOM     17  C   UNL     1       2.235   2.786  18.654  0.00  0.00    +0.000 C 
ATOM     18  C   UNL     1       1.450   4.705  20.726  0.00  0.00    +0.000 C 
ATOM     19  C   UNL     1       2.743   4.848  19.926  0.00  0.00    +0.000 C 
ENDBRANCH  11  12
ENDBRANCH   4  11
ENDBRANCH   3   4
ENDBRANCH   1   3
BRANCH   1  20
ATOM     20  O   UNL     1       3.619   7.395  18.086  0.00  0.00    +0.000 OA
BRANCH  20  21
ATOM     21  C   UNL     1       2.258   7.850  18.138  0.00  0.00    +0.000 C 
BRANCH  21  22
ATOM     22  C   UNL     1       2.117   9.273  17.621  0.00  0.00    +0.000 C 
BRANCH  22  23
ATOM     23  C   UNL     1       0.996  10.010  18.364  0.00  0.00    +0.000 C 
BRANCH  23  24
ATOM     24  C   UNL     1       1.444  11.339  18.968  0.00  0.00    +0.000 C 
BRANCH  24  25
ATOM     25  C   UNL     1       0.561  11.763  20.134  0.00  0.00    +0.000 C 
BRANCH  25  26
ATOM     26  C   UNL     1      -0.820  11.141  20.030  0.00  0.00    +0.000 C 
BRANCH  26  27
ATOM     27  C   UNL     1      -1.771  12.113  19.348  0.00  0.00    +0.000 C 
BRANCH  27  28
ATOM     28  C   UNL     1      -2.894  11.354  18.666  0.00  0.00    +0.000 C 
BRANCH  28  29
ATOM     29  C   UNL     1      -2.559  11.118  17.202  0.00  0.00    +0.000 C 
BRANCH  29  30
ATOM     30  C   UNL     1      -3.798  11.327  16.346  0.00  0.00    +0.000 C 
BRANCH  30  31
ATOM     31  C   UNL     1      -5.056  11.202  17.193  0.00  0.00    +0.000 C 
BRANCH  31  32
ATOM     32  C   UNL     1      -5.860  12.494  17.139  0.00  0.00    +0.000 C 
BRANCH  32  34
ATOM     33  C   UNL     1      -6.688  11.645  19.346  0.00  0.00    +0.000 C 
ATOM     34  C   UNL     1      -6.358  12.881  18.526  0.00  0.00    +0.000 C 
ENDBRANCH  32  34
ENDBRANCH  31  32
ENDBRANCH  30  31
ENDBRANCH  29  30
ENDBRANCH  28  29
ENDBRANCH  27  28
ENDBRANCH  26  27
ENDBRANCH  25  26
ENDBRANCH  24  25
ENDBRANCH  23  24
ENDBRANCH  22  23
ENDBRANCH  21  22
ENDBRANCH  20  21
ENDBRANCH   1  20
TORSDOF 21
ENDMDL
MODEL 7
REMARK VINA RESULT:      -6.2      2.784      3.322
REMARK  Name = 
REMARK  22 active torsions:
REMARK  status: ('A' for Active; 'I' for Inactive)
REMARK    1  A    between atoms: C_1  and  C_2
REMARK    2  A    between atoms: C_2  and  C_3
REMARK    3  A    between atoms: C_3  and  C_4
REMARK    4  A    between atoms: C_4  and  C_5
REMARK    5  A    between atoms: C_5  and  C_6
REMARK    6  A    between atoms: C_6  and  C_7
REMARK    7  A    between atoms: C_7  and  C_8
REMARK    8  A    between atoms: C_8  and  C_9
REMARK    9  A    between atoms: C_9  and  C_10
REMARK   10  A    between atoms: C_10  and  C_11
REMARK   11  A    between atoms: C_11  and  C_12
REMARK   12  A    between atoms: C_12  and  C_13
REMARK   13  A    between atoms: C_13  and  C_14
REMARK   14  A    between atoms: C_14  and  O_15
REMARK   15  A    between atoms: O_15  and  C_16
REMARK   16  A    between atoms: C_16  and  O_18
REMARK   17  A    between atoms: O_18  and  C_19
REMARK   18  A    between atoms: C_19  and  C_20
REMARK   19  A    between atoms: C_19  and  C_29
REMARK   20  A    between atoms: C_20  and  N_21
REMARK   21  A    between atoms: C_29  and  P_30
REMARK   22  A    between atoms: P_30  and  O_33
REMARK                            x       y       z     vdW  Elec       q    Type
REMARK                         _______ _______ _______ _____ _____    ______ ____
ROOT
ATOM      1  C   UNL     1       7.461   5.983  18.255  0.00  0.00    +0.000 C 
ATOM      2  O   UNL     1       7.855   4.881  18.580  0.00  0.00    +0.000 OA
ENDROOT
BRANCH   1   3
ATOM      3  O   UNL     1       6.171   6.382  18.187  0.00  0.00    +0.000 OA
BRANCH   3   4
ATOM      4  C   UNL     1       5.256   5.608  17.393  0.00  0.00    +0.000 C 
BRANCH   4   5
ATOM      5  C   UNL     1       5.460   6.001  15.930  0.00  0.00    +0.000 C 
BRANCH   5   6
ATOM      6  P   UNL     1       6.011   4.645  14.831  0.00  0.00    +0.000 P 
ATOM      7  O   UNL     1       7.426   5.209  14.754  0.00  0.00    +0.000 OA
ATOM      8  O   UNL     1       5.616   3.660  15.931  0.00  0.00    +0.000 OA
BRANCH   6   9
ATOM      9  O   UNL     1       6.531   3.364  13.794  0.00  0.00    +0.000 OA
ATOM     10  H   UNL     1       5.756   2.776  13.917  0.00  0.00    +0.000 HD
ENDBRANCH   6   9
ENDBRANCH   5   6
ENDBRANCH   4   5
BRANCH   4  11
ATOM     11  C   UNL     1       3.780   5.726  17.779  0.00  0.00    +0.000 C 
BRANCH  11  12
ATOM     12  N   UNL     1       3.106   4.482  18.420  0.00  0.00    +0.000 N 
ATOM     13  C   UNL     1       2.499   3.481  17.420  0.00  0.00    +0.000 C 
ATOM     14  C   UNL     1       2.087   2.191  18.086  0.00  0.00    +0.000 C 
ATOM     15  C   UNL     1       2.173   2.359  19.599  0.00  0.00    +0.000 C 
ATOM     16  C   UNL     1       1.419   3.628  20.034  0.00  0.00    +0.000 C 
ATOM     17  C   UNL     1       2.005   4.887  19.393  0.00  0.00    +0.000 C 
ATOM     18  C   UNL     1       3.659   2.523  19.911  0.00  0.00    +0.000 C 
ATOM     19  C   UNL     1       4.213   3.779  19.241  0.00  0.00    +0.000 C 
ENDBRANCH  11  12
ENDBRANCH   4  11
ENDBRANCH   3   4
ENDBRANCH   1   3
BRANCH   1  20
ATOM     20  O   UNL     1       8.223   7.085  18.015  0.00  0.00    +0.000 OA
BRANCH  20  21
ATOM     21  C   UNL     1       7.562   8.351  17.867  0.00  0.00    +0.000 C 
BRANCH  21  22
ATOM     22  C   UNL     1       8.552   9.505  17.835  0.00  0.00    +0.000 C 
BRANCH  22  23
ATOM     23  C   UNL     1       9.018   9.858  19.252  0.00  0.00    +0.000 C 
BRANCH  23  24
ATOM     24  C   UNL     1      10.022  11.008  19.289  0.00  0.00    +0.000 C 
BRANCH  24  25
ATOM     25  C   UNL     1      10.173  11.591  20.687  0.00  0.00    +0.000 C 
BRANCH  25  26
ATOM     26  C   UNL     1       9.967  13.096  20.678  0.00  0.00    +0.000 C 
BRANCH  26  27
ATOM     27  C   UNL     1       8.494  13.413  20.885  0.00  0.00    +0.000 C 
BRANCH  27  28
ATOM     28  C   UNL     1       8.130  13.271  22.351  0.00  0.00    +0.000 C 
BRANCH  28  29
ATOM     29  C   UNL     1       8.816  14.351  23.172  0.00  0.00    +0.000 C 
BRANCH  29  30
ATOM     30  C   UNL     1       7.792  15.091  24.016  0.00  0.00    +0.000 C 
BRANCH  30  31
ATOM     31  C   UNL     1       7.584  14.379  25.345  0.00  0.00    +0.000 C 
BRANCH  31  32
ATOM     32  C   UNL     1       6.101  14.135  25.589  0.00  0.00    +0.000 C 
BRANCH  32  34
ATOM     33  C   UNL     1       7.207  12.400  27.016  0.00  0.00    +0.000 C 
ATOM     34  C   UNL     1       5.889  12.891  26.442  0.00  0.00    +0.000 C 
ENDBRANCH  32  34
ENDBRANCH  31  32
ENDBRANCH  30  31
ENDBRANCH  29  30
ENDBRANCH  28  29
ENDBRANCH  27  28
ENDBRANCH  26  27
ENDBRANCH  25  26
ENDBRANCH  24  25
ENDBRANCH  23  24
ENDBRANCH  22  23
ENDBRANCH  21  22
ENDBRANCH  20  21
ENDBRANCH   1  20
TORSDOF 21
ENDMDL
MODEL 8
REMARK VINA RESULT:      -6.2      5.025      7.129
REMARK  Name = 
REMARK  22 active torsions:
REMARK  status: ('A' for Active; 'I' for Inactive)
REMARK    1  A    between atoms: C_1  and  C_2
REMARK    2  A    between atoms: C_2  and  C_3
REMARK    3  A    between atoms: C_3  and  C_4
REMARK    4  A    between atoms: C_4  and  C_5
REMARK    5  A    between atoms: C_5  and  C_6
REMARK    6  A    between atoms: C_6  and  C_7
REMARK    7  A    between atoms: C_7  and  C_8
REMARK    8  A    between atoms: C_8  and  C_9
REMARK    9  A    between atoms: C_9  and  C_10
REMARK   10  A    between atoms: C_10  and  C_11
REMARK   11  A    between atoms: C_11  and  C_12
REMARK   12  A    between atoms: C_12  and  C_13
REMARK   13  A    between atoms: C_13  and  C_14
REMARK   14  A    between atoms: C_14  and  O_15
REMARK   15  A    between atoms: O_15  and  C_16
REMARK   16  A    between atoms: C_16  and  O_18
REMARK   17  A    between atoms: O_18  and  C_19
REMARK   18  A    between atoms: C_19  and  C_20
REMARK   19  A    between atoms: C_19  and  C_29
REMARK   20  A    between atoms: C_20  and  N_21
REMARK   21  A    between atoms: C_29  and  P_30
REMARK   22  A    between atoms: P_30  and  O_33
REMARK                            x       y       z     vdW  Elec       q    Type
REMARK                         _______ _______ _______ _____ _____    ______ ____
ROOT
ATOM      1  C   UNL     1       2.540   7.959  18.164  0.00  0.00    +0.000 C 
ATOM      2  O   UNL     1       2.285   7.600  19.296  0.00  0.00    +0.000 OA
ENDROOT
BRANCH   1   3
ATOM      3  O   UNL     1       3.131   7.213  17.203  0.00  0.00    +0.000 OA
BRANCH   3   4
ATOM      4  C   UNL     1       4.110   6.237  17.600  0.00  0.00    +0.000 C 
BRANCH   4   5
ATOM      5  C   UNL     1       5.455   6.661  17.012  0.00  0.00    +0.000 C 
BRANCH   5   6
ATOM      6  P   UNL     1       6.778   5.400  17.116  0.00  0.00    +0.000 P 
ATOM      7  O   UNL     1       7.498   5.976  15.900  0.00  0.00    +0.000 OA
ATOM      8  O   UNL     1       7.085   5.908  18.523  0.00  0.00    +0.000 OA
BRANCH   6   9
ATOM      9  O   UNL     1       8.028   4.209  17.214  0.00  0.00    +0.000 OA
ATOM     10  H   UNL     1       8.705   4.769  17.650  0.00  0.00    +0.000 HD
ENDBRANCH   6   9
ENDBRANCH   5   6
ENDBRANCH   4   5
BRANCH   4  11
ATOM     11  C   UNL     1       3.792   4.789  17.224  0.00  0.00    +0.000 C 
BRANCH  11  12
ATOM     12  N   UNL     1       3.001   3.938  18.255  0.00  0.00    +0.000 N 
ATOM     13  C   UNL     1       1.470   4.092  18.191  0.00  0.00    +0.000 C 
ATOM     14  C   UNL     1       0.760   3.064  19.038  0.00  0.00    +0.000 C 
ATOM     15  C   UNL     1       1.783   2.331  19.898  0.00  0.00    +0.000 C 
ATOM     16  C   UNL     1       2.668   3.344  20.646  0.00  0.00    +0.000 C 
ATOM     17  C   UNL     1       3.437   4.250  19.682  0.00  0.00    +0.000 C 
ATOM     18  C   UNL     1       2.644   1.531  18.923  0.00  0.00    +0.000 C 
ATOM     19  C   UNL     1       3.382   2.466  17.967  0.00  0.00    +0.000 C 
ENDBRANCH  11  12
ENDBRANCH   4  11
ENDBRANCH   3   4
ENDBRANCH   1   3
BRANCH   1  20
ATOM     20  O   UNL     1       2.177   9.132  17.577  0.00  0.00    +0.000 OA
BRANCH  20  21
ATOM     21  C   UNL     1       0.896   9.690  17.904  0.00  0.00    +0.000 C 
BRANCH  21  22
ATOM     22  C   UNL     1       1.020  10.871  18.855  0.00  0.00    +0.000 C 
BRANCH  22  23
ATOM     23  C   UNL     1       0.130  10.668  20.088  0.00  0.00    +0.000 C 
BRANCH  23  24
ATOM     24  C   UNL     1       0.900  10.186  21.315  0.00  0.00    +0.000 C 
BRANCH  24  25
ATOM     25  C   UNL     1       0.035   9.333  22.233  0.00  0.00    +0.000 C 
BRANCH  25  26
ATOM     26  C   UNL     1      -0.470  10.141  23.416  0.00  0.00    +0.000 C 
BRANCH  26  27
ATOM     27  C   UNL     1      -1.683  10.957  22.999  0.00  0.00    +0.000 C 
BRANCH  27  28
ATOM     28  C   UNL     1      -1.350  12.438  23.022  0.00  0.00    +0.000 C 
BRANCH  28  29
ATOM     29  C   UNL     1      -2.499  13.229  23.625  0.00  0.00    +0.000 C 
BRANCH  29  30
ATOM     30  C   UNL     1      -3.092  14.160  22.580  0.00  0.00    +0.000 C 
BRANCH  30  31
ATOM     31  C   UNL     1      -2.585  13.793  21.193  0.00  0.00    +0.000 C 
BRANCH  31  32
ATOM     32  C   UNL     1      -3.720  13.232  20.346  0.00  0.00    +0.000 C 
BRANCH  32  34
ATOM     33  C   UNL     1      -4.262  11.728  18.418  0.00  0.00    +0.000 C 
ATOM     34  C   UNL     1      -3.228  12.086  19.471  0.00  0.00    +0.000 C 
ENDBRANCH  32  34
ENDBRANCH  31  32
ENDBRANCH  30  31
ENDBRANCH  29  30
ENDBRANCH  28  29
ENDBRANCH  27  28
ENDBRANCH  26  27
ENDBRANCH  25  26
ENDBRANCH  24  25
ENDBRANCH  23  24
ENDBRANCH  22  23
ENDBRANCH  21  22
ENDBRANCH  20  21
ENDBRANCH   1  20
TORSDOF 21
ENDMDL
MODEL 9
REMARK VINA RESULT:      -6.2      4.154      6.559
REMARK  Name = 
REMARK  22 active torsions:
REMARK  status: ('A' for Active; 'I' for Inactive)
REMARK    1  A    between atoms: C_1  and  C_2
REMARK    2  A    between atoms: C_2  and  C_3
REMARK    3  A    between atoms: C_3  and  C_4
REMARK    4  A    between atoms: C_4  and  C_5
REMARK    5  A    between atoms: C_5  and  C_6
REMARK    6  A    between atoms: C_6  and  C_7
REMARK    7  A    between atoms: C_7  and  C_8
REMARK    8  A    between atoms: C_8  and  C_9
REMARK    9  A    between atoms: C_9  and  C_10
REMARK   10  A    between atoms: C_10  and  C_11
REMARK   11  A    between atoms: C_11  and  C_12
REMARK   12  A    between atoms: C_12  and  C_13
REMARK   13  A    between atoms: C_13  and  C_14
REMARK   14  A    between atoms: C_14  and  O_15
REMARK   15  A    between atoms: O_15  and  C_16
REMARK   16  A    between atoms: C_16  and  O_18
REMARK   17  A    between atoms: O_18  and  C_19
REMARK   18  A    between atoms: C_19  and  C_20
REMARK   19  A    between atoms: C_19  and  C_29
REMARK   20  A    between atoms: C_20  and  N_21
REMARK   21  A    between atoms: C_29  and  P_30
REMARK   22  A    between atoms: P_30  and  O_33
REMARK                            x       y       z     vdW  Elec       q    Type
REMARK                         _______ _______ _______ _____ _____    ______ ____
ROOT
ATOM      1  C   UNL     1       3.074   7.703  18.112  0.00  0.00    +0.000 C 
ATOM      2  O   UNL     1       2.579   7.274  19.136  0.00  0.00    +0.000 OA
ENDROOT
BRANCH   1   3
ATOM      3  O   UNL     1       4.147   7.191  17.468  0.00  0.00    +0.000 OA
BRANCH   3   4
ATOM      4  C   UNL     1       4.495   5.816  17.705  0.00  0.00    +0.000 C 
BRANCH   4   5
ATOM      5  C   UNL     1       5.897   5.586  17.143  0.00  0.00    +0.000 C 
BRANCH   5   6
ATOM      6  P   UNL     1       7.253   6.354  18.103  0.00  0.00    +0.000 P 
ATOM      7  O   UNL     1       7.782   4.994  18.548  0.00  0.00    +0.000 OA
ATOM      8  O   UNL     1       7.739   7.001  16.807  0.00  0.00    +0.000 OA
BRANCH   6   9
ATOM      9  O   UNL     1       8.534   7.079  19.010  0.00  0.00    +0.000 OA
ATOM     10  H   UNL     1       7.983   7.472  19.719  0.00  0.00    +0.000 HD
ENDBRANCH   6   9
ENDBRANCH   5   6
ENDBRANCH   4   5
BRANCH   4  11
ATOM     11  C   UNL     1       3.517   4.779  17.147  0.00  0.00    +0.000 C 
BRANCH  11  12
ATOM     12  N   UNL     1       2.868   3.791  18.156  0.00  0.00    +0.000 N 
ATOM     13  C   UNL     1       3.034   2.300  17.807  0.00  0.00    +0.000 C 
ATOM     14  C   UNL     1       2.605   1.401  18.940  0.00  0.00    +0.000 C 
ATOM     15  C   UNL     1       1.905   2.237  20.005  0.00  0.00    +0.000 C 
ATOM     16  C   UNL     1       0.807   3.102  19.361  0.00  0.00    +0.000 C 
ATOM     17  C   UNL     1       1.377   4.064  18.318  0.00  0.00    +0.000 C 
ATOM     18  C   UNL     1       2.983   3.144  20.591  0.00  0.00    +0.000 C 
ATOM     19  C   UNL     1       3.542   4.078  19.519  0.00  0.00    +0.000 C 
ENDBRANCH  11  12
ENDBRANCH   4  11
ENDBRANCH   3   4
ENDBRANCH   1   3
BRANCH   1  20
ATOM     20  O   UNL     1       2.587   8.701  17.325  0.00  0.00    +0.000 OA
BRANCH  20  21
ATOM     21  C   UNL     1       1.377   9.358  17.728  0.00  0.00    +0.000 C 
BRANCH  21  22
ATOM     22  C   UNL     1       1.650  10.513  18.679  0.00  0.00    +0.000 C 
BRANCH  22  23
ATOM     23  C   UNL     1       2.382  11.649  17.954  0.00  0.00    +0.000 C 
BRANCH  23  24
ATOM     24  C   UNL     1       2.652  12.858  18.846  0.00  0.00    +0.000 C 
BRANCH  24  25
ATOM     25  C   UNL     1       1.975  14.118  18.323  0.00  0.00    +0.000 C 
BRANCH  25  26
ATOM     26  C   UNL     1       1.142  14.782  19.405  0.00  0.00    +0.000 C 
BRANCH  26  27
ATOM     27  C   UNL     1      -0.330  14.729  19.025  0.00  0.00    +0.000 C 
BRANCH  27  28
ATOM     28  C   UNL     1      -0.901  13.358  19.336  0.00  0.00    +0.000 C 
BRANCH  28  29
ATOM     29  C   UNL     1      -1.227  12.617  18.050  0.00  0.00    +0.000 C 
BRANCH  29  30
ATOM     30  C   UNL     1      -2.462  11.753  18.247  0.00  0.00    +0.000 C 
BRANCH  30  31
ATOM     31  C   UNL     1      -2.078  10.281  18.298  0.00  0.00    +0.000 C 
BRANCH  31  32
ATOM     32  C   UNL     1      -2.333   9.621  16.949  0.00  0.00    +0.000 C 
BRANCH  32  34
ATOM     33  C   UNL     1      -3.097  10.315  14.666  0.00  0.00    +0.000 C 
ATOM     34  C   UNL     1      -3.380  10.394  16.157  0.00  0.00    +0.000 C 
ENDBRANCH  32  34
ENDBRANCH  31  32
ENDBRANCH  30  31
ENDBRANCH  29  30
ENDBRANCH  28  29
ENDBRANCH  27  28
ENDBRANCH  26  27
ENDBRANCH  25  26
ENDBRANCH  24  25
ENDBRANCH  23  24
ENDBRANCH  22  23
ENDBRANCH  21  22
ENDBRANCH  20  21
ENDBRANCH   1  20
TORSDOF 21
ENDMDL
