MODEL 1
REMARK VINA RESULT:      -8.0      0.000      0.000
REMARK  Name = 
REMARK  3 active torsions:
REMARK  status: ('A' for Active; 'I' for Inactive)
REMARK    1  A    between atoms: N_17  and  C_18
REMARK    2  A    between atoms: C_18  and  C_19
REMARK    3  A    between atoms: C_19  and  C_20
REMARK                            x       y       z     vdW  Elec       q    Type
REMARK                         _______ _______ _______ _____ _____    ______ ____
ROOT
ATOM      1  O   UNL     1       2.130   5.508  20.274  0.00  0.00    +0.000 OA
ATOM      2  C   UNL     1       2.303   6.402  19.446  0.00  0.00    +0.000 C 
ATOM      3  N   UNL     1       2.056   7.734  19.744  0.00  0.00    +0.000 N 
ATOM      4  C   UNL     1       1.695   8.110  21.104  0.00  0.00    +0.000 C 
ATOM      5  C   UNL     1       0.555   9.107  20.943  0.00  0.00    +0.000 C 
ATOM      6  C   UNL     1       0.911   9.818  19.652  0.00  0.00    +0.000 C 
ATOM      7  C   UNL     1       1.518   8.713  18.800  0.00  0.00    +0.000 C 
ATOM      8  N   UNL     1       2.763   6.120  18.160  0.00  0.00    +0.000 N 
ATOM      9  C   UNL     1       2.734   4.736  17.679  0.00  0.00    +0.000 C 
ATOM     10  C   UNL     1       4.134   4.139  17.510  0.00  0.00    +0.000 C 
ATOM     11  C   UNL     1       5.040   5.083  16.704  0.00  0.00    +0.000 C 
ATOM     12  C   UNL     1       5.054   6.484  17.293  0.00  0.00    +0.000 C 
ATOM     13  C   UNL     1       5.781   6.542  18.647  0.00  0.00    +0.000 C 
ATOM     14  C   UNL     1       6.812   5.444  18.898  0.00  0.00    +0.000 C 
ATOM     15  C   UNL     1       7.277   4.657  17.689  0.00  0.00    +0.000 C 
ATOM     16  O   UNL     1       8.365   4.082  17.709  0.00  0.00    +0.000 OA
ATOM     17  N   UNL     1       6.426   4.622  16.597  0.00  0.00    +0.000 N 
ATOM     18  C   UNL     1       3.630   7.022  17.407  0.00  0.00    +0.000 C 
ENDROOT
BRANCH  17  19
ATOM     19  C   UNL     1       6.976   4.277  15.281  0.00  0.00    +0.000 C 
BRANCH  19  20
ATOM     20  C   UNL     1       6.137   4.845  14.121  0.00  0.00    +0.000 C 
BRANCH  20  21
ATOM     21  C   UNL     1       6.022   3.867  12.977  0.00  0.00    +0.000 A 
ATOM     22  C   UNL     1       4.768   3.512  12.463  0.00  0.00    +0.000 A 
ATOM     23  C   UNL     1       4.665   2.574  11.434  0.00  0.00    +0.000 A 
ATOM     24  C   UNL     1       5.812   1.980  10.910  0.00  0.00    +0.000 A 
ATOM     25  C   UNL     1       7.066   2.332  11.409  0.00  0.00    +0.000 A 
ATOM     26  C   UNL     1       7.171   3.271  12.438  0.00  0.00    +0.000 A 
ENDBRANCH  20  21
ENDBRANCH  19  20
ENDBRANCH  17  19
TORSDOF 3
ENDMDL
MODEL 2
REMARK VINA RESULT:      -7.9      3.429      6.343
REMARK  Name = 
REMARK  3 active torsions:
REMARK  status: ('A' for Active; 'I' for Inactive)
REMARK    1  A    between atoms: N_17  and  C_18
REMARK    2  A    between atoms: C_18  and  C_19
REMARK    3  A    between atoms: C_19  and  C_20
REMARK                            x       y       z     vdW  Elec       q    Type
REMARK                         _______ _______ _______ _____ _____    ______ ____
ROOT
ATOM      1  O   UNL     1       1.521   4.797  17.625  0.00  0.00    +0.000 OA
ATOM      2  C   UNL     1       2.254   4.759  18.613  0.00  0.00    +0.000 C 
ATOM      3  N   UNL     1       2.140   3.763  19.571  0.00  0.00    +0.000 N 
ATOM      4  C   UNL     1       1.211   2.663  19.356  0.00  0.00    +0.000 C 
ATOM      5  C   UNL     1       0.521   2.468  20.700  0.00  0.00    +0.000 C 
ATOM      6  C   UNL     1       1.612   2.821  21.692  0.00  0.00    +0.000 C 
ATOM      7  C   UNL     1       2.353   3.959  21.005  0.00  0.00    +0.000 C 
ATOM      8  N   UNL     1       3.247   5.718  18.817  0.00  0.00    +0.000 N 
ATOM      9  C   UNL     1       3.213   6.957  18.035  0.00  0.00    +0.000 C 
ATOM     10  C   UNL     1       4.364   7.053  17.028  0.00  0.00    +0.000 C 
ATOM     11  C   UNL     1       5.711   6.754  17.705  0.00  0.00    +0.000 C 
ATOM     12  C   UNL     1       5.679   5.431  18.454  0.00  0.00    +0.000 C 
ATOM     13  C   UNL     1       5.607   4.223  17.506  0.00  0.00    +0.000 C 
ATOM     14  C   UNL     1       6.141   4.452  16.093  0.00  0.00    +0.000 C 
ATOM     15  C   UNL     1       7.005   5.679  15.882  0.00  0.00    +0.000 C 
ATOM     16  O   UNL     1       7.801   5.718  14.944  0.00  0.00    +0.000 OA
ATOM     17  N   UNL     1       6.843   6.723  16.777  0.00  0.00    +0.000 N 
ATOM     18  C   UNL     1       4.526   5.419  19.453  0.00  0.00    +0.000 C 
ENDROOT
BRANCH  17  19
ATOM     19  C   UNL     1       7.915   7.717  16.907  0.00  0.00    +0.000 C 
BRANCH  19  20
ATOM     20  C   UNL     1       8.192   8.102  18.373  0.00  0.00    +0.000 C 
BRANCH  20  21
ATOM     21  C   UNL     1       8.643   9.536  18.503  0.00  0.00    +0.000 A 
ATOM     22  C   UNL     1       9.478   9.930  19.558  0.00  0.00    +0.000 A 
ATOM     23  C   UNL     1       9.856  11.267  19.699  0.00  0.00    +0.000 A 
ATOM     24  C   UNL     1       9.402  12.222  18.791  0.00  0.00    +0.000 A 
ATOM     25  C   UNL     1       8.577  11.840  17.734  0.00  0.00    +0.000 A 
ATOM     26  C   UNL     1       8.198  10.503  17.591  0.00  0.00    +0.000 A 
ENDBRANCH  20  21
ENDBRANCH  19  20
ENDBRANCH  17  19
TORSDOF 3
ENDMDL
MODEL 3
REMARK VINA RESULT:      -6.8      5.291      8.223
REMARK  Name = 
REMARK  3 active torsions:
REMARK  status: ('A' for Active; 'I' for Inactive)
REMARK    1  A    between atoms: N_17  and  C_18
REMARK    2  A    between atoms: C_18  and  C_19
REMARK    3  A    between atoms: C_19  and  C_20
REMARK                            x       y       z     vdW  Elec       q    Type
REMARK                         _______ _______ _______ _____ _____    ______ ____
ROOT
ATOM      1  O   UNL     1      -0.412  13.077  23.252  0.00  0.00    +0.000 OA
ATOM      2  C   UNL     1      -1.316  12.761  22.479  0.00  0.00    +0.000 C 
ATOM      3  N   UNL     1      -2.451  13.542  22.320  0.00  0.00    +0.000 N 
ATOM      4  C   UNL     1      -2.535  14.831  22.993  0.00  0.00    +0.000 C 
ATOM      5  C   UNL     1      -3.951  14.886  23.553  0.00  0.00    +0.000 C 
ATOM      6  C   UNL     1      -4.751  14.120  22.518  0.00  0.00    +0.000 C 
ATOM      7  C   UNL     1      -3.796  13.018  22.082  0.00  0.00    +0.000 C 
ATOM      8  N   UNL     1      -1.241  11.597  21.713  0.00  0.00    +0.000 N 
ATOM      9  C   UNL     1      -0.247  10.578  22.060  0.00  0.00    +0.000 C 
ATOM     10  C   UNL     1       0.863  10.453  21.012  0.00  0.00    +0.000 C 
ATOM     11  C   UNL     1       0.272  10.324  19.599  0.00  0.00    +0.000 C 
ATOM     12  C   UNL     1      -0.711  11.443  19.300  0.00  0.00    +0.000 C 
ATOM     13  C   UNL     1      -0.018  12.807  19.152  0.00  0.00    +0.000 C 
ATOM     14  C   UNL     1       1.456  12.766  18.755  0.00  0.00    +0.000 C 
ATOM     15  C   UNL     1       1.975  11.457  18.196  0.00  0.00    +0.000 C 
ATOM     16  O   UNL     1       2.975  11.447  17.477  0.00  0.00    +0.000 OA
ATOM     17  N   UNL     1       1.281  10.309  18.538  0.00  0.00    +0.000 N 
ATOM     18  C   UNL     1      -1.799  11.490  20.369  0.00  0.00    +0.000 C 
ENDROOT
BRANCH  17  19
ATOM     19  C   UNL     1       1.442   9.109  17.707  0.00  0.00    +0.000 C 
BRANCH  19  20
ATOM     20  C   UNL     1       2.697   8.297  18.076  0.00  0.00    +0.000 C 
BRANCH  20  21
ATOM     21  C   UNL     1       2.345   6.975  18.713  0.00  0.00    +0.000 A 
ATOM     22  C   UNL     1       2.061   6.895  20.083  0.00  0.00    +0.000 A 
ATOM     23  C   UNL     1       1.780   5.662  20.676  0.00  0.00    +0.000 A 
ATOM     24  C   UNL     1       1.781   4.499  19.908  0.00  0.00    +0.000 A 
ATOM     25  C   UNL     1       2.054   4.569  18.543  0.00  0.00    +0.000 A 
ATOM     26  C   UNL     1       2.336   5.800  17.948  0.00  0.00    +0.000 A 
ENDBRANCH  20  21
ENDBRANCH  19  20
ENDBRANCH  17  19
TORSDOF 3
ENDMDL
MODEL 4
REMARK VINA RESULT:      -6.5      4.884      8.280
REMARK  Name = 
REMARK  3 active torsions:
REMARK  status: ('A' for Active; 'I' for Inactive)
REMARK    1  A    between atoms: N_17  and  C_18
REMARK    2  A    between atoms: C_18  and  C_19
REMARK    3  A    between atoms: C_19  and  C_20
REMARK                            x       y       z     vdW  Elec       q    Type
REMARK                         _______ _______ _______ _____ _____    ______ ____
ROOT
ATOM      1  O   UNL     1      -0.965  13.131  23.449  0.00  0.00    +0.000 OA
ATOM      2  C   UNL     1      -1.741  12.772  22.563  0.00  0.00    +0.000 C 
ATOM      3  N   UNL     1      -2.953  13.409  22.349  0.00  0.00    +0.000 N 
ATOM      4  C   UNL     1      -3.277  14.609  23.109  0.00  0.00    +0.000 C 
ATOM      5  C   UNL     1      -4.732  14.428  23.521  0.00  0.00    +0.000 C 
ATOM      6  C   UNL     1      -5.320  13.662  22.352  0.00  0.00    +0.000 C 
ATOM      7  C   UNL     1      -4.185  12.738  21.933  0.00  0.00    +0.000 C 
ATOM      8  N   UNL     1      -1.435  11.702  21.722  0.00  0.00    +0.000 N 
ATOM      9  C   UNL     1      -0.345  10.794  22.089  0.00  0.00    +0.000 C 
ATOM     10  C   UNL     1       0.863  10.912  21.155  0.00  0.00    +0.000 C 
ATOM     11  C   UNL     1       0.429  10.836  19.683  0.00  0.00    +0.000 C 
ATOM     12  C   UNL     1      -0.669  11.840  19.371  0.00  0.00    +0.000 C 
ATOM     13  C   UNL     1      -0.161  13.291  19.403  0.00  0.00    +0.000 C 
ATOM     14  C   UNL     1       1.335  13.479  19.159  0.00  0.00    +0.000 C 
ATOM     15  C   UNL     1       2.080  12.305  18.556  0.00  0.00    +0.000 C 
ATOM     16  O   UNL     1       3.133  12.491  17.946  0.00  0.00    +0.000 OA
ATOM     17  N   UNL     1       1.523  11.050  18.734  0.00  0.00    +0.000 N 
ATOM     18  C   UNL     1      -1.846  11.646  20.322  0.00  0.00    +0.000 C 
ENDROOT
BRANCH  17  19
ATOM     19  C   UNL     1       1.925   9.962  17.833  0.00  0.00    +0.000 C 
BRANCH  19  20
ATOM     20  C   UNL     1       1.433   8.583  18.312  0.00  0.00    +0.000 C 
BRANCH  20  21
ATOM     21  C   UNL     1       2.552   7.572  18.360  0.00  0.00    +0.000 A 
ATOM     22  C   UNL     1       3.593   7.612  17.422  0.00  0.00    +0.000 A 
ATOM     23  C   UNL     1       4.602   6.647  17.444  0.00  0.00    +0.000 A 
ATOM     24  C   UNL     1       4.581   5.633  18.400  0.00  0.00    +0.000 A 
ATOM     25  C   UNL     1       3.554   5.589  19.343  0.00  0.00    +0.000 A 
ATOM     26  C   UNL     1       2.544   6.553  19.323  0.00  0.00    +0.000 A 
ENDBRANCH  20  21
ENDBRANCH  19  20
ENDBRANCH  17  19
TORSDOF 3
ENDMDL
MODEL 5
REMARK VINA RESULT:      -6.5      4.242      7.503
REMARK  Name = 
REMARK  3 active torsions:
REMARK  status: ('A' for Active; 'I' for Inactive)
REMARK    1  A    between atoms: N_17  and  C_18
REMARK    2  A    between atoms: C_18  and  C_19
REMARK    3  A    between atoms: C_19  and  C_20
REMARK                            x       y       z     vdW  Elec       q    Type
REMARK                         _______ _______ _______ _____ _____    ______ ____
ROOT
ATOM      1  O   UNL     1      -2.587  13.430  20.687  0.00  0.00    +0.000 OA
ATOM      2  C   UNL     1      -1.605  13.796  20.043  0.00  0.00    +0.000 C 
ATOM      3  N   UNL     1      -0.975  15.006  20.293  0.00  0.00    +0.000 N 
ATOM      4  C   UNL     1      -1.406  15.820  21.422  0.00  0.00    +0.000 C 
ATOM      5  C   UNL     1      -1.448  17.243  20.882  0.00  0.00    +0.000 C 
ATOM      6  C   UNL     1      -0.315  17.254  19.874  0.00  0.00    +0.000 C 
ATOM      7  C   UNL     1      -0.372  15.859  19.268  0.00  0.00    +0.000 C 
ATOM      8  N   UNL     1      -1.068  13.007  19.026  0.00  0.00    +0.000 N 
ATOM      9  C   UNL     1      -1.858  11.891  18.497  0.00  0.00    +0.000 C 
ATOM     10  C   UNL     1      -1.267  10.525  18.858  0.00  0.00    +0.000 C 
ATOM     11  C   UNL     1       0.232  10.469  18.523  0.00  0.00    +0.000 C 
ATOM     12  C   UNL     1       0.987  11.631  19.147  0.00  0.00    +0.000 C 
ATOM     13  C   UNL     1       1.072  11.520  20.678  0.00  0.00    +0.000 C 
ATOM     14  C   UNL     1       0.944  10.110  21.252  0.00  0.00    +0.000 C 
ATOM     15  C   UNL     1       1.121   8.960  20.281  0.00  0.00    +0.000 C 
ATOM     16  O   UNL     1       1.457   7.850  20.694  0.00  0.00    +0.000 OA
ATOM     17  N   UNL     1       0.883   9.227  18.943  0.00  0.00    +0.000 N 
ATOM     18  C   UNL     1       0.359  12.956  18.724  0.00  0.00    +0.000 C 
ENDROOT
BRANCH  17  19
ATOM     19  C   UNL     1       1.448   8.326  17.930  0.00  0.00    +0.000 C 
BRANCH  19  20
ATOM     20  C   UNL     1       2.984   8.240  18.004  0.00  0.00    +0.000 C 
BRANCH  20  21
ATOM     21  C   UNL     1       3.490   6.873  17.613  0.00  0.00    +0.000 A 
ATOM     22  C   UNL     1       2.813   5.716  18.021  0.00  0.00    +0.000 A 
ATOM     23  C   UNL     1       3.310   4.453  17.694  0.00  0.00    +0.000 A 
ATOM     24  C   UNL     1       4.489   4.333  16.959  0.00  0.00    +0.000 A 
ATOM     25  C   UNL     1       5.167   5.478  16.542  0.00  0.00    +0.000 A 
ATOM     26  C   UNL     1       4.670   6.742  16.868  0.00  0.00    +0.000 A 
ENDBRANCH  20  21
ENDBRANCH  19  20
ENDBRANCH  17  19
TORSDOF 3
ENDMDL
MODEL 6
REMARK VINA RESULT:      -6.5      4.298      7.584
REMARK  Name = 
REMARK  3 active torsions:
REMARK  status: ('A' for Active; 'I' for Inactive)
REMARK    1  A    between atoms: N_17  and  C_18
REMARK    2  A    between atoms: C_18  and  C_19
REMARK    3  A    between atoms: C_19  and  C_20
REMARK                            x       y       z     vdW  Elec       q    Type
REMARK                         _______ _______ _______ _____ _____    ______ ____
ROOT
ATOM      1  O   UNL     1      -1.940  14.038  20.320  0.00  0.00    +0.000 OA
ATOM      2  C   UNL     1      -0.883  14.234  19.720  0.00  0.00    +0.000 C 
ATOM      3  N   UNL     1      -0.100  15.352  19.964  0.00  0.00    +0.000 N 
ATOM      4  C   UNL     1      -0.467  16.265  21.038  0.00  0.00    +0.000 C 
ATOM      5  C   UNL     1      -0.275  17.656  20.448  0.00  0.00    +0.000 C 
ATOM      6  C   UNL     1       0.898  17.464  19.506  0.00  0.00    +0.000 C 
ATOM      7  C   UNL     1       0.671  16.066  18.947  0.00  0.00    +0.000 C 
ATOM      8  N   UNL     1      -0.415  13.334  18.763  0.00  0.00    +0.000 N 
ATOM      9  C   UNL     1      -1.329  12.320  18.229  0.00  0.00    +0.000 C 
ATOM     10  C   UNL     1      -0.960  10.900  18.670  0.00  0.00    +0.000 C 
ATOM     11  C   UNL     1       0.531  10.619  18.423  0.00  0.00    +0.000 C 
ATOM     12  C   UNL     1       1.413  11.687  19.048  0.00  0.00    +0.000 C 
ATOM     13  C   UNL     1       1.402  11.630  20.585  0.00  0.00    +0.000 C 
ATOM     14  C   UNL     1       1.044  10.278  21.198  0.00  0.00    +0.000 C 
ATOM     15  C   UNL     1       1.103   9.075  20.279  0.00  0.00    +0.000 C 
ATOM     16  O   UNL     1       1.253   7.947  20.749  0.00  0.00    +0.000 OA
ATOM     17  N   UNL     1       0.974   9.315  18.921  0.00  0.00    +0.000 N 
ATOM     18  C   UNL     1       1.004  13.069  18.545  0.00  0.00    +0.000 C 
ENDROOT
BRANCH  17  19
ATOM     19  C   UNL     1       1.454   8.302  17.974  0.00  0.00    +0.000 C 
BRANCH  19  20
ATOM     20  C   UNL     1       2.991   8.207  17.936  0.00  0.00    +0.000 C 
BRANCH  20  21
ATOM     21  C   UNL     1       3.462   6.800  17.657  0.00  0.00    +0.000 A 
ATOM     22  C   UNL     1       4.652   6.571  16.954  0.00  0.00    +0.000 A 
ATOM     23  C   UNL     1       5.060   5.268  16.661  0.00  0.00    +0.000 A 
ATOM     24  C   UNL     1       4.284   4.183  17.064  0.00  0.00    +0.000 A 
ATOM     25  C   UNL     1       3.101   4.400  17.771  0.00  0.00    +0.000 A 
ATOM     26  C   UNL     1       2.692   5.702  18.066  0.00  0.00    +0.000 A 
ENDBRANCH  20  21
ENDBRANCH  19  20
ENDBRANCH  17  19
TORSDOF 3
ENDMDL
MODEL 7
REMARK VINA RESULT:      -6.5      4.536      7.640
REMARK  Name = 
REMARK  3 active torsions:
REMARK  status: ('A' for Active; 'I' for Inactive)
REMARK    1  A    between atoms: N_17  and  C_18
REMARK    2  A    between atoms: C_18  and  C_19
REMARK    3  A    between atoms: C_19  and  C_20
REMARK                            x       y       z     vdW  Elec       q    Type
REMARK                         _______ _______ _______ _____ _____    ______ ____
ROOT
ATOM      1  O   UNL     1      -3.437  12.285  20.033  0.00  0.00    +0.000 OA
ATOM      2  C   UNL     1      -2.380  12.913  19.984  0.00  0.00    +0.000 C 
ATOM      3  N   UNL     1      -2.199  14.099  20.680  0.00  0.00    +0.000 N 
ATOM      4  C   UNL     1      -3.238  14.563  21.589  0.00  0.00    +0.000 C 
ATOM      5  C   UNL     1      -3.354  16.057  21.317  0.00  0.00    +0.000 C 
ATOM      6  C   UNL     1      -1.931  16.446  20.966  0.00  0.00    +0.000 C 
ATOM      7  C   UNL     1      -1.418  15.237  20.197  0.00  0.00    +0.000 C 
ATOM      8  N   UNL     1      -1.302  12.458  19.225  0.00  0.00    +0.000 N 
ATOM      9  C   UNL     1      -1.524  11.409  18.226  0.00  0.00    +0.000 C 
ATOM     10  C   UNL     1      -0.862  10.081  18.605  0.00  0.00    +0.000 C 
ATOM     11  C   UNL     1       0.608  10.293  19.002  0.00  0.00    +0.000 C 
ATOM     12  C   UNL     1       0.749  11.360  20.074  0.00  0.00    +0.000 C 
ATOM     13  C   UNL     1       0.192  10.903  21.432  0.00  0.00    +0.000 C 
ATOM     14  C   UNL     1       0.141   9.393  21.657  0.00  0.00    +0.000 C 
ATOM     15  C   UNL     1       0.964   8.536  20.716  0.00  0.00    +0.000 C 
ATOM     16  O   UNL     1       1.323   7.410  21.062  0.00  0.00    +0.000 OA
ATOM     17  N   UNL     1       1.270   9.078  19.479  0.00  0.00    +0.000 N 
ATOM     18  C   UNL     1       0.091  12.659  19.617  0.00  0.00    +0.000 C 
ENDROOT
BRANCH  17  19
ATOM     19  C   UNL     1       2.395   8.519  18.720  0.00  0.00    +0.000 C 
BRANCH  19  20
ATOM     20  C   UNL     1       1.957   7.422  17.732  0.00  0.00    +0.000 C 
BRANCH  20  21
ATOM     21  C   UNL     1       2.568   6.083  18.069  0.00  0.00    +0.000 A 
ATOM     22  C   UNL     1       3.883   5.997  18.543  0.00  0.00    +0.000 A 
ATOM     23  C   UNL     1       4.458   4.753  18.812  0.00  0.00    +0.000 A 
ATOM     24  C   UNL     1       3.725   3.585  18.609  0.00  0.00    +0.000 A 
ATOM     25  C   UNL     1       2.413   3.660  18.145  0.00  0.00    +0.000 A 
ATOM     26  C   UNL     1       1.836   4.903  17.875  0.00  0.00    +0.000 A 
ENDBRANCH  20  21
ENDBRANCH  19  20
ENDBRANCH  17  19
TORSDOF 3
ENDMDL
MODEL 8
REMARK VINA RESULT:      -6.4      3.137      4.788
REMARK  Name = 
REMARK  3 active torsions:
REMARK  status: ('A' for Active; 'I' for Inactive)
REMARK    1  A    between atoms: N_17  and  C_18
REMARK    2  A    between atoms: C_18  and  C_19
REMARK    3  A    between atoms: C_19  and  C_20
REMARK                            x       y       z     vdW  Elec       q    Type
REMARK                         _______ _______ _______ _____ _____    ______ ____
ROOT
ATOM      1  O   UNL     1       0.219   8.809  18.880  0.00  0.00    +0.000 OA
ATOM      2  C   UNL     1       0.937   8.455  19.815  0.00  0.00    +0.000 C 
ATOM      3  N   UNL     1       0.548   8.610  21.137  0.00  0.00    +0.000 N 
ATOM      4  C   UNL     1      -0.792   9.095  21.438  0.00  0.00    +0.000 C 
ATOM      5  C   UNL     1      -0.597  10.108  22.558  0.00  0.00    +0.000 C 
ATOM      6  C   UNL     1       0.576   9.535  23.329  0.00  0.00    +0.000 C 
ATOM      7  C   UNL     1       1.453   8.936  22.239  0.00  0.00    +0.000 C 
ATOM      8  N   UNL     1       2.185   7.873  19.591  0.00  0.00    +0.000 N 
ATOM      9  C   UNL     1       2.791   7.974  18.260  0.00  0.00    +0.000 C 
ATOM     10  C   UNL     1       2.856   6.625  17.536  0.00  0.00    +0.000 C 
ATOM     11  C   UNL     1       3.466   5.544  18.442  0.00  0.00    +0.000 C 
ATOM     12  C   UNL     1       2.753   5.470  19.782  0.00  0.00    +0.000 C 
ATOM     13  C   UNL     1       1.327   4.909  19.656  0.00  0.00    +0.000 C 
ATOM     14  C   UNL     1       1.065   4.023  18.440  0.00  0.00    +0.000 C 
ATOM     15  C   UNL     1       2.281   3.492  17.709  0.00  0.00    +0.000 C 
ATOM     16  O   UNL     1       2.192   2.473  17.023  0.00  0.00    +0.000 OA
ATOM     17  N   UNL     1       3.459   4.206  17.849  0.00  0.00    +0.000 N 
ATOM     18  C   UNL     1       2.750   6.840  20.455  0.00  0.00    +0.000 C 
ENDROOT
BRANCH  17  19
ATOM     19  C   UNL     1       4.732   3.536  17.556  0.00  0.00    +0.000 C 
BRANCH  19  20
ATOM     20  C   UNL     1       5.608   4.333  16.571  0.00  0.00    +0.000 C 
BRANCH  20  21
ATOM     21  C   UNL     1       6.466   5.354  17.279  0.00  0.00    +0.000 A 
ATOM     22  C   UNL     1       6.630   6.641  16.749  0.00  0.00    +0.000 A 
ATOM     23  C   UNL     1       7.459   7.567  17.385  0.00  0.00    +0.000 A 
ATOM     24  C   UNL     1       8.134   7.217  18.553  0.00  0.00    +0.000 A 
ATOM     25  C   UNL     1       7.972   5.941  19.093  0.00  0.00    +0.000 A 
ATOM     26  C   UNL     1       7.142   5.014  18.459  0.00  0.00    +0.000 A 
ENDBRANCH  20  21
ENDBRANCH  19  20
ENDBRANCH  17  19
TORSDOF 3
ENDMDL
MODEL 9
REMARK VINA RESULT:      -6.4      3.902      7.119
REMARK  Name = 
REMARK  3 active torsions:
REMARK  status: ('A' for Active; 'I' for Inactive)
REMARK    1  A    between atoms: N_17  and  C_18
REMARK    2  A    between atoms: C_18  and  C_19
REMARK    3  A    between atoms: C_19  and  C_20
REMARK                            x       y       z     vdW  Elec       q    Type
REMARK                         _______ _______ _______ _____ _____    ______ ____
ROOT
ATOM      1  O   UNL     1      -3.126  12.265  19.939  0.00  0.00    +0.000 OA
ATOM      2  C   UNL     1      -2.052  12.854  19.819  0.00  0.00    +0.000 C 
ATOM      3  N   UNL     1      -1.801  14.057  20.462  0.00  0.00    +0.000 N 
ATOM      4  C   UNL     1      -2.782  14.588  21.399  0.00  0.00    +0.000 C 
ATOM      5  C   UNL     1      -2.862  16.075  21.077  0.00  0.00    +0.000 C 
ATOM      6  C   UNL     1      -1.445  16.403  20.648  0.00  0.00    +0.000 C 
ATOM      7  C   UNL     1      -1.007  15.151  19.902  0.00  0.00    +0.000 C 
ATOM      8  N   UNL     1      -1.025  12.337  19.030  0.00  0.00    +0.000 N 
ATOM      9  C   UNL     1      -1.327  11.261  18.081  0.00  0.00    +0.000 C 
ATOM     10  C   UNL     1      -0.691   9.926  18.480  0.00  0.00    +0.000 C 
ATOM     11  C   UNL     1       0.801  10.102  18.801  0.00  0.00    +0.000 C 
ATOM     12  C   UNL     1       1.026  11.202  19.826  0.00  0.00    +0.000 C 
ATOM     13  C   UNL     1       0.518  10.812  21.224  0.00  0.00    +0.000 C 
ATOM     14  C   UNL     1       0.430   9.313  21.507  0.00  0.00    +0.000 C 
ATOM     15  C   UNL     1       1.180   8.396  20.563  0.00  0.00    +0.000 C 
ATOM     16  O   UNL     1       1.518   7.272  20.934  0.00  0.00    +0.000 OA
ATOM     17  N   UNL     1       1.446   8.883  19.294  0.00  0.00    +0.000 N 
ATOM     18  C   UNL     1       0.390  12.504  19.351  0.00  0.00    +0.000 C 
ENDROOT
BRANCH  17  19
ATOM     19  C   UNL     1       2.516   8.260  18.506  0.00  0.00    +0.000 C 
BRANCH  19  20
ATOM     20  C   UNL     1       2.177   6.820  18.079  0.00  0.00    +0.000 C 
BRANCH  20  21
ATOM     21  C   UNL     1       3.389   6.085  17.561  0.00  0.00    +0.000 A 
ATOM     22  C   UNL     1       4.472   6.787  17.017  0.00  0.00    +0.000 A 
ATOM     23  C   UNL     1       5.573   6.100  16.499  0.00  0.00    +0.000 A 
ATOM     24  C   UNL     1       5.601   4.707  16.519  0.00  0.00    +0.000 A 
ATOM     25  C   UNL     1       4.531   3.998  17.065  0.00  0.00    +0.000 A 
ATOM     26  C   UNL     1       3.430   4.683  17.584  0.00  0.00    +0.000 A 
ENDBRANCH  20  21
ENDBRANCH  19  20
ENDBRANCH  17  19
TORSDOF 3
ENDMDL
