MODEL 1
REMARK VINA RESULT:      -7.9      0.000      0.000
REMARK  Name = 
REMARK  11 active torsions:
REMARK  status: ('A' for Active; 'I' for Inactive)
REMARK    1  A    between atoms: C_1  and  C_2
REMARK    2  A    between atoms: C_2  and  C_3
REMARK    3  A    between atoms: C_2  and  C_4
REMARK    4  A    between atoms: C_4  and  C_5
REMARK    5  A    between atoms: C_5  and  N_6
REMARK    6  A    between atoms: C_7  and  C_9
REMARK    7  A    between atoms: C_12  and  C_13
REMARK    8  A    between atoms: C_13  and  N_14
REMARK    9  A    between atoms: C_15  and  S_16
REMARK   10  A    between atoms: S_16  and  C_17
REMARK   11  A    between atoms: C_17  and  C_18
REMARK                            x       y       z     vdW  Elec       q    Type
REMARK                         _______ _______ _______ _____ _____    ______ ____
ROOT
ATOM      1  N   UNL     1       2.093   6.934  19.065  0.00  0.00    +0.000 N 
ATOM      2  C   UNL     1       2.597   6.103  18.083  0.00  0.00    +0.000 A 
ATOM      3  N   UNL     1       2.125   4.926  17.827  0.00  0.00    +0.000 NA
ATOM      4  C   UNL     1       1.692   4.217  18.956  0.00  0.00    +0.000 A 
ATOM      5  C   UNL     1       1.704   2.823  18.859  0.00  0.00    +0.000 A 
ATOM      6  C   UNL     1       2.000   2.052  19.982  0.00  0.00    +0.000 A 
ATOM      7  C   UNL     1       2.237   2.677  21.207  0.00  0.00    +0.000 A 
ATOM      8  C   UNL     1       2.057   4.059  21.342  0.00  0.00    +0.000 A 
ATOM      9  C   UNL     1       1.746   4.824  20.214  0.00  0.00    +0.000 A 
ATOM     10  C   UNL     1       1.712   6.310  20.241  0.00  0.00    +0.000 A 
ATOM     11  O   UNL     1       1.467   6.888  21.296  0.00  0.00    +0.000 OA
ENDROOT
BRANCH   1  12
ATOM     12  C   UNL     1       2.298   8.398  19.047  0.00  0.00    +0.000 C 
BRANCH  12  16
ATOM     13  C   UNL     1      -1.380  10.778  18.928  0.00  0.00    +0.000 A 
ATOM     14  C   UNL     1      -0.890  10.162  17.765  0.00  0.00    +0.000 A 
ATOM     15  C   UNL     1       0.323   9.442  17.778  0.00  0.00    +0.000 A 
ATOM     16  C   UNL     1       1.080   9.321  18.950  0.00  0.00    +0.000 A 
ATOM     17  C   UNL     1       0.577   9.948  20.112  0.00  0.00    +0.000 A 
ATOM     18  C   UNL     1      -0.633  10.668  20.102  0.00  0.00    +0.000 A 
BRANCH  13  20
ATOM     19  N   UNL     1      -3.688  11.092  18.178  0.00  0.00    +0.000 N 
ATOM     20  C   UNL     1      -2.658  11.581  18.958  0.00  0.00    +0.000 C 
ATOM     21  O   UNL     1      -2.748  12.573  19.664  0.00  0.00    +0.000 OA
ATOM     22  H   UNL     1      -3.588  10.208  17.700  0.00  0.00    +0.000 HD
BRANCH  19  23
ATOM     23  C   UNL     1      -4.959  11.797  18.025  0.00  0.00    +0.000 C 
BRANCH  23  24
ATOM     24  C   UNL     1      -6.162  10.945  18.440  0.00  0.00    +0.000 C 
BRANCH  24  26
ATOM     25  C   UNL     1      -7.617  10.516  20.500  0.00  0.00    +0.000 C 
ATOM     26  C   UNL     1      -7.076  11.559  19.521  0.00  0.00    +0.000 C 
ATOM     27  C   UNL     1      -6.316  12.639  20.298  0.00  0.00    +0.000 C 
ENDBRANCH  24  26
ENDBRANCH  23  24
ENDBRANCH  19  23
ENDBRANCH  13  20
ENDBRANCH  12  16
ENDBRANCH   1  12
BRANCH   2  28
ATOM     28  S   UNL     1       4.239   6.458  17.510  0.00  0.00    +0.000 S 
BRANCH  28  29
ATOM     29  C   UNL     1       4.992   4.794  17.611  0.00  0.00    +0.000 C 
BRANCH  29  30
ATOM     30  C   UNL     1       5.562   4.395  18.964  0.00  0.00    +0.000 C 
ATOM     31  N   UNL     1       5.314   3.152  19.453  0.00  0.00    +0.000 N 
ATOM     32  O   UNL     1       6.255   5.171  19.623  0.00  0.00    +0.000 OA
ATOM     33  H   UNL     1       4.847   2.443  18.905  0.00  0.00    +0.000 HD
ATOM     34  H   UNL     1       5.725   2.903  20.346  0.00  0.00    +0.000 HD
ENDBRANCH  29  30
ENDBRANCH  28  29
ENDBRANCH   2  28
TORSDOF 9
ENDMDL
MODEL 2
REMARK VINA RESULT:      -7.8      1.474      1.796
REMARK  Name = 
REMARK  11 active torsions:
REMARK  status: ('A' for Active; 'I' for Inactive)
REMARK    1  A    between atoms: C_1  and  C_2
REMARK    2  A    between atoms: C_2  and  C_3
REMARK    3  A    between atoms: C_2  and  C_4
REMARK    4  A    between atoms: C_4  and  C_5
REMARK    5  A    between atoms: C_5  and  N_6
REMARK    6  A    between atoms: C_7  and  C_9
REMARK    7  A    between atoms: C_12  and  C_13
REMARK    8  A    between atoms: C_13  and  N_14
REMARK    9  A    between atoms: C_15  and  S_16
REMARK   10  A    between atoms: S_16  and  C_17
REMARK   11  A    between atoms: C_17  and  C_18
REMARK                            x       y       z     vdW  Elec       q    Type
REMARK                         _______ _______ _______ _____ _____    ______ ____
ROOT
ATOM      1  N   UNL     1       2.085   6.932  18.988  0.00  0.00    +0.000 N 
ATOM      2  C   UNL     1       2.540   6.061  18.015  0.00  0.00    +0.000 A 
ATOM      3  N   UNL     1       2.022   4.898  17.795  0.00  0.00    +0.000 NA
ATOM      4  C   UNL     1       1.585   4.229  18.947  0.00  0.00    +0.000 A 
ATOM      5  C   UNL     1       1.545   2.834  18.880  0.00  0.00    +0.000 A 
ATOM      6  C   UNL     1       1.835   2.077  20.015  0.00  0.00    +0.000 A 
ATOM      7  C   UNL     1       2.118   2.719  21.221  0.00  0.00    +0.000 A 
ATOM      8  C   UNL     1       1.991   4.109  21.328  0.00  0.00    +0.000 A 
ATOM      9  C   UNL     1       1.685   4.861  20.190  0.00  0.00    +0.000 A 
ATOM     10  C   UNL     1       1.705   6.347  20.184  0.00  0.00    +0.000 A 
ATOM     11  O   UNL     1       1.501   6.956  21.231  0.00  0.00    +0.000 OA
ENDROOT
BRANCH   1  12
ATOM     12  C   UNL     1       2.342   8.387  18.934  0.00  0.00    +0.000 C 
BRANCH  12  16
ATOM     13  C   UNL     1      -1.241  10.901  19.151  0.00  0.00    +0.000 A 
ATOM     14  C   UNL     1      -0.872  10.287  17.944  0.00  0.00    +0.000 A 
ATOM     15  C   UNL     1       0.310   9.522  17.846  0.00  0.00    +0.000 A 
ATOM     16  C   UNL     1       1.156   9.355  18.950  0.00  0.00    +0.000 A 
ATOM     17  C   UNL     1       0.774   9.981  20.157  0.00  0.00    +0.000 A 
ATOM     18  C   UNL     1      -0.404  10.746  20.258  0.00  0.00    +0.000 A 
BRANCH  13  20
ATOM     19  N   UNL     1      -2.475  12.638  20.355  0.00  0.00    +0.000 N 
ATOM     20  C   UNL     1      -2.480  11.749  19.297  0.00  0.00    +0.000 C 
ATOM     21  O   UNL     1      -3.394  11.652  18.491  0.00  0.00    +0.000 OA
ATOM     22  H   UNL     1      -1.646  12.747  20.922  0.00  0.00    +0.000 HD
BRANCH  19  23
ATOM     23  C   UNL     1      -3.631  13.467  20.690  0.00  0.00    +0.000 C 
BRANCH  23  24
ATOM     24  C   UNL     1      -4.635  12.747  21.594  0.00  0.00    +0.000 C 
BRANCH  24  26
ATOM     25  C   UNL     1      -5.991  12.980  23.751  0.00  0.00    +0.000 C 
ATOM     26  C   UNL     1      -4.634  13.181  23.075  0.00  0.00    +0.000 C 
ATOM     27  C   UNL     1      -3.562  12.406  23.847  0.00  0.00    +0.000 C 
ENDBRANCH  24  26
ENDBRANCH  23  24
ENDBRANCH  19  23
ENDBRANCH  13  20
ENDBRANCH  12  16
ENDBRANCH   1  12
BRANCH   2  28
ATOM     28  S   UNL     1       4.181   6.345  17.404  0.00  0.00    +0.000 S 
BRANCH  28  29
ATOM     29  C   UNL     1       4.885   4.663  17.554  0.00  0.00    +0.000 C 
BRANCH  29  30
ATOM     30  C   UNL     1       5.387   4.264  18.933  0.00  0.00    +0.000 C 
ATOM     31  N   UNL     1       5.177   2.999  19.380  0.00  0.00    +0.000 N 
ATOM     32  O   UNL     1       5.992   5.061  19.651  0.00  0.00    +0.000 OA
ATOM     33  H   UNL     1       4.786   2.279  18.790  0.00  0.00    +0.000 HD
ATOM     34  H   UNL     1       5.542   2.752  20.294  0.00  0.00    +0.000 HD
ENDBRANCH  29  30
ENDBRANCH  28  29
ENDBRANCH   2  28
TORSDOF 9
ENDMDL
MODEL 3
REMARK VINA RESULT:      -7.5      1.241      1.444
REMARK  Name = 
REMARK  11 active torsions:
REMARK  status: ('A' for Active; 'I' for Inactive)
REMARK    1  A    between atoms: C_1  and  C_2
REMARK    2  A    between atoms: C_2  and  C_3
REMARK    3  A    between atoms: C_2  and  C_4
REMARK    4  A    between atoms: C_4  and  C_5
REMARK    5  A    between atoms: C_5  and  N_6
REMARK    6  A    between atoms: C_7  and  C_9
REMARK    7  A    between atoms: C_12  and  C_13
REMARK    8  A    between atoms: C_13  and  N_14
REMARK    9  A    between atoms: C_15  and  S_16
REMARK   10  A    between atoms: S_16  and  C_17
REMARK   11  A    between atoms: C_17  and  C_18
REMARK                            x       y       z     vdW  Elec       q    Type
REMARK                         _______ _______ _______ _____ _____    ______ ____
ROOT
ATOM      1  N   UNL     1       2.272   7.129  18.772  0.00  0.00    +0.000 N 
ATOM      2  C   UNL     1       2.913   6.261  17.908  0.00  0.00    +0.000 A 
ATOM      3  N   UNL     1       2.538   5.039  17.711  0.00  0.00    +0.000 NA
ATOM      4  C   UNL     1       2.049   4.391  18.854  0.00  0.00    +0.000 A 
ATOM      5  C   UNL     1       2.153   2.998  18.873  0.00  0.00    +0.000 A 
ATOM      6  C   UNL     1       2.393   2.337  20.077  0.00  0.00    +0.000 A 
ATOM      7  C   UNL     1       2.480   3.068  21.262  0.00  0.00    +0.000 A 
ATOM      8  C   UNL     1       2.206   4.441  21.267  0.00  0.00    +0.000 A 
ATOM      9  C   UNL     1       1.951   5.095  20.057  0.00  0.00    +0.000 A 
ATOM     10  C   UNL     1       1.825   6.572  19.958  0.00  0.00    +0.000 A 
ATOM     11  O   UNL     1       1.451   7.212  20.938  0.00  0.00    +0.000 OA
ENDROOT
BRANCH   1  12
ATOM     12  C   UNL     1       2.389   8.598  18.651  0.00  0.00    +0.000 C 
BRANCH  12  16
ATOM     13  C   UNL     1      -1.401  10.799  18.685  0.00  0.00    +0.000 A 
ATOM     14  C   UNL     1      -1.086   9.936  17.623  0.00  0.00    +0.000 A 
ATOM     15  C   UNL     1       0.155   9.266  17.572  0.00  0.00    +0.000 A 
ATOM     16  C   UNL     1       1.115   9.444  18.576  0.00  0.00    +0.000 A 
ATOM     17  C   UNL     1       0.786  10.318  19.637  0.00  0.00    +0.000 A 
ATOM     18  C   UNL     1      -0.451  10.988  19.690  0.00  0.00    +0.000 A 
BRANCH  13  20
ATOM     19  N   UNL     1      -3.682  11.165  17.877  0.00  0.00    +0.000 N 
ATOM     20  C   UNL     1      -2.703  11.557  18.770  0.00  0.00    +0.000 C 
ATOM     21  O   UNL     1      -2.855  12.431  19.610  0.00  0.00    +0.000 OA
ATOM     22  H   UNL     1      -3.533  10.364  17.280  0.00  0.00    +0.000 HD
BRANCH  19  23
ATOM     23  C   UNL     1      -4.966  11.854  17.768  0.00  0.00    +0.000 C 
BRANCH  23  24
ATOM     24  C   UNL     1      -6.119  11.058  18.388  0.00  0.00    +0.000 C 
BRANCH  24  26
ATOM     25  C   UNL     1      -7.126  12.850  19.911  0.00  0.00    +0.000 C 
ATOM     26  C   UNL     1      -6.507  11.454  19.828  0.00  0.00    +0.000 C 
ATOM     27  C   UNL     1      -7.487  10.429  20.407  0.00  0.00    +0.000 C 
ENDBRANCH  24  26
ENDBRANCH  23  24
ENDBRANCH  19  23
ENDBRANCH  13  20
ENDBRANCH  12  16
ENDBRANCH   1  12
BRANCH   2  28
ATOM     28  S   UNL     1       4.574   6.682  17.449  0.00  0.00    +0.000 S 
BRANCH  28  29
ATOM     29  C   UNL     1       5.166   5.065  16.831  0.00  0.00    +0.000 C 
BRANCH  29  30
ATOM     30  C   UNL     1       6.395   5.095  15.936  0.00  0.00    +0.000 C 
ATOM     31  N   UNL     1       6.520   4.179  14.941  0.00  0.00    +0.000 N 
ATOM     32  O   UNL     1       7.277   5.941  16.085  0.00  0.00    +0.000 OA
ATOM     33  H   UNL     1       5.776   3.537  14.706  0.00  0.00    +0.000 HD
ATOM     34  H   UNL     1       7.337   4.236  14.343  0.00  0.00    +0.000 HD
ENDBRANCH  29  30
ENDBRANCH  28  29
ENDBRANCH   2  28
TORSDOF 9
ENDMDL
MODEL 4
REMARK VINA RESULT:      -7.4      1.264      1.666
REMARK  Name = 
REMARK  11 active torsions:
REMARK  status: ('A' for Active; 'I' for Inactive)
REMARK    1  A    between atoms: C_1  and  C_2
REMARK    2  A    between atoms: C_2  and  C_3
REMARK    3  A    between atoms: C_2  and  C_4
REMARK    4  A    between atoms: C_4  and  C_5
REMARK    5  A    between atoms: C_5  and  N_6
REMARK    6  A    between atoms: C_7  and  C_9
REMARK    7  A    between atoms: C_12  and  C_13
REMARK    8  A    between atoms: C_13  and  N_14
REMARK    9  A    between atoms: C_15  and  S_16
REMARK   10  A    between atoms: S_16  and  C_17
REMARK   11  A    between atoms: C_17  and  C_18
REMARK                            x       y       z     vdW  Elec       q    Type
REMARK                         _______ _______ _______ _____ _____    ______ ____
ROOT
ATOM      1  N   UNL     1       2.099   6.974  18.998  0.00  0.00    +0.000 N 
ATOM      2  C   UNL     1       2.576   6.122  18.019  0.00  0.00    +0.000 A 
ATOM      3  N   UNL     1       2.086   4.948  17.790  0.00  0.00    +0.000 NA
ATOM      4  C   UNL     1       1.666   4.260  18.938  0.00  0.00    +0.000 A 
ATOM      5  C   UNL     1       1.661   2.865  18.861  0.00  0.00    +0.000 A 
ATOM      6  C   UNL     1       1.969   2.108  19.990  0.00  0.00    +0.000 A 
ATOM      7  C   UNL     1       2.236   2.747  21.201  0.00  0.00    +0.000 A 
ATOM      8  C   UNL     1       2.075   4.133  21.318  0.00  0.00    +0.000 A 
ATOM      9  C   UNL     1       1.750   4.885  20.185  0.00  0.00    +0.000 A 
ATOM     10  C   UNL     1       1.734   6.371  20.190  0.00  0.00    +0.000 A 
ATOM     11  O   UNL     1       1.515   6.968  21.241  0.00  0.00    +0.000 OA
ENDROOT
BRANCH   1  12
ATOM     12  C   UNL     1       2.320   8.435  18.954  0.00  0.00    +0.000 C 
BRANCH  12  16
ATOM     13  C   UNL     1      -1.328  10.862  18.868  0.00  0.00    +0.000 A 
ATOM     14  C   UNL     1      -0.900  10.175  17.721  0.00  0.00    +0.000 A 
ATOM     15  C   UNL     1       0.303   9.438  17.719  0.00  0.00    +0.000 A 
ATOM     16  C   UNL     1       1.111   9.371  18.861  0.00  0.00    +0.000 A 
ATOM     17  C   UNL     1       0.670  10.068  20.007  0.00  0.00    +0.000 A 
ATOM     18  C   UNL     1      -0.529  10.806  20.012  0.00  0.00    +0.000 A 
BRANCH  13  20
ATOM     19  N   UNL     1      -2.839  12.341  20.101  0.00  0.00    +0.000 N 
ATOM     20  C   UNL     1      -2.592  11.685  18.910  0.00  0.00    +0.000 C 
ATOM     21  O   UNL     1      -3.308  11.768  17.924  0.00  0.00    +0.000 OA
ATOM     22  H   UNL     1      -2.155  12.319  20.844  0.00  0.00    +0.000 HD
BRANCH  19  23
ATOM     23  C   UNL     1      -4.061  13.106  20.338  0.00  0.00    +0.000 C 
BRANCH  23  24
ATOM     24  C   UNL     1      -4.295  13.404  21.822  0.00  0.00    +0.000 C 
BRANCH  24  26
ATOM     25  C   UNL     1      -6.414  14.786  22.203  0.00  0.00    +0.000 C 
ATOM     26  C   UNL     1      -5.769  13.402  22.280  0.00  0.00    +0.000 C 
ATOM     27  C   UNL     1      -6.580  12.416  21.434  0.00  0.00    +0.000 C 
ENDBRANCH  24  26
ENDBRANCH  23  24
ENDBRANCH  19  23
ENDBRANCH  13  20
ENDBRANCH  12  16
ENDBRANCH   1  12
BRANCH   2  28
ATOM     28  S   UNL     1       4.210   6.451  17.410  0.00  0.00    +0.000 S 
BRANCH  28  29
ATOM     29  C   UNL     1       5.213   5.594  18.678  0.00  0.00    +0.000 C 
BRANCH  29  30
ATOM     30  C   UNL     1       5.199   4.074  18.633  0.00  0.00    +0.000 C 
ATOM     31  N   UNL     1       5.009   3.442  17.447  0.00  0.00    +0.000 N 
ATOM     32  O   UNL     1       5.368   3.401  19.651  0.00  0.00    +0.000 OA
ATOM     33  H   UNL     1       4.977   3.944  16.571  0.00  0.00    +0.000 HD
ATOM     34  H   UNL     1       5.027   2.428  17.441  0.00  0.00    +0.000 HD
ENDBRANCH  29  30
ENDBRANCH  28  29
ENDBRANCH   2  28
TORSDOF 9
ENDMDL
MODEL 5
REMARK VINA RESULT:      -7.4      1.440      1.741
REMARK  Name = 
REMARK  11 active torsions:
REMARK  status: ('A' for Active; 'I' for Inactive)
REMARK    1  A    between atoms: C_1  and  C_2
REMARK    2  A    between atoms: C_2  and  C_3
REMARK    3  A    between atoms: C_2  and  C_4
REMARK    4  A    between atoms: C_4  and  C_5
REMARK    5  A    between atoms: C_5  and  N_6
REMARK    6  A    between atoms: C_7  and  C_9
REMARK    7  A    between atoms: C_12  and  C_13
REMARK    8  A    between atoms: C_13  and  N_14
REMARK    9  A    between atoms: C_15  and  S_16
REMARK   10  A    between atoms: S_16  and  C_17
REMARK   11  A    between atoms: C_17  and  C_18
REMARK                            x       y       z     vdW  Elec       q    Type
REMARK                         _______ _______ _______ _____ _____    ______ ____
ROOT
ATOM      1  N   UNL     1       2.228   6.770  18.927  0.00  0.00    +0.000 N 
ATOM      2  C   UNL     1       2.771   5.896  18.004  0.00  0.00    +0.000 A 
ATOM      3  N   UNL     1       2.271   4.734  17.735  0.00  0.00    +0.000 NA
ATOM      4  C   UNL     1       1.722   4.070  18.841  0.00  0.00    +0.000 A 
ATOM      5  C   UNL     1       1.681   2.675  18.772  0.00  0.00    +0.000 A 
ATOM      6  C   UNL     1       1.856   1.918  19.931  0.00  0.00    +0.000 A 
ATOM      7  C   UNL     1       2.024   2.561  21.158  0.00  0.00    +0.000 A 
ATOM      8  C   UNL     1       1.894   3.952  21.250  0.00  0.00    +0.000 A 
ATOM      9  C   UNL     1       1.703   4.703  20.086  0.00  0.00    +0.000 A 
ATOM     10  C   UNL     1       1.731   6.189  20.081  0.00  0.00    +0.000 A 
ATOM     11  O   UNL     1       1.430   6.801  21.102  0.00  0.00    +0.000 OA
ENDROOT
BRANCH   1  12
ATOM     12  C   UNL     1       2.496   8.223  18.895  0.00  0.00    +0.000 C 
BRANCH  12  16
ATOM     13  C   UNL     1      -1.064  10.778  18.916  0.00  0.00    +0.000 A 
ATOM     14  C   UNL     1      -0.723  10.039  17.773  0.00  0.00    +0.000 A 
ATOM     15  C   UNL     1       0.452   9.259  17.733  0.00  0.00    +0.000 A 
ATOM     16  C   UNL     1       1.318   9.199  18.833  0.00  0.00    +0.000 A 
ATOM     17  C   UNL     1       0.963   9.949  19.976  0.00  0.00    +0.000 A 
ATOM     18  C   UNL     1      -0.208  10.729  20.018  0.00  0.00    +0.000 A 
BRANCH  13  20
ATOM     19  N   UNL     1      -2.536  12.231  20.225  0.00  0.00    +0.000 N 
ATOM     20  C   UNL     1      -2.295  11.647  18.996  0.00  0.00    +0.000 C 
ATOM     21  O   UNL     1      -2.990  11.827  18.008  0.00  0.00    +0.000 OA
ATOM     22  H   UNL     1      -1.865  12.132  20.974  0.00  0.00    +0.000 HD
BRANCH  19  23
ATOM     23  C   UNL     1      -3.730  13.029  20.496  0.00  0.00    +0.000 C 
BRANCH  23  24
ATOM     24  C   UNL     1      -4.149  12.987  21.968  0.00  0.00    +0.000 C 
BRANCH  24  26
ATOM     25  C   UNL     1      -6.563  12.395  21.363  0.00  0.00    +0.000 C 
ATOM     26  C   UNL     1      -5.645  13.242  22.246  0.00  0.00    +0.000 C 
ATOM     27  C   UNL     1      -5.960  12.964  23.719  0.00  0.00    +0.000 C 
ENDBRANCH  24  26
ENDBRANCH  23  24
ENDBRANCH  19  23
ENDBRANCH  13  20
ENDBRANCH  12  16
ENDBRANCH   1  12
BRANCH   2  28
ATOM     28  S   UNL     1       4.466   6.170  17.554  0.00  0.00    +0.000 S 
BRANCH  28  29
ATOM     29  C   UNL     1       5.314   5.441  19.001  0.00  0.00    +0.000 C 
BRANCH  29  30
ATOM     30  C   UNL     1       6.822   5.627  19.062  0.00  0.00    +0.000 C 
ATOM     31  N   UNL     1       7.482   6.095  17.971  0.00  0.00    +0.000 N 
ATOM     32  O   UNL     1       7.460   5.372  20.085  0.00  0.00    +0.000 OA
ATOM     33  H   UNL     1       6.995   6.423  17.149  0.00  0.00    +0.000 HD
ATOM     34  H   UNL     1       8.484   6.233  18.046  0.00  0.00    +0.000 HD
ENDBRANCH  29  30
ENDBRANCH  28  29
ENDBRANCH   2  28
TORSDOF 9
ENDMDL
MODEL 6
REMARK VINA RESULT:      -7.4      3.214      4.449
REMARK  Name = 
REMARK  11 active torsions:
REMARK  status: ('A' for Active; 'I' for Inactive)
REMARK    1  A    between atoms: C_1  and  C_2
REMARK    2  A    between atoms: C_2  and  C_3
REMARK    3  A    between atoms: C_2  and  C_4
REMARK    4  A    between atoms: C_4  and  C_5
REMARK    5  A    between atoms: C_5  and  N_6
REMARK    6  A    between atoms: C_7  and  C_9
REMARK    7  A    between atoms: C_12  and  C_13
REMARK    8  A    between atoms: C_13  and  N_14
REMARK    9  A    between atoms: C_15  and  S_16
REMARK   10  A    between atoms: S_16  and  C_17
REMARK   11  A    between atoms: C_17  and  C_18
REMARK                            x       y       z     vdW  Elec       q    Type
REMARK                         _______ _______ _______ _____ _____    ______ ____
ROOT
ATOM      1  N   UNL     1       3.457   6.812  18.121  0.00  0.00    +0.000 N 
ATOM      2  C   UNL     1       3.709   5.788  19.014  0.00  0.00    +0.000 A 
ATOM      3  N   UNL     1       4.890   5.491  19.451  0.00  0.00    +0.000 NA
ATOM      4  C   UNL     1       5.912   5.636  18.503  0.00  0.00    +0.000 A 
ATOM      5  C   UNL     1       7.051   4.848  18.689  0.00  0.00    +0.000 A 
ATOM      6  C   UNL     1       7.744   4.359  17.582  0.00  0.00    +0.000 A 
ATOM      7  C   UNL     1       7.322   4.698  16.296  0.00  0.00    +0.000 A 
ATOM      8  C   UNL     1       6.287   5.624  16.113  0.00  0.00    +0.000 A 
ATOM      9  C   UNL     1       5.607   6.122  17.228  0.00  0.00    +0.000 A 
ATOM     10  C   UNL     1       4.390   6.967  17.110  0.00  0.00    +0.000 A 
ATOM     11  O   UNL     1       4.227   7.651  16.103  0.00  0.00    +0.000 OA
ENDROOT
BRANCH   1  12
ATOM     12  C   UNL     1       2.126   7.442  17.992  0.00  0.00    +0.000 C 
BRANCH  12  16
ATOM     13  C   UNL     1       0.383   9.824  21.231  0.00  0.00    +0.000 A 
ATOM     14  C   UNL     1       0.338  10.282  19.905  0.00  0.00    +0.000 A 
ATOM     15  C   UNL     1       0.947   9.553  18.861  0.00  0.00    +0.000 A 
ATOM     16  C   UNL     1       1.618   8.350  19.116  0.00  0.00    +0.000 A 
ATOM     17  C   UNL     1       1.657   7.903  20.455  0.00  0.00    +0.000 A 
ATOM     18  C   UNL     1       1.052   8.628  21.498  0.00  0.00    +0.000 A 
BRANCH  13  20
ATOM     19  N   UNL     1      -0.990  11.683  22.038  0.00  0.00    +0.000 N 
ATOM     20  C   UNL     1      -0.230  10.582  22.383  0.00  0.00    +0.000 C 
ATOM     21  O   UNL     1      -0.069  10.196  23.532  0.00  0.00    +0.000 OA
ATOM     22  H   UNL     1      -1.174  11.887  21.066  0.00  0.00    +0.000 HD
BRANCH  19  23
ATOM     23  C   UNL     1      -1.578  12.575  23.035  0.00  0.00    +0.000 C 
BRANCH  23  24
ATOM     24  C   UNL     1      -2.940  12.085  23.538  0.00  0.00    +0.000 C 
BRANCH  24  26
ATOM     25  C   UNL     1      -4.062  14.384  23.491  0.00  0.00    +0.000 C 
ATOM     26  C   UNL     1      -3.780  13.123  24.310  0.00  0.00    +0.000 C 
ATOM     27  C   UNL     1      -5.107  12.499  24.753  0.00  0.00    +0.000 C 
ENDBRANCH  24  26
ENDBRANCH  23  24
ENDBRANCH  19  23
ENDBRANCH  13  20
ENDBRANCH  12  16
ENDBRANCH   1  12
BRANCH   2  28
ATOM     28  S   UNL     1       2.453   4.544  19.168  0.00  0.00    +0.000 S 
BRANCH  28  29
ATOM     29  C   UNL     1       3.485   3.074  19.518  0.00  0.00    +0.000 C 
BRANCH  29  30
ATOM     30  C   UNL     1       3.964   2.285  18.309  0.00  0.00    +0.000 C 
ATOM     31  N   UNL     1       4.212   0.955  18.435  0.00  0.00    +0.000 N 
ATOM     32  O   UNL     1       4.122   2.823  17.213  0.00  0.00    +0.000 OA
ATOM     33  H   UNL     1       3.993   0.446  19.279  0.00  0.00    +0.000 HD
ATOM     34  H   UNL     1       4.508   0.448  17.608  0.00  0.00    +0.000 HD
ENDBRANCH  29  30
ENDBRANCH  28  29
ENDBRANCH   2  28
TORSDOF 9
ENDMDL
MODEL 7
REMARK VINA RESULT:      -7.3      1.109      1.561
REMARK  Name = 
REMARK  11 active torsions:
REMARK  status: ('A' for Active; 'I' for Inactive)
REMARK    1  A    between atoms: C_1  and  C_2
REMARK    2  A    between atoms: C_2  and  C_3
REMARK    3  A    between atoms: C_2  and  C_4
REMARK    4  A    between atoms: C_4  and  C_5
REMARK    5  A    between atoms: C_5  and  N_6
REMARK    6  A    between atoms: C_7  and  C_9
REMARK    7  A    between atoms: C_12  and  C_13
REMARK    8  A    between atoms: C_13  and  N_14
REMARK    9  A    between atoms: C_15  and  S_16
REMARK   10  A    between atoms: S_16  and  C_17
REMARK   11  A    between atoms: C_17  and  C_18
REMARK                            x       y       z     vdW  Elec       q    Type
REMARK                         _______ _______ _______ _____ _____    ______ ____
ROOT
ATOM      1  N   UNL     1       2.216   6.967  18.864  0.00  0.00    +0.000 N 
ATOM      2  C   UNL     1       2.878   6.160  17.958  0.00  0.00    +0.000 A 
ATOM      3  N   UNL     1       2.546   4.935  17.711  0.00  0.00    +0.000 NA
ATOM      4  C   UNL     1       2.091   4.221  18.829  0.00  0.00    +0.000 A 
ATOM      5  C   UNL     1       2.246   2.833  18.786  0.00  0.00    +0.000 A 
ATOM      6  C   UNL     1       2.521   2.130  19.958  0.00  0.00    +0.000 A 
ATOM      7  C   UNL     1       2.594   2.812  21.174  0.00  0.00    +0.000 A 
ATOM      8  C   UNL     1       2.271   4.173  21.240  0.00  0.00    +0.000 A 
ATOM      9  C   UNL     1       1.981   4.868  20.062  0.00  0.00    +0.000 A 
ATOM     10  C   UNL     1       1.801   6.343  20.029  0.00  0.00    +0.000 A 
ATOM     11  O   UNL     1       1.415   6.926  21.038  0.00  0.00    +0.000 OA
ENDROOT
BRANCH   1  12
ATOM     12  C   UNL     1       2.279   8.443  18.806  0.00  0.00    +0.000 C 
BRANCH  12  16
ATOM     13  C   UNL     1      -1.250  11.021  19.135  0.00  0.00    +0.000 A 
ATOM     14  C   UNL     1      -0.361  10.887  20.213  0.00  0.00    +0.000 A 
ATOM     15  C   UNL     1       0.747  10.015  20.141  0.00  0.00    +0.000 A 
ATOM     16  C   UNL     1       0.993   9.253  18.992  0.00  0.00    +0.000 A 
ATOM     17  C   UNL     1       0.089   9.396  17.916  0.00  0.00    +0.000 A 
ATOM     18  C   UNL     1      -1.018  10.263  17.985  0.00  0.00    +0.000 A 
BRANCH  13  20
ATOM     19  N   UNL     1      -2.682  12.571  20.373  0.00  0.00    +0.000 N 
ATOM     20  C   UNL     1      -2.462  11.919  19.176  0.00  0.00    +0.000 C 
ATOM     21  O   UNL     1      -3.159  12.061  18.183  0.00  0.00    +0.000 OA
ATOM     22  H   UNL     1      -2.009  12.497  21.123  0.00  0.00    +0.000 HD
BRANCH  19  23
ATOM     23  C   UNL     1      -3.858  13.406  20.608  0.00  0.00    +0.000 C 
BRANCH  23  24
ATOM     24  C   UNL     1      -4.868  12.754  21.557  0.00  0.00    +0.000 C 
BRANCH  24  26
ATOM     25  C   UNL     1      -7.370  12.284  21.806  0.00  0.00    +0.000 C 
ATOM     26  C   UNL     1      -6.144  12.195  20.895  0.00  0.00    +0.000 C 
ATOM     27  C   UNL     1      -6.428  12.944  19.589  0.00  0.00    +0.000 C 
ENDBRANCH  24  26
ENDBRANCH  23  24
ENDBRANCH  19  23
ENDBRANCH  13  20
ENDBRANCH  12  16
ENDBRANCH   1  12
BRANCH   2  28
ATOM     28  S   UNL     1       4.519   6.660  17.504  0.00  0.00    +0.000 S 
BRANCH  28  29
ATOM     29  C   UNL     1       5.254   5.039  17.082  0.00  0.00    +0.000 C 
BRANCH  29  30
ATOM     30  C   UNL     1       6.157   4.415  18.135  0.00  0.00    +0.000 C 
ATOM     31  N   UNL     1       5.605   3.715  19.159  0.00  0.00    +0.000 N 
ATOM     32  O   UNL     1       7.382   4.521  18.074  0.00  0.00    +0.000 OA
ATOM     33  H   UNL     1       4.617   3.504  19.194  0.00  0.00    +0.000 HD
ATOM     34  H   UNL     1       6.230   3.289  19.835  0.00  0.00    +0.000 HD
ENDBRANCH  29  30
ENDBRANCH  28  29
ENDBRANCH   2  28
TORSDOF 9
ENDMDL
MODEL 8
REMARK VINA RESULT:      -7.3      1.869      2.256
REMARK  Name = 
REMARK  11 active torsions:
REMARK  status: ('A' for Active; 'I' for Inactive)
REMARK    1  A    between atoms: C_1  and  C_2
REMARK    2  A    between atoms: C_2  and  C_3
REMARK    3  A    between atoms: C_2  and  C_4
REMARK    4  A    between atoms: C_4  and  C_5
REMARK    5  A    between atoms: C_5  and  N_6
REMARK    6  A    between atoms: C_7  and  C_9
REMARK    7  A    between atoms: C_12  and  C_13
REMARK    8  A    between atoms: C_13  and  N_14
REMARK    9  A    between atoms: C_15  and  S_16
REMARK   10  A    between atoms: S_16  and  C_17
REMARK   11  A    between atoms: C_17  and  C_18
REMARK                            x       y       z     vdW  Elec       q    Type
REMARK                         _______ _______ _______ _____ _____    ______ ____
ROOT
ATOM      1  N   UNL     1       2.412   7.263  18.688  0.00  0.00    +0.000 N 
ATOM      2  C   UNL     1       3.104   6.410  17.849  0.00  0.00    +0.000 A 
ATOM      3  N   UNL     1       2.765   5.181  17.637  0.00  0.00    +0.000 NA
ATOM      4  C   UNL     1       2.246   4.520  18.759  0.00  0.00    +0.000 A 
ATOM      5  C   UNL     1       2.381   3.130  18.781  0.00  0.00    +0.000 A 
ATOM      6  C   UNL     1       2.589   2.473  19.993  0.00  0.00    +0.000 A 
ATOM      7  C   UNL     1       2.614   3.204  21.182  0.00  0.00    +0.000 A 
ATOM      8  C   UNL     1       2.309   4.571  21.176  0.00  0.00    +0.000 A 
ATOM      9  C   UNL     1       2.087   5.220  19.958  0.00  0.00    +0.000 A 
ATOM     10  C   UNL     1       1.932   6.694  19.856  0.00  0.00    +0.000 A 
ATOM     11  O   UNL     1       1.506   7.324  20.820  0.00  0.00    +0.000 OA
ENDROOT
BRANCH   1  12
ATOM     12  C   UNL     1       2.500   8.734  18.572  0.00  0.00    +0.000 C 
BRANCH  12  16
ATOM     13  C   UNL     1      -1.313  10.892  18.665  0.00  0.00    +0.000 A 
ATOM     14  C   UNL     1      -1.060   9.931  17.673  0.00  0.00    +0.000 A 
ATOM     15  C   UNL     1       0.185   9.272  17.597  0.00  0.00    +0.000 A 
ATOM     16  C   UNL     1       1.211   9.557  18.507  0.00  0.00    +0.000 A 
ATOM     17  C   UNL     1       0.943  10.527  19.499  0.00  0.00    +0.000 A 
ATOM     18  C   UNL     1      -0.298  11.187  19.577  0.00  0.00    +0.000 A 
BRANCH  13  20
ATOM     19  N   UNL     1      -2.839  12.293  19.968  0.00  0.00    +0.000 N 
ATOM     20  C   UNL     1      -2.618  11.642  18.770  0.00  0.00    +0.000 C 
ATOM     21  O   UNL     1      -3.389  11.676  17.823  0.00  0.00    +0.000 OA
ATOM     22  H   UNL     1      -2.116  12.317  20.673  0.00  0.00    +0.000 HD
BRANCH  19  23
ATOM     23  C   UNL     1      -4.089  12.990  20.265  0.00  0.00    +0.000 C 
BRANCH  23  24
ATOM     24  C   UNL     1      -4.414  13.011  21.762  0.00  0.00    +0.000 C 
BRANCH  24  26
ATOM     25  C   UNL     1      -2.545  14.239  23.004  0.00  0.00    +0.000 C 
ATOM     26  C   UNL     1      -3.203  12.890  22.711  0.00  0.00    +0.000 C 
ATOM     27  C   UNL     1      -3.634  12.238  24.029  0.00  0.00    +0.000 C 
ENDBRANCH  24  26
ENDBRANCH  23  24
ENDBRANCH  19  23
ENDBRANCH  13  20
ENDBRANCH  12  16
ENDBRANCH   1  12
BRANCH   2  28
ATOM     28  S   UNL     1       4.773   6.869  17.455  0.00  0.00    +0.000 S 
BRANCH  28  29
ATOM     29  C   UNL     1       5.690   5.518  18.280  0.00  0.00    +0.000 C 
BRANCH  29  30
ATOM     30  C   UNL     1       6.376   4.514  17.366  0.00  0.00    +0.000 C 
ATOM     31  N   UNL     1       5.627   3.605  16.690  0.00  0.00    +0.000 N 
ATOM     32  O   UNL     1       7.598   4.513  17.217  0.00  0.00    +0.000 OA
ATOM     33  H   UNL     1       4.617   3.635  16.692  0.00  0.00    +0.000 HD
ATOM     34  H   UNL     1       6.106   2.962  16.070  0.00  0.00    +0.000 HD
ENDBRANCH  29  30
ENDBRANCH  28  29
ENDBRANCH   2  28
TORSDOF 9
ENDMDL
MODEL 9
REMARK VINA RESULT:      -7.3      1.338      1.732
REMARK  Name = 
REMARK  11 active torsions:
REMARK  status: ('A' for Active; 'I' for Inactive)
REMARK    1  A    between atoms: C_1  and  C_2
REMARK    2  A    between atoms: C_2  and  C_3
REMARK    3  A    between atoms: C_2  and  C_4
REMARK    4  A    between atoms: C_4  and  C_5
REMARK    5  A    between atoms: C_5  and  N_6
REMARK    6  A    between atoms: C_7  and  C_9
REMARK    7  A    between atoms: C_12  and  C_13
REMARK    8  A    between atoms: C_13  and  N_14
REMARK    9  A    between atoms: C_15  and  S_16
REMARK   10  A    between atoms: S_16  and  C_17
REMARK   11  A    between atoms: C_17  and  C_18
REMARK                            x       y       z     vdW  Elec       q    Type
REMARK                         _______ _______ _______ _____ _____    ______ ____
ROOT
ATOM      1  N   UNL     1       2.392   6.934  18.689  0.00  0.00    +0.000 N 
ATOM      2  C   UNL     1       3.117   6.126  17.833  0.00  0.00    +0.000 A 
ATOM      3  N   UNL     1       2.834   4.885  17.607  0.00  0.00    +0.000 NA
ATOM      4  C   UNL     1       2.356   4.186  18.724  0.00  0.00    +0.000 A 
ATOM      5  C   UNL     1       2.556   2.803  18.726  0.00  0.00    +0.000 A 
ATOM      6  C   UNL     1       2.803   2.140  19.927  0.00  0.00    +0.000 A 
ATOM      7  C   UNL     1       2.804   2.856  21.126  0.00  0.00    +0.000 A 
ATOM      8  C   UNL     1       2.436   4.207  21.141  0.00  0.00    +0.000 A 
ATOM      9  C   UNL     1       2.174   4.861  19.934  0.00  0.00    +0.000 A 
ATOM     10  C   UNL     1       1.950   6.328  19.853  0.00  0.00    +0.000 A 
ATOM     11  O   UNL     1       1.503   6.924  20.829  0.00  0.00    +0.000 OA
ENDROOT
BRANCH   1  12
ATOM     12  C   UNL     1       2.411   8.409  18.593  0.00  0.00    +0.000 C 
BRANCH  12  16
ATOM     13  C   UNL     1      -1.196  10.881  18.872  0.00  0.00    +0.000 A 
ATOM     14  C   UNL     1      -0.266  10.855  19.923  0.00  0.00    +0.000 A 
ATOM     15  C   UNL     1       0.869  10.019  19.871  0.00  0.00    +0.000 A 
ATOM     16  C   UNL     1       1.104   9.186  18.769  0.00  0.00    +0.000 A 
ATOM     17  C   UNL     1       0.158   9.221  17.720  0.00  0.00    +0.000 A 
ATOM     18  C   UNL     1      -0.976  10.053  17.770  0.00  0.00    +0.000 A 
BRANCH  13  20
ATOM     19  N   UNL     1      -3.493  11.282  18.128  0.00  0.00    +0.000 N 
ATOM     20  C   UNL     1      -2.438  11.738  18.895  0.00  0.00    +0.000 C 
ATOM     21  O   UNL     1      -2.482  12.744  19.586  0.00  0.00    +0.000 OA
ATOM     22  H   UNL     1      -3.433  10.386  17.664  0.00  0.00    +0.000 HD
BRANCH  19  23
ATOM     23  C   UNL     1      -4.734  12.037  17.970  0.00  0.00    +0.000 C 
BRANCH  23  24
ATOM     24  C   UNL     1      -5.980  11.148  18.028  0.00  0.00    +0.000 C 
BRANCH  24  26
ATOM     25  C   UNL     1      -7.515  11.767  19.979  0.00  0.00    +0.000 C 
ATOM     26  C   UNL     1      -6.475  10.782  19.442  0.00  0.00    +0.000 C 
ATOM     27  C   UNL     1      -7.067   9.369  19.441  0.00  0.00    +0.000 C 
ENDBRANCH  24  26
ENDBRANCH  23  24
ENDBRANCH  19  23
ENDBRANCH  13  20
ENDBRANCH  12  16
ENDBRANCH   1  12
BRANCH   2  28
ATOM     28  S   UNL     1       4.759   6.667  17.433  0.00  0.00    +0.000 S 
BRANCH  28  29
ATOM     29  C   UNL     1       5.328   5.264  16.405  0.00  0.00    +0.000 C 
BRANCH  29  30
ATOM     30  C   UNL     1       6.829   5.157  16.184  0.00  0.00    +0.000 C 
ATOM     31  N   UNL     1       7.352   5.497  14.978  0.00  0.00    +0.000 N 
ATOM     32  O   UNL     1       7.584   4.778  17.080  0.00  0.00    +0.000 OA
ATOM     33  H   UNL     1       6.793   5.917  14.249  0.00  0.00    +0.000 HD
ATOM     34  H   UNL     1       8.359   5.438  14.864  0.00  0.00    +0.000 HD
ENDBRANCH  29  30
ENDBRANCH  28  29
ENDBRANCH   2  28
TORSDOF 9
ENDMDL
