MODEL 1
REMARK VINA RESULT:      -6.5      0.000      0.000
REMARK  Name = 
REMARK  2 active torsions:
REMARK  status: ('A' for Active; 'I' for Inactive)
REMARK    1  A    between atoms: C_13  and  C_14
REMARK    2  A    between atoms: C_17  and  O_18
REMARK                            x       y       z     vdW  Elec       q    Type
REMARK                         _______ _______ _______ _____ _____    ______ ____
ROOT
ATOM      1  O   UNL     1      -0.610  13.219  20.745  0.00  0.00    +0.000 OA
ATOM      2  C   UNL     1      -1.545  12.762  20.118  0.00  0.00    +0.000 C 
ATOM      3  C   UNL     1      -2.967  13.168  20.201  0.00  0.00    +0.000 C 
ATOM      4  C   UNL     1      -3.662  12.447  19.299  0.00  0.00    +0.000 C 
ATOM      5  N   UNL     1      -5.006  12.417  19.016  0.00  0.00    +0.000 N 
ATOM      6  C   UNL     1      -5.999  12.577  20.012  0.00  0.00    +0.000 A 
ATOM      7  C   UNL     1      -6.863  11.494  20.254  0.00  0.00    +0.000 A 
ATOM      8  C   UNL     1      -7.802  11.539  21.285  0.00  0.00    +0.000 A 
ATOM      9  C   UNL     1      -7.912  12.680  22.070  0.00  0.00    +0.000 A 
ATOM     10  C   UNL     1      -7.060  13.764  21.848  0.00  0.00    +0.000 A 
ATOM     11  C   UNL     1      -6.077  13.706  20.850  0.00  0.00    +0.000 A 
ATOM     12  S   UNL     1      -4.940  15.082  20.705  0.00  0.00    +0.000 S 
ATOM     13  C   UNL     1      -3.353  14.243  21.165  0.00  0.00    +0.000 C 
ATOM     14  C   UNL     1      -2.745  11.533  18.613  0.00  0.00    +0.000 A 
ATOM     15  C   UNL     1      -2.962  10.570  17.636  0.00  0.00    +0.000 A 
ATOM     16  C   UNL     1      -1.878   9.795  17.206  0.00  0.00    +0.000 A 
ATOM     17  C   UNL     1      -0.595   9.984  17.748  0.00  0.00    +0.000 A 
ATOM     18  C   UNL     1      -0.375  10.957  18.722  0.00  0.00    +0.000 A 
ATOM     19  C   UNL     1      -1.467  11.705  19.121  0.00  0.00    +0.000 A 
ATOM     20  H   UNL     1      -5.272  11.730  18.318  0.00  0.00    +0.000 HD
ENDROOT
BRANCH  13  21
ATOM     21  C   UNL     1      -3.376  13.823  22.633  0.00  0.00    +0.000 A 
ATOM     22  C   UNL     1      -3.758  12.531  23.041  0.00  0.00    +0.000 A 
ATOM     23  C   UNL     1      -3.936  12.228  24.393  0.00  0.00    +0.000 A 
ATOM     24  C   UNL     1      -3.702  13.209  25.349  0.00  0.00    +0.000 A 
ATOM     25  C   UNL     1      -3.249  14.468  24.980  0.00  0.00    +0.000 A 
ATOM     26  C   UNL     1      -3.094  14.777  23.627  0.00  0.00    +0.000 A 
BRANCH  24  27
ATOM     27  O   UNL     1      -3.931  12.973  26.672  0.00  0.00    +0.000 OA
ATOM     28  H   UNL     1      -4.891  12.956  26.815  0.00  0.00    +0.000 HD
ENDBRANCH  24  27
ENDBRANCH  13  21
TORSDOF 2
ENDMDL
MODEL 2
REMARK VINA RESULT:      -6.5      2.830      6.874
REMARK  Name = 
REMARK  2 active torsions:
REMARK  status: ('A' for Active; 'I' for Inactive)
REMARK    1  A    between atoms: C_13  and  C_14
REMARK    2  A    between atoms: C_17  and  O_18
REMARK                            x       y       z     vdW  Elec       q    Type
REMARK                         _______ _______ _______ _____ _____    ______ ____
ROOT
ATOM      1  O   UNL     1      -4.904  13.665  20.064  0.00  0.00    +0.000 OA
ATOM      2  C   UNL     1      -4.350  13.226  21.052  0.00  0.00    +0.000 C 
ATOM      3  C   UNL     1      -2.936  12.807  21.177  0.00  0.00    +0.000 C 
ATOM      4  C   UNL     1      -2.721  12.433  22.455  0.00  0.00    +0.000 C 
ATOM      5  N   UNL     1      -1.599  11.929  23.067  0.00  0.00    +0.000 N 
ATOM      6  C   UNL     1      -0.696  11.061  22.409  0.00  0.00    +0.000 A 
ATOM      7  C   UNL     1      -0.556   9.756  22.914  0.00  0.00    +0.000 A 
ATOM      8  C   UNL     1       0.240   8.813  22.263  0.00  0.00    +0.000 A 
ATOM      9  C   UNL     1       0.931   9.170  21.111  0.00  0.00    +0.000 A 
ATOM     10  C   UNL     1       0.802  10.459  20.592  0.00  0.00    +0.000 A 
ATOM     11  C   UNL     1      -0.038  11.396  21.210  0.00  0.00    +0.000 A 
ATOM     12  S   UNL     1      -0.253  12.988  20.417  0.00  0.00    +0.000 S 
ATOM     13  C   UNL     1      -2.050  12.893  19.977  0.00  0.00    +0.000 C 
ATOM     14  C   UNL     1      -3.972  12.566  23.206  0.00  0.00    +0.000 A 
ATOM     15  C   UNL     1      -4.289  12.283  24.527  0.00  0.00    +0.000 A 
ATOM     16  C   UNL     1      -5.612  12.460  24.953  0.00  0.00    +0.000 A 
ATOM     17  C   UNL     1      -6.601  12.916  24.065  0.00  0.00    +0.000 A 
ATOM     18  C   UNL     1      -6.281  13.209  22.740  0.00  0.00    +0.000 A 
ATOM     19  C   UNL     1      -4.966  13.024  22.356  0.00  0.00    +0.000 A 
ATOM     20  H   UNL     1      -1.732  11.676  24.041  0.00  0.00    +0.000 HD
ENDROOT
BRANCH  13  21
ATOM     21  C   UNL     1      -2.285  11.821  18.916  0.00  0.00    +0.000 A 
ATOM     22  C   UNL     1      -1.227  11.189  18.236  0.00  0.00    +0.000 A 
ATOM     23  C   UNL     1      -1.473  10.341  17.154  0.00  0.00    +0.000 A 
ATOM     24  C   UNL     1      -2.784  10.094  16.765  0.00  0.00    +0.000 A 
ATOM     25  C   UNL     1      -3.849  10.641  17.466  0.00  0.00    +0.000 A 
ATOM     26  C   UNL     1      -3.602  11.507  18.533  0.00  0.00    +0.000 A 
BRANCH  24  27
ATOM     27  O   UNL     1      -3.063   9.328  15.672  0.00  0.00    +0.000 OA
ATOM     28  H   UNL     1      -3.836   8.778  15.877  0.00  0.00    +0.000 HD
ENDBRANCH  24  27
ENDBRANCH  13  21
TORSDOF 2
ENDMDL
MODEL 3
REMARK VINA RESULT:      -6.4      3.057      6.044
REMARK  Name = 
REMARK  2 active torsions:
REMARK  status: ('A' for Active; 'I' for Inactive)
REMARK    1  A    between atoms: C_13  and  C_14
REMARK    2  A    between atoms: C_17  and  O_18
REMARK                            x       y       z     vdW  Elec       q    Type
REMARK                         _______ _______ _______ _____ _____    ______ ____
ROOT
ATOM      1  O   UNL     1      -3.523   9.708  17.454  0.00  0.00    +0.000 OA
ATOM      2  C   UNL     1      -3.763  10.673  18.152  0.00  0.00    +0.000 C 
ATOM      3  C   UNL     1      -2.811  11.718  18.597  0.00  0.00    +0.000 C 
ATOM      4  C   UNL     1      -3.498  12.633  19.310  0.00  0.00    +0.000 C 
ATOM      5  N   UNL     1      -3.074  13.761  19.969  0.00  0.00    +0.000 N 
ATOM      6  C   UNL     1      -1.823  13.835  20.627  0.00  0.00    +0.000 A 
ATOM      7  C   UNL     1      -1.826  14.018  22.021  0.00  0.00    +0.000 A 
ATOM      8  C   UNL     1      -0.637  14.003  22.752  0.00  0.00    +0.000 A 
ATOM      9  C   UNL     1       0.576  13.835  22.095  0.00  0.00    +0.000 A 
ATOM     10  C   UNL     1       0.599  13.648  20.711  0.00  0.00    +0.000 A 
ATOM     11  C   UNL     1      -0.595  13.607  19.977  0.00  0.00    +0.000 A 
ATOM     12  S   UNL     1      -0.496  13.238  18.227  0.00  0.00    +0.000 S 
ATOM     13  C   UNL     1      -1.379  11.609  18.187  0.00  0.00    +0.000 C 
ATOM     14  C   UNL     1      -4.903  12.222  19.383  0.00  0.00    +0.000 A 
ATOM     15  C   UNL     1      -5.998  12.792  20.019  0.00  0.00    +0.000 A 
ATOM     16  C   UNL     1      -7.229  12.126  19.959  0.00  0.00    +0.000 A 
ATOM     17  C   UNL     1      -7.359  10.908  19.271  0.00  0.00    +0.000 A 
ATOM     18  C   UNL     1      -6.261  10.341  18.625  0.00  0.00    +0.000 A 
ATOM     19  C   UNL     1      -5.063  11.026  18.703  0.00  0.00    +0.000 A 
ATOM     20  H   UNL     1      -3.804  14.247  20.481  0.00  0.00    +0.000 HD
ENDROOT
BRANCH  13  21
ATOM     21  C   UNL     1      -0.570  10.544  18.924  0.00  0.00    +0.000 A 
ATOM     22  C   UNL     1      -0.824  10.198  20.264  0.00  0.00    +0.000 A 
ATOM     23  C   UNL     1       0.038   9.351  20.963  0.00  0.00    +0.000 A 
ATOM     24  C   UNL     1       1.144   8.816  20.314  0.00  0.00    +0.000 A 
ATOM     25  C   UNL     1       1.376   9.077  18.971  0.00  0.00    +0.000 A 
ATOM     26  C   UNL     1       0.527   9.944  18.279  0.00  0.00    +0.000 A 
BRANCH  24  27
ATOM     27  O   UNL     1       2.046   8.040  20.980  0.00  0.00    +0.000 OA
ATOM     28  H   UNL     1       2.784   7.851  20.379  0.00  0.00    +0.000 HD
ENDBRANCH  24  27
ENDBRANCH  13  21
TORSDOF 2
ENDMDL
MODEL 4
REMARK VINA RESULT:      -6.3      9.854     11.945
REMARK  Name = 
REMARK  2 active torsions:
REMARK  status: ('A' for Active; 'I' for Inactive)
REMARK    1  A    between atoms: C_13  and  C_14
REMARK    2  A    between atoms: C_17  and  O_18
REMARK                            x       y       z     vdW  Elec       q    Type
REMARK                         _______ _______ _______ _____ _____    ______ ____
ROOT
ATOM      1  O   UNL     1      10.423  14.501  21.966  0.00  0.00    +0.000 OA
ATOM      2  C   UNL     1      10.001  14.358  20.836  0.00  0.00    +0.000 C 
ATOM      3  C   UNL     1       8.940  15.146  20.168  0.00  0.00    +0.000 C 
ATOM      4  C   UNL     1       8.816  14.695  18.903  0.00  0.00    +0.000 C 
ATOM      5  N   UNL     1       7.954  15.062  17.899  0.00  0.00    +0.000 N 
ATOM      6  C   UNL     1       6.615  15.449  18.146  0.00  0.00    +0.000 A 
ATOM      7  C   UNL     1       5.591  14.645  17.613  0.00  0.00    +0.000 A 
ATOM      8  C   UNL     1       4.250  14.906  17.895  0.00  0.00    +0.000 A 
ATOM      9  C   UNL     1       3.911  15.993  18.692  0.00  0.00    +0.000 A 
ATOM     10  C   UNL     1       4.913  16.800  19.234  0.00  0.00    +0.000 A 
ATOM     11  C   UNL     1       6.265  16.513  19.000  0.00  0.00    +0.000 A 
ATOM     12  S   UNL     1       7.496  17.515  19.830  0.00  0.00    +0.000 S 
ATOM     13  C   UNL     1       8.266  16.240  20.932  0.00  0.00    +0.000 C 
ATOM     14  C   UNL     1       9.759  13.592  18.698  0.00  0.00    +0.000 A 
ATOM     15  C   UNL     1      10.000  12.778  17.600  0.00  0.00    +0.000 A 
ATOM     16  C   UNL     1      10.941  11.748  17.723  0.00  0.00    +0.000 A 
ATOM     17  C   UNL     1      11.631  11.540  18.929  0.00  0.00    +0.000 A 
ATOM     18  C   UNL     1      11.396  12.363  20.029  0.00  0.00    +0.000 A 
ATOM     19  C   UNL     1      10.462  13.370  19.871  0.00  0.00    +0.000 A 
ATOM     20  H   UNL     1       8.042  14.512  17.050  0.00  0.00    +0.000 HD
ENDROOT
BRANCH  13  21
ATOM     21  C   UNL     1       7.268  15.775  21.990  0.00  0.00    +0.000 A 
ATOM     22  C   UNL     1       7.081  16.462  23.203  0.00  0.00    +0.000 A 
ATOM     23  C   UNL     1       6.293  15.921  24.221  0.00  0.00    +0.000 A 
ATOM     24  C   UNL     1       5.658  14.702  24.019  0.00  0.00    +0.000 A 
ATOM     25  C   UNL     1       5.761  14.040  22.804  0.00  0.00    +0.000 A 
ATOM     26  C   UNL     1       6.568  14.570  21.794  0.00  0.00    +0.000 A 
BRANCH  24  27
ATOM     27  O   UNL     1       4.937  14.108  25.012  0.00  0.00    +0.000 OA
ATOM     28  H   UNL     1       4.005  14.357  24.899  0.00  0.00    +0.000 HD
ENDBRANCH  24  27
ENDBRANCH  13  21
TORSDOF 2
ENDMDL
MODEL 5
REMARK VINA RESULT:      -6.2      9.893     11.940
REMARK  Name = 
REMARK  2 active torsions:
REMARK  status: ('A' for Active; 'I' for Inactive)
REMARK    1  A    between atoms: C_13  and  C_14
REMARK    2  A    between atoms: C_17  and  O_18
REMARK                            x       y       z     vdW  Elec       q    Type
REMARK                         _______ _______ _______ _____ _____    ______ ____
ROOT
ATOM      1  O   UNL     1      10.540  14.712  21.864  0.00  0.00    +0.000 OA
ATOM      2  C   UNL     1      10.074  14.495  20.764  0.00  0.00    +0.000 C 
ATOM      3  C   UNL     1       8.999  15.250  20.079  0.00  0.00    +0.000 C 
ATOM      4  C   UNL     1       8.823  14.711  18.856  0.00  0.00    +0.000 C 
ATOM      5  N   UNL     1       7.929  15.018  17.859  0.00  0.00    +0.000 N 
ATOM      6  C   UNL     1       6.606  15.443  18.126  0.00  0.00    +0.000 A 
ATOM      7  C   UNL     1       5.552  14.619  17.691  0.00  0.00    +0.000 A 
ATOM      8  C   UNL     1       4.226  14.921  18.001  0.00  0.00    +0.000 A 
ATOM      9  C   UNL     1       3.930  16.068  18.729  0.00  0.00    +0.000 A 
ATOM     10  C   UNL     1       4.963  16.896  19.174  0.00  0.00    +0.000 A 
ATOM     11  C   UNL     1       6.301  16.571  18.913  0.00  0.00    +0.000 A 
ATOM     12  S   UNL     1       7.575  17.611  19.622  0.00  0.00    +0.000 S 
ATOM     13  C   UNL     1       8.369  16.406  20.785  0.00  0.00    +0.000 C 
ATOM     14  C   UNL     1       9.743  13.582  18.697  0.00  0.00    +0.000 A 
ATOM     15  C   UNL     1       9.932  12.687  17.653  0.00  0.00    +0.000 A 
ATOM     16  C   UNL     1      10.864  11.654  17.816  0.00  0.00    +0.000 A 
ATOM     17  C   UNL     1      11.595  11.522  19.008  0.00  0.00    +0.000 A 
ATOM     18  C   UNL     1      11.412  12.426  20.053  0.00  0.00    +0.000 A 
ATOM     19  C   UNL     1      10.486  13.434  19.857  0.00  0.00    +0.000 A 
ATOM     20  H   UNL     1       7.978  14.407  17.050  0.00  0.00    +0.000 HD
ENDROOT
BRANCH  13  21
ATOM     21  C   UNL     1       7.405  16.034  21.910  0.00  0.00    +0.000 A 
ATOM     22  C   UNL     1       6.664  14.838  21.902  0.00  0.00    +0.000 A 
ATOM     23  C   UNL     1       5.665  14.605  22.851  0.00  0.00    +0.000 A 
ATOM     24  C   UNL     1       5.425  15.556  23.835  0.00  0.00    +0.000 A 
ATOM     25  C   UNL     1       6.193  16.708  23.915  0.00  0.00    +0.000 A 
ATOM     26  C   UNL     1       7.175  16.951  22.951  0.00  0.00    +0.000 A 
BRANCH  24  27
ATOM     27  O   UNL     1       4.414  15.397  24.737  0.00  0.00    +0.000 OA
ATOM     28  H   UNL     1       4.629  14.636  25.301  0.00  0.00    +0.000 HD
ENDBRANCH  24  27
ENDBRANCH  13  21
TORSDOF 2
ENDMDL
MODEL 6
REMARK VINA RESULT:      -6.2      0.585      1.150
REMARK  Name = 
REMARK  2 active torsions:
REMARK  status: ('A' for Active; 'I' for Inactive)
REMARK    1  A    between atoms: C_13  and  C_14
REMARK    2  A    between atoms: C_17  and  O_18
REMARK                            x       y       z     vdW  Elec       q    Type
REMARK                         _______ _______ _______ _____ _____    ______ ____
ROOT
ATOM      1  O   UNL     1      -0.469  13.592  21.430  0.00  0.00    +0.000 OA
ATOM      2  C   UNL     1      -1.252  13.042  20.681  0.00  0.00    +0.000 C 
ATOM      3  C   UNL     1      -2.685  13.363  20.488  0.00  0.00    +0.000 C 
ATOM      4  C   UNL     1      -3.170  12.548  19.528  0.00  0.00    +0.000 C 
ATOM      5  N   UNL     1      -4.439  12.419  19.017  0.00  0.00    +0.000 N 
ATOM      6  C   UNL     1      -5.600  12.572  19.811  0.00  0.00    +0.000 A 
ATOM      7  C   UNL     1      -6.437  11.453  19.972  0.00  0.00    +0.000 A 
ATOM      8  C   UNL     1      -7.546  11.498  20.816  0.00  0.00    +0.000 A 
ATOM      9  C   UNL     1      -7.852  12.673  21.492  0.00  0.00    +0.000 A 
ATOM     10  C   UNL     1      -7.032  13.794  21.349  0.00  0.00    +0.000 A 
ATOM     11  C   UNL     1      -5.885  13.740  20.545  0.00  0.00    +0.000 A 
ATOM     12  S   UNL     1      -4.812  15.174  20.509  0.00  0.00    +0.000 S 
ATOM     13  C   UNL     1      -3.292  14.464  21.294  0.00  0.00    +0.000 C 
ATOM     14  C   UNL     1      -2.100  11.656  19.076  0.00  0.00    +0.000 A 
ATOM     15  C   UNL     1      -2.089  10.628  18.143  0.00  0.00    +0.000 A 
ATOM     16  C   UNL     1      -0.907   9.899  17.963  0.00  0.00    +0.000 A 
ATOM     17  C   UNL     1       0.247  10.198  18.706  0.00  0.00    +0.000 A 
ATOM     18  C   UNL     1       0.240  11.237  19.635  0.00  0.00    +0.000 A 
ATOM     19  C   UNL     1      -0.943  11.937  19.786  0.00  0.00    +0.000 A 
ATOM     20  H   UNL     1      -4.540  11.678  18.331  0.00  0.00    +0.000 HD
ENDROOT
BRANCH  13  21
ATOM     21  C   UNL     1      -3.555  14.128  22.761  0.00  0.00    +0.000 A 
ATOM     22  C   UNL     1      -3.318  15.048  23.799  0.00  0.00    +0.000 A 
ATOM     23  C   UNL     1      -3.402  14.658  25.137  0.00  0.00    +0.000 A 
ATOM     24  C   UNL     1      -3.756  13.350  25.446  0.00  0.00    +0.000 A 
ATOM     25  C   UNL     1      -4.072  12.443  24.445  0.00  0.00    +0.000 A 
ATOM     26  C   UNL     1      -3.965  12.827  23.106  0.00  0.00    +0.000 A 
BRANCH  24  27
ATOM     27  O   UNL     1      -3.782  12.913  26.737  0.00  0.00    +0.000 OA
ATOM     28  H   UNL     1      -4.649  12.510  26.903  0.00  0.00    +0.000 HD
ENDBRANCH  24  27
ENDBRANCH  13  21
TORSDOF 2
ENDMDL
MODEL 7
REMARK VINA RESULT:      -6.0      3.914      6.605
REMARK  Name = 
REMARK  2 active torsions:
REMARK  status: ('A' for Active; 'I' for Inactive)
REMARK    1  A    between atoms: C_13  and  C_14
REMARK    2  A    between atoms: C_17  and  O_18
REMARK                            x       y       z     vdW  Elec       q    Type
REMARK                         _______ _______ _______ _____ _____    ______ ____
ROOT
ATOM      1  O   UNL     1       2.558  12.223  17.633  0.00  0.00    +0.000 OA
ATOM      2  C   UNL     1       2.334  12.966  18.567  0.00  0.00    +0.000 C 
ATOM      3  C   UNL     1       1.543  12.667  19.783  0.00  0.00    +0.000 C 
ATOM      4  C   UNL     1       1.588  13.748  20.589  0.00  0.00    +0.000 C 
ATOM      5  N   UNL     1       0.989  13.990  21.800  0.00  0.00    +0.000 N 
ATOM      6  C   UNL     1      -0.299  13.504  22.125  0.00  0.00    +0.000 A 
ATOM      7  C   UNL     1      -1.316  14.447  22.361  0.00  0.00    +0.000 A 
ATOM      8  C   UNL     1      -2.632  14.046  22.591  0.00  0.00    +0.000 A 
ATOM      9  C   UNL     1      -2.947  12.693  22.616  0.00  0.00    +0.000 A 
ATOM     10  C   UNL     1      -1.953  11.741  22.380  0.00  0.00    +0.000 A 
ATOM     11  C   UNL     1      -0.639  12.137  22.095  0.00  0.00    +0.000 A 
ATOM     12  S   UNL     1       0.554  10.868  21.678  0.00  0.00    +0.000 S 
ATOM     13  C   UNL     1       0.910  11.320  19.917  0.00  0.00    +0.000 C 
ATOM     14  C   UNL     1       2.379  14.794  19.935  0.00  0.00    +0.000 A 
ATOM     15  C   UNL     1       2.694  16.089  20.324  0.00  0.00    +0.000 A 
ATOM     16  C   UNL     1       3.434  16.892  19.446  0.00  0.00    +0.000 A 
ATOM     17  C   UNL     1       3.851  16.401  18.197  0.00  0.00    +0.000 A 
ATOM     18  C   UNL     1       3.542  15.098  17.810  0.00  0.00    +0.000 A 
ATOM     19  C   UNL     1       2.813  14.334  18.703  0.00  0.00    +0.000 A 
ATOM     20  H   UNL     1       1.149  14.923  22.167  0.00  0.00    +0.000 HD
ENDROOT
BRANCH  13  21
ATOM     21  C   UNL     1      -0.323  11.091  19.046  0.00  0.00    +0.000 A 
ATOM     22  C   UNL     1      -0.507   9.917  18.293  0.00  0.00    +0.000 A 
ATOM     23  C   UNL     1      -1.553   9.808  17.375  0.00  0.00    +0.000 A 
ATOM     24  C   UNL     1      -2.445  10.864  17.228  0.00  0.00    +0.000 A 
ATOM     25  C   UNL     1      -2.335  12.002  18.014  0.00  0.00    +0.000 A 
ATOM     26  C   UNL     1      -1.274  12.120  18.915  0.00  0.00    +0.000 A 
BRANCH  24  27
ATOM     27  O   UNL     1      -3.438  10.823  16.295  0.00  0.00    +0.000 OA
ATOM     28  H   UNL     1      -3.846  11.703  16.249  0.00  0.00    +0.000 HD
ENDBRANCH  24  27
ENDBRANCH  13  21
TORSDOF 2
ENDMDL
MODEL 8
REMARK VINA RESULT:      -6.0      3.451      5.809
REMARK  Name = 
REMARK  2 active torsions:
REMARK  status: ('A' for Active; 'I' for Inactive)
REMARK    1  A    between atoms: C_13  and  C_14
REMARK    2  A    between atoms: C_17  and  O_18
REMARK                            x       y       z     vdW  Elec       q    Type
REMARK                         _______ _______ _______ _____ _____    ______ ____
ROOT
ATOM      1  O   UNL     1      -4.305  12.654  19.815  0.00  0.00    +0.000 OA
ATOM      2  C   UNL     1      -3.366  12.137  19.243  0.00  0.00    +0.000 C 
ATOM      3  C   UNL     1      -1.958  12.082  19.697  0.00  0.00    +0.000 C 
ATOM      4  C   UNL     1      -1.254  11.371  18.793  0.00  0.00    +0.000 C 
ATOM      5  N   UNL     1       0.085  11.070  18.732  0.00  0.00    +0.000 N 
ATOM      6  C   UNL     1       1.089  11.970  19.162  0.00  0.00    +0.000 A 
ATOM      7  C   UNL     1       1.993  12.453  18.199  0.00  0.00    +0.000 A 
ATOM      8  C   UNL     1       2.948  13.416  18.527  0.00  0.00    +0.000 A 
ATOM      9  C   UNL     1       3.033  13.889  19.831  0.00  0.00    +0.000 A 
ATOM     10  C   UNL     1       2.141  13.425  20.800  0.00  0.00    +0.000 A 
ATOM     11  C   UNL     1       1.144  12.498  20.467  0.00  0.00    +0.000 A 
ATOM     12  S   UNL     1      -0.041  12.044  21.730  0.00  0.00    +0.000 S 
ATOM     13  C   UNL     1      -1.591  12.738  20.989  0.00  0.00    +0.000 C 
ATOM     14  C   UNL     1      -2.152  10.957  17.711  0.00  0.00    +0.000 A 
ATOM     15  C   UNL     1      -1.919  10.245  16.542  0.00  0.00    +0.000 A 
ATOM     16  C   UNL     1      -2.984  10.049  15.654  0.00  0.00    +0.000 A 
ATOM     17  C   UNL     1      -4.263  10.558  15.935  0.00  0.00    +0.000 A 
ATOM     18  C   UNL     1      -4.499  11.265  17.114  0.00  0.00    +0.000 A 
ATOM     19  C   UNL     1      -3.426  11.437  17.968  0.00  0.00    +0.000 A 
ATOM     20  H   UNL     1       0.362  10.559  17.900  0.00  0.00    +0.000 HD
ENDROOT
BRANCH  13  21
ATOM     21  C   UNL     1      -1.528  14.263  20.949  0.00  0.00    +0.000 A 
ATOM     22  C   UNL     1      -1.117  14.971  19.805  0.00  0.00    +0.000 A 
ATOM     23  C   UNL     1      -0.904  16.350  19.851  0.00  0.00    +0.000 A 
ATOM     24  C   UNL     1      -1.133  17.037  21.038  0.00  0.00    +0.000 A 
ATOM     25  C   UNL     1      -1.614  16.377  22.159  0.00  0.00    +0.000 A 
ATOM     26  C   UNL     1      -1.804  14.994  22.119  0.00  0.00    +0.000 A 
BRANCH  24  27
ATOM     27  O   UNL     1      -0.871  18.371  21.143  0.00  0.00    +0.000 OA
ATOM     28  H   UNL     1      -1.249  18.688  21.978  0.00  0.00    +0.000 HD
ENDBRANCH  24  27
ENDBRANCH  13  21
TORSDOF 2
ENDMDL
MODEL 9
REMARK VINA RESULT:      -6.0      9.535     12.320
REMARK  Name = 
REMARK  2 active torsions:
REMARK  status: ('A' for Active; 'I' for Inactive)
REMARK    1  A    between atoms: C_13  and  C_14
REMARK    2  A    between atoms: C_17  and  O_18
REMARK                            x       y       z     vdW  Elec       q    Type
REMARK                         _______ _______ _______ _____ _____    ______ ____
ROOT
ATOM      1  O   UNL     1       7.381  15.887  18.280  0.00  0.00    +0.000 OA
ATOM      2  C   UNL     1       6.609  15.489  19.129  0.00  0.00    +0.000 C 
ATOM      3  C   UNL     1       6.905  15.216  20.554  0.00  0.00    +0.000 C 
ATOM      4  C   UNL     1       5.758  14.843  21.156  0.00  0.00    +0.000 C 
ATOM      5  N   UNL     1       5.509  14.446  22.448  0.00  0.00    +0.000 N 
ATOM      6  C   UNL     1       6.434  13.690  23.205  0.00  0.00    +0.000 A 
ATOM      7  C   UNL     1       6.051  12.397  23.605  0.00  0.00    +0.000 A 
ATOM      8  C   UNL     1       6.943  11.554  24.269  0.00  0.00    +0.000 A 
ATOM      9  C   UNL     1       8.224  12.003  24.570  0.00  0.00    +0.000 A 
ATOM     10  C   UNL     1       8.624  13.282  24.178  0.00  0.00    +0.000 A 
ATOM     11  C   UNL     1       7.752  14.115  23.462  0.00  0.00    +0.000 A 
ATOM     12  S   UNL     1       8.376  15.691  22.883  0.00  0.00    +0.000 S 
ATOM     13  C   UNL     1       8.300  15.418  21.051  0.00  0.00    +0.000 C 
ATOM     14  C   UNL     1       4.682  14.830  20.162  0.00  0.00    +0.000 A 
ATOM     15  C   UNL     1       3.339  14.490  20.261  0.00  0.00    +0.000 A 
ATOM     16  C   UNL     1       2.553  14.521  19.102  0.00  0.00    +0.000 A 
ATOM     17  C   UNL     1       3.105  14.888  17.863  0.00  0.00    +0.000 A 
ATOM     18  C   UNL     1       4.451  15.238  17.766  0.00  0.00    +0.000 A 
ATOM     19  C   UNL     1       5.197  15.199  18.929  0.00  0.00    +0.000 A 
ATOM     20  H   UNL     1       4.550  14.162  22.621  0.00  0.00    +0.000 HD
ENDROOT
BRANCH  13  21
ATOM     21  C   UNL     1       9.303  14.347  20.628  0.00  0.00    +0.000 A 
ATOM     22  C   UNL     1       8.975  12.979  20.595  0.00  0.00    +0.000 A 
ATOM     23  C   UNL     1       9.956  12.010  20.373  0.00  0.00    +0.000 A 
ATOM     24  C   UNL     1      11.269  12.407  20.149  0.00  0.00    +0.000 A 
ATOM     25  C   UNL     1      11.606  13.752  20.099  0.00  0.00    +0.000 A 
ATOM     26  C   UNL     1      10.629  14.720  20.345  0.00  0.00    +0.000 A 
BRANCH  24  27
ATOM     27  O   UNL     1      12.267  11.491  19.997  0.00  0.00    +0.000 OA
ATOM     28  H   UNL     1      13.113  11.935  20.165  0.00  0.00    +0.000 HD
ENDBRANCH  24  27
ENDBRANCH  13  21
TORSDOF 2
ENDMDL
