MODEL 1
REMARK VINA RESULT:      -8.9      0.000      0.000
REMARK  Name = 
REMARK  4 active torsions:
REMARK  status: ('A' for Active; 'I' for Inactive)
REMARK    1  A    between atoms: C_2  and  C_3
REMARK    2  A    between atoms: C_3  and  C_4
REMARK    3  A    between atoms: C_4  and  C_5
REMARK    4  A    between atoms: C_22  and  C_23
REMARK                            x       y       z     vdW  Elec       q    Type
REMARK                         _______ _______ _______ _____ _____    ______ ____
ROOT
ATOM      1  O   UNL     1       3.660   7.466  16.810  0.00  0.00    +0.000 OA
ATOM      2  C   UNL     1       2.930   7.339  17.791  0.00  0.00    +0.000 C 
ATOM      3  N   UNL     1       3.114   6.350  18.748  0.00  0.00    +0.000 N 
ATOM      4  C   UNL     1       2.176   6.149  19.880  0.00  0.00    +0.000 C 
ATOM      5  C   UNL     1       1.734   4.679  20.008  0.00  0.00    +0.000 C 
ATOM      6  C   UNL     1       2.943   3.841  19.953  0.00  0.00    +0.000 A 
ATOM      7  N   UNL     1       3.082   2.539  20.330  0.00  0.00    +0.000 N 
ATOM      8  C   UNL     1       4.394   2.210  20.115  0.00  0.00    +0.000 A 
ATOM      9  N   UNL     1       5.082   3.225  19.627  0.00  0.00    +0.000 NA
ATOM     10  C   UNL     1       4.170   4.243  19.466  0.00  0.00    +0.000 A 
ATOM     11  C   UNL     1       4.438   5.628  18.887  0.00  0.00    +0.000 C 
ATOM     12  H   UNL     1       2.363   1.930  20.689  0.00  0.00    +0.000 HD
ENDROOT
BRANCH  11  13
ATOM     13  C   UNL     1       5.265   5.402  17.644  0.00  0.00    +0.000 A 
ATOM     14  C   UNL     1       4.870   4.575  16.587  0.00  0.00    +0.000 A 
ATOM     15  C   UNL     1       5.656   4.490  15.441  0.00  0.00    +0.000 A 
ATOM     16  C   UNL     1       6.823   5.232  15.384  0.00  0.00    +0.000 A 
ATOM     17  N   UNL     1       7.265   6.016  16.388  0.00  0.00    +0.000 NA
ATOM     18  C   UNL     1       6.475   6.082  17.487  0.00  0.00    +0.000 A 
ENDBRANCH  11  13
BRANCH   2  19
ATOM     19  C   UNL     1       1.702   8.240  17.926  0.00  0.00    +0.000 C 
BRANCH  19  20
ATOM     20  C   UNL     1       2.037   9.662  18.369  0.00  0.00    +0.000 C 
BRANCH  20  21
ATOM     21  C   UNL     1       0.966  10.230  19.271  0.00  0.00    +0.000 A 
ATOM     22  C   UNL     1      -0.107  10.954  18.701  0.00  0.00    +0.000 A 
ATOM     23  C   UNL     1      -1.082  11.554  19.500  0.00  0.00    +0.000 A 
ATOM     24  C   UNL     1      -0.968  11.402  20.861  0.00  0.00    +0.000 A 
ATOM     25  C   UNL     1       0.071  10.702  21.430  0.00  0.00    +0.000 A 
ATOM     26  C   UNL     1       1.057  10.111  20.667  0.00  0.00    +0.000 A 
ATOM     27  O   UNL     1      -0.002  10.683  22.788  0.00  0.00    +0.000 OA
ATOM     28  C   UNL     1      -1.230  11.411  23.002  0.00  0.00    +0.000 C 
ATOM     29  O   UNL     1      -1.826  11.905  21.787  0.00  0.00    +0.000 OA
ENDBRANCH  20  21
ENDBRANCH  19  20
ENDBRANCH   2  19
TORSDOF 4
ENDMDL
MODEL 2
REMARK VINA RESULT:      -8.8      1.598      2.025
REMARK  Name = 
REMARK  4 active torsions:
REMARK  status: ('A' for Active; 'I' for Inactive)
REMARK    1  A    between atoms: C_2  and  C_3
REMARK    2  A    between atoms: C_3  and  C_4
REMARK    3  A    between atoms: C_4  and  C_5
REMARK    4  A    between atoms: C_22  and  C_23
REMARK                            x       y       z     vdW  Elec       q    Type
REMARK                         _______ _______ _______ _____ _____    ______ ____
ROOT
ATOM      1  O   UNL     1       4.041   7.290  17.563  0.00  0.00    +0.000 OA
ATOM      2  C   UNL     1       3.204   6.972  18.404  0.00  0.00    +0.000 C 
ATOM      3  N   UNL     1       3.101   5.687  18.920  0.00  0.00    +0.000 N 
ATOM      4  C   UNL     1       2.032   5.289  19.869  0.00  0.00    +0.000 C 
ATOM      5  C   UNL     1       1.313   4.003  19.421  0.00  0.00    +0.000 C 
ATOM      6  C   UNL     1       2.345   3.007  19.083  0.00  0.00    +0.000 A 
ATOM      7  N   UNL     1       2.199   1.661  18.943  0.00  0.00    +0.000 N 
ATOM      8  C   UNL     1       3.443   1.164  18.653  0.00  0.00    +0.000 A 
ATOM      9  N   UNL     1       4.353   2.117  18.602  0.00  0.00    +0.000 NA
ATOM     10  C   UNL     1       3.668   3.291  18.815  0.00  0.00    +0.000 A 
ATOM     11  C   UNL     1       4.247   4.702  18.809  0.00  0.00    +0.000 C 
ATOM     12  H   UNL     1       1.347   1.129  19.027  0.00  0.00    +0.000 HD
ENDROOT
BRANCH  11  13
ATOM     13  C   UNL     1       5.140   4.776  17.594  0.00  0.00    +0.000 A 
ATOM     14  C   UNL     1       4.699   4.532  16.289  0.00  0.00    +0.000 A 
ATOM     15  C   UNL     1       5.572   4.705  15.218  0.00  0.00    +0.000 A 
ATOM     16  C   UNL     1       6.868   5.113  15.481  0.00  0.00    +0.000 A 
ATOM     17  N   UNL     1       7.352   5.327  16.722  0.00  0.00    +0.000 NA
ATOM     18  C   UNL     1       6.476   5.156  17.742  0.00  0.00    +0.000 A 
ENDBRANCH  11  13
BRANCH   2  19
ATOM     19  C   UNL     1       2.157   7.999  18.839  0.00  0.00    +0.000 C 
BRANCH  19  20
ATOM     20  C   UNL     1       1.874   9.062  17.781  0.00  0.00    +0.000 C 
BRANCH  20  21
ATOM     21  C   UNL     1       0.753   9.983  18.205  0.00  0.00    +0.000 A 
ATOM     22  C   UNL     1       1.024  11.029  19.117  0.00  0.00    +0.000 A 
ATOM     23  C   UNL     1       0.008  11.861  19.589  0.00  0.00    +0.000 A 
ATOM     24  C   UNL     1      -1.265  11.635  19.121  0.00  0.00    +0.000 A 
ATOM     25  C   UNL     1      -1.544  10.621  18.235  0.00  0.00    +0.000 A 
ATOM     26  C   UNL     1      -0.563   9.773  17.763  0.00  0.00    +0.000 A 
ATOM     27  O   UNL     1      -2.864  10.567  17.910  0.00  0.00    +0.000 OA
ATOM     28  C   UNL     1      -3.371  11.692  18.659  0.00  0.00    +0.000 C 
ATOM     29  O   UNL     1      -2.371  12.349  19.461  0.00  0.00    +0.000 OA
ENDBRANCH  20  21
ENDBRANCH  19  20
ENDBRANCH   2  19
TORSDOF 4
ENDMDL
MODEL 3
REMARK VINA RESULT:      -8.7      0.635      1.240
REMARK  Name = 
REMARK  4 active torsions:
REMARK  status: ('A' for Active; 'I' for Inactive)
REMARK    1  A    between atoms: C_2  and  C_3
REMARK    2  A    between atoms: C_3  and  C_4
REMARK    3  A    between atoms: C_4  and  C_5
REMARK    4  A    between atoms: C_22  and  C_23
REMARK                            x       y       z     vdW  Elec       q    Type
REMARK                         _______ _______ _______ _____ _____    ______ ____
ROOT
ATOM      1  O   UNL     1       3.574   7.462  17.024  0.00  0.00    +0.000 OA
ATOM      2  C   UNL     1       2.837   7.258  17.986  0.00  0.00    +0.000 C 
ATOM      3  N   UNL     1       3.042   6.223  18.889  0.00  0.00    +0.000 N 
ATOM      4  C   UNL     1       2.098   5.928  19.995  0.00  0.00    +0.000 C 
ATOM      5  C   UNL     1       1.703   4.440  20.036  0.00  0.00    +0.000 C 
ATOM      6  C   UNL     1       2.940   3.645  19.950  0.00  0.00    +0.000 A 
ATOM      7  N   UNL     1       3.117   2.331  20.256  0.00  0.00    +0.000 N 
ATOM      8  C   UNL     1       4.442   2.056  20.042  0.00  0.00    +0.000 A 
ATOM      9  N   UNL     1       5.102   3.119  19.620  0.00  0.00    +0.000 NA
ATOM     10  C   UNL     1       4.158   4.114  19.503  0.00  0.00    +0.000 A 
ATOM     11  C   UNL     1       4.387   5.537  19.006  0.00  0.00    +0.000 C 
ATOM     12  H   UNL     1       2.415   1.679  20.571  0.00  0.00    +0.000 HD
ENDROOT
BRANCH  11  13
ATOM     13  C   UNL     1       5.237   5.408  17.764  0.00  0.00    +0.000 A 
ATOM     14  C   UNL     1       4.882   4.628  16.658  0.00  0.00    +0.000 A 
ATOM     15  C   UNL     1       5.683   4.633  15.519  0.00  0.00    +0.000 A 
ATOM     16  C   UNL     1       6.825   5.415  15.519  0.00  0.00    +0.000 A 
ATOM     17  N   UNL     1       7.229   6.156  16.571  0.00  0.00    +0.000 NA
ATOM     18  C   UNL     1       6.424   6.135  17.661  0.00  0.00    +0.000 A 
ENDBRANCH  11  13
BRANCH   2  19
ATOM     19  C   UNL     1       1.578   8.109  18.154  0.00  0.00    +0.000 C 
BRANCH  19  20
ATOM     20  C   UNL     1       1.869   9.545  18.584  0.00  0.00    +0.000 C 
BRANCH  20  21
ATOM     21  C   UNL     1       1.170   9.890  19.879  0.00  0.00    +0.000 A 
ATOM     22  C   UNL     1       1.176   8.954  20.939  0.00  0.00    +0.000 A 
ATOM     23  C   UNL     1       0.488   9.201  22.128  0.00  0.00    +0.000 A 
ATOM     24  C   UNL     1      -0.183  10.396  22.235  0.00  0.00    +0.000 A 
ATOM     25  C   UNL     1      -0.199  11.315  21.212  0.00  0.00    +0.000 A 
ATOM     26  C   UNL     1       0.459  11.092  20.020  0.00  0.00    +0.000 A 
ATOM     27  O   UNL     1      -0.929  12.420  21.522  0.00  0.00    +0.000 OA
ATOM     28  C   UNL     1      -1.330  12.108  22.873  0.00  0.00    +0.000 C 
ATOM     29  O   UNL     1      -0.895  10.808  23.317  0.00  0.00    +0.000 OA
ENDBRANCH  20  21
ENDBRANCH  19  20
ENDBRANCH   2  19
TORSDOF 4
ENDMDL
MODEL 4
REMARK VINA RESULT:      -8.7      1.482      1.606
REMARK  Name = 
REMARK  4 active torsions:
REMARK  status: ('A' for Active; 'I' for Inactive)
REMARK    1  A    between atoms: C_2  and  C_3
REMARK    2  A    between atoms: C_3  and  C_4
REMARK    3  A    between atoms: C_4  and  C_5
REMARK    4  A    between atoms: C_22  and  C_23
REMARK                            x       y       z     vdW  Elec       q    Type
REMARK                         _______ _______ _______ _____ _____    ______ ____
ROOT
ATOM      1  O   UNL     1       4.042   7.310  17.578  0.00  0.00    +0.000 OA
ATOM      2  C   UNL     1       3.209   6.990  18.424  0.00  0.00    +0.000 C 
ATOM      3  N   UNL     1       3.103   5.701  18.929  0.00  0.00    +0.000 N 
ATOM      4  C   UNL     1       2.039   5.301  19.883  0.00  0.00    +0.000 C 
ATOM      5  C   UNL     1       1.308   4.023  19.429  0.00  0.00    +0.000 C 
ATOM      6  C   UNL     1       2.330   3.025  19.073  0.00  0.00    +0.000 A 
ATOM      7  N   UNL     1       2.175   1.680  18.923  0.00  0.00    +0.000 N 
ATOM      8  C   UNL     1       3.413   1.178  18.617  0.00  0.00    +0.000 A 
ATOM      9  N   UNL     1       4.329   2.126  18.567  0.00  0.00    +0.000 NA
ATOM     10  C   UNL     1       3.653   3.303  18.796  0.00  0.00    +0.000 A 
ATOM     11  C   UNL     1       4.241   4.710  18.799  0.00  0.00    +0.000 C 
ATOM     12  H   UNL     1       1.320   1.153  19.009  0.00  0.00    +0.000 HD
ENDROOT
BRANCH  11  13
ATOM     13  C   UNL     1       5.125   4.789  17.578  0.00  0.00    +0.000 A 
ATOM     14  C   UNL     1       4.671   4.558  16.274  0.00  0.00    +0.000 A 
ATOM     15  C   UNL     1       5.536   4.736  15.197  0.00  0.00    +0.000 A 
ATOM     16  C   UNL     1       6.837   5.135  15.453  0.00  0.00    +0.000 A 
ATOM     17  N   UNL     1       7.331   5.336  16.691  0.00  0.00    +0.000 NA
ATOM     18  C   UNL     1       6.464   5.161  17.717  0.00  0.00    +0.000 A 
ENDBRANCH  11  13
BRANCH   2  19
ATOM     19  C   UNL     1       2.173   8.019  18.877  0.00  0.00    +0.000 C 
BRANCH  19  20
ATOM     20  C   UNL     1       1.758   8.988  17.773  0.00  0.00    +0.000 C 
BRANCH  20  21
ATOM     21  C   UNL     1       0.624   9.884  18.218  0.00  0.00    +0.000 A 
ATOM     22  C   UNL     1      -0.668   9.683  17.682  0.00  0.00    +0.000 A 
ATOM     23  C   UNL     1      -1.730  10.527  18.012  0.00  0.00    +0.000 A 
ATOM     24  C   UNL     1      -1.474  11.553  18.891  0.00  0.00    +0.000 A 
ATOM     25  C   UNL     1      -0.222  11.761  19.420  0.00  0.00    +0.000 A 
ATOM     26  C   UNL     1       0.850  10.953  19.100  0.00  0.00    +0.000 A 
ATOM     27  O   UNL     1      -0.186  12.834  20.256  0.00  0.00    +0.000 OA
ATOM     28  C   UNL     1      -1.570  13.244  20.226  0.00  0.00    +0.000 C 
ATOM     29  O   UNL     1      -2.384  12.462  19.331  0.00  0.00    +0.000 OA
ENDBRANCH  20  21
ENDBRANCH  19  20
ENDBRANCH   2  19
TORSDOF 4
ENDMDL
MODEL 5
REMARK VINA RESULT:      -8.7      1.397      1.506
REMARK  Name = 
REMARK  4 active torsions:
REMARK  status: ('A' for Active; 'I' for Inactive)
REMARK    1  A    between atoms: C_2  and  C_3
REMARK    2  A    between atoms: C_3  and  C_4
REMARK    3  A    between atoms: C_4  and  C_5
REMARK    4  A    between atoms: C_22  and  C_23
REMARK                            x       y       z     vdW  Elec       q    Type
REMARK                         _______ _______ _______ _____ _____    ______ ____
ROOT
ATOM      1  O   UNL     1       3.756   7.423  16.821  0.00  0.00    +0.000 OA
ATOM      2  C   UNL     1       3.049   7.327  17.822  0.00  0.00    +0.000 C 
ATOM      3  N   UNL     1       3.221   6.335  18.778  0.00  0.00    +0.000 N 
ATOM      4  C   UNL     1       2.308   6.173  19.936  0.00  0.00    +0.000 C 
ATOM      5  C   UNL     1       1.815   4.721  20.083  0.00  0.00    +0.000 C 
ATOM      6  C   UNL     1       2.991   3.838  19.998  0.00  0.00    +0.000 A 
ATOM      7  N   UNL     1       3.091   2.534  20.377  0.00  0.00    +0.000 N 
ATOM      8  C   UNL     1       4.384   2.155  20.128  0.00  0.00    +0.000 A 
ATOM      9  N   UNL     1       5.095   3.142  19.617  0.00  0.00    +0.000 NA
ATOM     10  C   UNL     1       4.217   4.192  19.476  0.00  0.00    +0.000 A 
ATOM     11  C   UNL     1       4.521   5.564  18.884  0.00  0.00    +0.000 C 
ATOM     12  H   UNL     1       2.360   1.953  20.758  0.00  0.00    +0.000 HD
ENDROOT
BRANCH  11  13
ATOM     13  C   UNL     1       5.306   5.303  17.620  0.00  0.00    +0.000 A 
ATOM     14  C   UNL     1       4.852   4.485  16.580  0.00  0.00    +0.000 A 
ATOM     15  C   UNL     1       5.603   4.368  15.412  0.00  0.00    +0.000 A 
ATOM     16  C   UNL     1       6.793   5.068  15.319  0.00  0.00    +0.000 A 
ATOM     17  N   UNL     1       7.290   5.841  16.306  0.00  0.00    +0.000 NA
ATOM     18  C   UNL     1       6.534   5.940  17.426  0.00  0.00    +0.000 A 
ENDBRANCH  11  13
BRANCH   2  19
ATOM     19  C   UNL     1       1.859   8.274  17.986  0.00  0.00    +0.000 C 
BRANCH  19  20
ATOM     20  C   UNL     1       2.252   9.749  17.988  0.00  0.00    +0.000 C 
BRANCH  20  21
ATOM     21  C   UNL     1       1.139  10.620  18.525  0.00  0.00    +0.000 A 
ATOM     22  C   UNL     1      -0.171  10.096  18.608  0.00  0.00    +0.000 A 
ATOM     23  C   UNL     1      -1.242  10.884  19.033  0.00  0.00    +0.000 A 
ATOM     24  C   UNL     1      -0.971  12.185  19.384  0.00  0.00    +0.000 A 
ATOM     25  C   UNL     1       0.299  12.709  19.307  0.00  0.00    +0.000 A 
ATOM     26  C   UNL     1       1.374  11.959  18.876  0.00  0.00    +0.000 A 
ATOM     27  O   UNL     1       0.343  14.014  19.689  0.00  0.00    +0.000 OA
ATOM     28  C   UNL     1      -1.035  14.233  20.057  0.00  0.00    +0.000 C 
ATOM     29  O   UNL     1      -1.882  13.091  19.828  0.00  0.00    +0.000 OA
ENDBRANCH  20  21
ENDBRANCH  19  20
ENDBRANCH   2  19
TORSDOF 4
ENDMDL
MODEL 6
REMARK VINA RESULT:      -8.7      1.063      1.326
REMARK  Name = 
REMARK  4 active torsions:
REMARK  status: ('A' for Active; 'I' for Inactive)
REMARK    1  A    between atoms: C_2  and  C_3
REMARK    2  A    between atoms: C_3  and  C_4
REMARK    3  A    between atoms: C_4  and  C_5
REMARK    4  A    between atoms: C_22  and  C_23
REMARK                            x       y       z     vdW  Elec       q    Type
REMARK                         _______ _______ _______ _____ _____    ______ ____
ROOT
ATOM      1  O   UNL     1       3.673   7.426  16.793  0.00  0.00    +0.000 OA
ATOM      2  C   UNL     1       2.951   7.309  17.781  0.00  0.00    +0.000 C 
ATOM      3  N   UNL     1       3.145   6.330  18.746  0.00  0.00    +0.000 N 
ATOM      4  C   UNL     1       2.217   6.139  19.888  0.00  0.00    +0.000 C 
ATOM      5  C   UNL     1       1.779   4.669  20.036  0.00  0.00    +0.000 C 
ATOM      6  C   UNL     1       2.990   3.833  19.978  0.00  0.00    +0.000 A 
ATOM      7  N   UNL     1       3.134   2.536  20.368  0.00  0.00    +0.000 N 
ATOM      8  C   UNL     1       4.446   2.207  20.145  0.00  0.00    +0.000 A 
ATOM      9  N   UNL     1       5.127   3.218  19.641  0.00  0.00    +0.000 NA
ATOM     10  C   UNL     1       4.211   4.232  19.477  0.00  0.00    +0.000 A 
ATOM     11  C   UNL     1       4.472   5.612  18.881  0.00  0.00    +0.000 C 
ATOM     12  H   UNL     1       2.420   1.929  20.739  0.00  0.00    +0.000 HD
ENDROOT
BRANCH  11  13
ATOM     13  C   UNL     1       5.289   5.374  17.634  0.00  0.00    +0.000 A 
ATOM     14  C   UNL     1       4.886   4.536  16.589  0.00  0.00    +0.000 A 
ATOM     15  C   UNL     1       5.662   4.441  15.437  0.00  0.00    +0.000 A 
ATOM     16  C   UNL     1       6.828   5.184  15.363  0.00  0.00    +0.000 A 
ATOM     17  N   UNL     1       7.278   5.979  16.355  0.00  0.00    +0.000 NA
ATOM     18  C   UNL     1       6.497   6.055  17.461  0.00  0.00    +0.000 A 
ENDBRANCH  11  13
BRANCH   2  19
ATOM     19  C   UNL     1       1.722   8.209  17.917  0.00  0.00    +0.000 C 
BRANCH  19  20
ATOM     20  C   UNL     1       2.057   9.698  17.916  0.00  0.00    +0.000 C 
BRANCH  20  21
ATOM     21  C   UNL     1       1.472  10.400  19.120  0.00  0.00    +0.000 A 
ATOM     22  C   UNL     1       0.844   9.635  20.130  0.00  0.00    +0.000 A 
ATOM     23  C   UNL     1       0.231  10.245  21.226  0.00  0.00    +0.000 A 
ATOM     24  C   UNL     1       0.274  11.617  21.293  0.00  0.00    +0.000 A 
ATOM     25  C   UNL     1       0.879  12.374  20.317  0.00  0.00    +0.000 A 
ATOM     26  C   UNL     1       1.480  11.801  19.215  0.00  0.00    +0.000 A 
ATOM     27  O   UNL     1       0.798  13.708  20.574  0.00  0.00    +0.000 OA
ATOM     28  C   UNL     1       0.113  13.696  21.844  0.00  0.00    +0.000 C 
ATOM     29  O   UNL     1      -0.259  12.377  22.287  0.00  0.00    +0.000 OA
ENDBRANCH  20  21
ENDBRANCH  19  20
ENDBRANCH   2  19
TORSDOF 4
ENDMDL
MODEL 7
REMARK VINA RESULT:      -8.5      1.767      2.419
REMARK  Name = 
REMARK  4 active torsions:
REMARK  status: ('A' for Active; 'I' for Inactive)
REMARK    1  A    between atoms: C_2  and  C_3
REMARK    2  A    between atoms: C_3  and  C_4
REMARK    3  A    between atoms: C_4  and  C_5
REMARK    4  A    between atoms: C_22  and  C_23
REMARK                            x       y       z     vdW  Elec       q    Type
REMARK                         _______ _______ _______ _____ _____    ______ ____
ROOT
ATOM      1  O   UNL     1       3.442   7.797  17.632  0.00  0.00    +0.000 OA
ATOM      2  C   UNL     1       2.730   7.495  18.588  0.00  0.00    +0.000 C 
ATOM      3  N   UNL     1       2.917   6.339  19.334  0.00  0.00    +0.000 N 
ATOM      4  C   UNL     1       2.000   5.938  20.430  0.00  0.00    +0.000 C 
ATOM      5  C   UNL     1       1.535   4.476  20.286  0.00  0.00    +0.000 C 
ATOM      6  C   UNL     1       2.729   3.648  20.043  0.00  0.00    +0.000 A 
ATOM      7  N   UNL     1       2.853   2.298  20.162  0.00  0.00    +0.000 N 
ATOM      8  C   UNL     1       4.155   1.999  19.858  0.00  0.00    +0.000 A 
ATOM      9  N   UNL     1       4.849   3.079  19.555  0.00  0.00    +0.000 NA
ATOM     10  C   UNL     1       3.951   4.120  19.613  0.00  0.00    +0.000 A 
ATOM     11  C   UNL     1       4.231   5.587  19.302  0.00  0.00    +0.000 C 
ATOM     12  H   UNL     1       2.131   1.640  20.416  0.00  0.00    +0.000 HD
ENDROOT
BRANCH  11  13
ATOM     13  C   UNL     1       5.028   5.591  18.020  0.00  0.00    +0.000 A 
ATOM     14  C   UNL     1       6.290   6.182  17.892  0.00  0.00    +0.000 A 
ATOM     15  C   UNL     1       6.993   6.065  16.695  0.00  0.00    +0.000 A 
ATOM     16  C   UNL     1       6.411   5.364  15.653  0.00  0.00    +0.000 A 
ATOM     17  N   UNL     1       5.185   4.807  15.714  0.00  0.00    +0.000 NA
ATOM     18  C   UNL     1       4.529   4.932  16.894  0.00  0.00    +0.000 A 
ENDBRANCH  11  13
BRANCH   2  19
ATOM     19  C   UNL     1       1.521   8.369  18.921  0.00  0.00    +0.000 C 
BRANCH  19  20
ATOM     20  C   UNL     1       1.345   9.550  17.970  0.00  0.00    +0.000 C 
BRANCH  20  21
ATOM     21  C   UNL     1       0.010  10.231  18.171  0.00  0.00    +0.000 A 
ATOM     22  C   UNL     1      -0.080  11.331  19.055  0.00  0.00    +0.000 A 
ATOM     23  C   UNL     1      -1.303  11.948  19.323  0.00  0.00    +0.000 A 
ATOM     24  C   UNL     1      -2.415  11.455  18.682  0.00  0.00    +0.000 A 
ATOM     25  C   UNL     1      -2.343  10.385  17.821  0.00  0.00    +0.000 A 
ATOM     26  C   UNL     1      -1.151   9.746  17.548  0.00  0.00    +0.000 A 
ATOM     27  O   UNL     1      -3.558  10.054  17.306  0.00  0.00    +0.000 OA
ATOM     28  C   UNL     1      -4.391  11.068  17.908  0.00  0.00    +0.000 C 
ATOM     29  O   UNL     1      -3.681  11.934  18.813  0.00  0.00    +0.000 OA
ENDBRANCH  20  21
ENDBRANCH  19  20
ENDBRANCH   2  19
TORSDOF 4
ENDMDL
MODEL 8
REMARK VINA RESULT:      -8.5      1.395      1.881
REMARK  Name = 
REMARK  4 active torsions:
REMARK  status: ('A' for Active; 'I' for Inactive)
REMARK    1  A    between atoms: C_2  and  C_3
REMARK    2  A    between atoms: C_3  and  C_4
REMARK    3  A    between atoms: C_4  and  C_5
REMARK    4  A    between atoms: C_22  and  C_23
REMARK                            x       y       z     vdW  Elec       q    Type
REMARK                         _______ _______ _______ _____ _____    ______ ____
ROOT
ATOM      1  O   UNL     1       3.491   7.853  17.717  0.00  0.00    +0.000 OA
ATOM      2  C   UNL     1       2.770   7.551  18.665  0.00  0.00    +0.000 C 
ATOM      3  N   UNL     1       2.922   6.372  19.384  0.00  0.00    +0.000 N 
ATOM      4  C   UNL     1       1.993   5.973  20.470  0.00  0.00    +0.000 C 
ATOM      5  C   UNL     1       1.484   4.531  20.292  0.00  0.00    +0.000 C 
ATOM      6  C   UNL     1       2.651   3.672  20.029  0.00  0.00    +0.000 A 
ATOM      7  N   UNL     1       2.734   2.316  20.115  0.00  0.00    +0.000 N 
ATOM      8  C   UNL     1       4.026   1.985  19.803  0.00  0.00    +0.000 A 
ATOM      9  N   UNL     1       4.753   3.050  19.526  0.00  0.00    +0.000 NA
ATOM     10  C   UNL     1       3.888   4.117  19.608  0.00  0.00    +0.000 A 
ATOM     11  C   UNL     1       4.212   5.581  19.332  0.00  0.00    +0.000 C 
ATOM     12  H   UNL     1       1.993   1.675  20.354  0.00  0.00    +0.000 HD
ENDROOT
BRANCH  11  13
ATOM     13  C   UNL     1       5.009   5.592  18.050  0.00  0.00    +0.000 A 
ATOM     14  C   UNL     1       6.285   6.155  17.933  0.00  0.00    +0.000 A 
ATOM     15  C   UNL     1       6.985   6.045  16.734  0.00  0.00    +0.000 A 
ATOM     16  C   UNL     1       6.386   5.378  15.679  0.00  0.00    +0.000 A 
ATOM     17  N   UNL     1       5.147   4.849  15.730  0.00  0.00    +0.000 NA
ATOM     18  C   UNL     1       4.494   4.967  16.912  0.00  0.00    +0.000 A 
ENDBRANCH  11  13
BRANCH   2  19
ATOM     19  C   UNL     1       1.588   8.454  19.020  0.00  0.00    +0.000 C 
BRANCH  19  20
ATOM     20  C   UNL     1       1.099   9.302  17.849  0.00  0.00    +0.000 C 
BRANCH  20  21
ATOM     21  C   UNL     1      -0.201  10.001  18.174  0.00  0.00    +0.000 A 
ATOM     22  C   UNL     1      -1.302   9.856  17.299  0.00  0.00    +0.000 A 
ATOM     23  C   UNL     1      -2.501  10.535  17.523  0.00  0.00    +0.000 A 
ATOM     24  C   UNL     1      -2.575  11.340  18.635  0.00  0.00    +0.000 A 
ATOM     25  C   UNL     1      -1.512  11.492  19.494  0.00  0.00    +0.000 A 
ATOM     26  C   UNL     1      -0.310  10.845  19.291  0.00  0.00    +0.000 A 
ATOM     27  O   UNL     1      -1.794  12.339  20.521  0.00  0.00    +0.000 OA
ATOM     28  C   UNL     1      -3.171  12.663  20.231  0.00  0.00    +0.000 C 
ATOM     29  O   UNL     1      -3.660  12.065  19.015  0.00  0.00    +0.000 OA
ENDBRANCH  20  21
ENDBRANCH  19  20
ENDBRANCH   2  19
TORSDOF 4
ENDMDL
MODEL 9
REMARK VINA RESULT:      -8.5      1.509      3.529
REMARK  Name = 
REMARK  4 active torsions:
REMARK  status: ('A' for Active; 'I' for Inactive)
REMARK    1  A    between atoms: C_2  and  C_3
REMARK    2  A    between atoms: C_3  and  C_4
REMARK    3  A    between atoms: C_4  and  C_5
REMARK    4  A    between atoms: C_22  and  C_23
REMARK                            x       y       z     vdW  Elec       q    Type
REMARK                         _______ _______ _______ _____ _____    ______ ____
ROOT
ATOM      1  O   UNL     1       2.440   5.285  19.744  0.00  0.00    +0.000 OA
ATOM      2  C   UNL     1       2.746   6.270  19.075  0.00  0.00    +0.000 C 
ATOM      3  N   UNL     1       3.602   6.206  17.984  0.00  0.00    +0.000 N 
ATOM      4  C   UNL     1       4.037   7.412  17.237  0.00  0.00    +0.000 C 
ATOM      5  C   UNL     1       5.566   7.462  17.063  0.00  0.00    +0.000 C 
ATOM      6  C   UNL     1       6.005   6.146  16.569  0.00  0.00    +0.000 A 
ATOM      7  N   UNL     1       7.191   5.820  15.985  0.00  0.00    +0.000 N 
ATOM      8  C   UNL     1       7.118   4.487  15.675  0.00  0.00    +0.000 A 
ATOM      9  N   UNL     1       5.961   3.963  16.031  0.00  0.00    +0.000 NA
ATOM     10  C   UNL     1       5.270   4.981  16.646  0.00  0.00    +0.000 A 
ATOM     11  C   UNL     1       3.889   4.892  17.286  0.00  0.00    +0.000 C 
ATOM     12  H   UNL     1       7.975   6.431  15.818  0.00  0.00    +0.000 HD
ENDROOT
BRANCH  11  13
ATOM     13  C   UNL     1       3.898   3.629  18.113  0.00  0.00    +0.000 A 
ATOM     14  C   UNL     1       3.104   2.511  17.832  0.00  0.00    +0.000 A 
ATOM     15  C   UNL     1       3.239   1.355  18.596  0.00  0.00    +0.000 A 
ATOM     16  C   UNL     1       4.161   1.349  19.629  0.00  0.00    +0.000 A 
ATOM     17  N   UNL     1       4.924   2.410  19.961  0.00  0.00    +0.000 NA
ATOM     18  C   UNL     1       4.775   3.518  19.194  0.00  0.00    +0.000 A 
ENDBRANCH  11  13
BRANCH   2  19
ATOM     19  C   UNL     1       2.251   7.650  19.511  0.00  0.00    +0.000 C 
BRANCH  19  20
ATOM     20  C   UNL     1       1.467   7.628  20.821  0.00  0.00    +0.000 C 
BRANCH  20  21
ATOM     21  C   UNL     1       0.638   8.880  20.993  0.00  0.00    +0.000 A 
ATOM     22  C   UNL     1       0.364   9.689  19.866  0.00  0.00    +0.000 A 
ATOM     23  C   UNL     1      -0.340  10.888  19.989  0.00  0.00    +0.000 A 
ATOM     24  C   UNL     1      -0.769  11.246  21.245  0.00  0.00    +0.000 A 
ATOM     25  C   UNL     1      -0.508  10.469  22.350  0.00  0.00    +0.000 A 
ATOM     26  C   UNL     1       0.198   9.287  22.262  0.00  0.00    +0.000 A 
ATOM     27  O   UNL     1      -1.012  11.011  23.492  0.00  0.00    +0.000 OA
ATOM     28  C   UNL     1      -1.658  12.191  22.968  0.00  0.00    +0.000 C 
ATOM     29  O   UNL     1      -1.473  12.368  21.550  0.00  0.00    +0.000 OA
ENDBRANCH  20  21
ENDBRANCH  19  20
ENDBRANCH   2  19
TORSDOF 4
ENDMDL
