MODEL 1
REMARK VINA RESULT:      -7.9      0.000      0.000
REMARK  Name = 
REMARK  8 active torsions:
REMARK  status: ('A' for Active; 'I' for Inactive)
REMARK    1  A    between atoms: C_2  and  C_3
REMARK    2  A    between atoms: C_3  and  C_4
REMARK    3  A    between atoms: C_4  and  C_5
REMARK    4  A    between atoms: C_8  and  S_9
REMARK    5  A    between atoms: S_9  and  N_12
REMARK    6  A    between atoms: N_12  and  C_13
REMARK    7  A    between atoms: N_21  and  C_22
REMARK    8  A    between atoms: C_22  and  C_23
REMARK                            x       y       z     vdW  Elec       q    Type
REMARK                         _______ _______ _______ _____ _____    ______ ____
ROOT
ATOM      1  C   UNL     1       2.429   7.193  18.771  0.00  0.00    +0.000 A 
ATOM      2  C   UNL     1       1.850   7.573  19.988  0.00  0.00    +0.000 A 
ATOM      3  C   UNL     1       1.209   8.806  20.113  0.00  0.00    +0.000 A 
ATOM      4  C   UNL     1       1.175   9.691  19.032  0.00  0.00    +0.000 A 
ATOM      5  C   UNL     1       1.761   9.334  17.812  0.00  0.00    +0.000 A 
ATOM      6  C   UNL     1       2.399   8.093  17.693  0.00  0.00    +0.000 A 
ENDROOT
BRANCH   4   7
ATOM      7  S   UNL     1       0.346  11.254  19.233  0.00  0.00    +0.000 S 
ATOM      8  O   UNL     1      -0.365  11.193  20.492  0.00  0.00    +0.000 OA
ATOM      9  O   UNL     1       1.281  12.320  18.947  0.00  0.00    +0.000 OA
BRANCH   7  10
ATOM     10  N   UNL     1      -0.846  11.283  18.029  0.00  0.00    +0.000 NA
ATOM     11  H   UNL     1      -0.392  11.525  17.143  0.00  0.00    +0.000 HD
BRANCH  10  12
ATOM     12  C   UNL     1      -1.834  10.174  17.945  0.00  0.00    +0.000 C 
ATOM     13  C   UNL     1      -3.198  10.559  18.518  0.00  0.00    +0.000 C 
ATOM     14  C   UNL     1      -3.859  11.674  17.711  0.00  0.00    +0.000 C 
ATOM     15  C   UNL     1      -4.062  11.245  16.266  0.00  0.00    +0.000 C 
ATOM     16  C   UNL     1      -2.755  10.787  15.625  0.00  0.00    +0.000 C 
ATOM     17  C   UNL     1      -2.009   9.753  16.474  0.00  0.00    +0.000 C 
ENDBRANCH  10  12
ENDBRANCH   7  10
ENDBRANCH   4   7
BRANCH   1  18
ATOM     18  C   UNL     1       3.086   5.835  18.635  0.00  0.00    +0.000 C 
BRANCH  18  19
ATOM     19  C   UNL     1       4.235   5.632  19.631  0.00  0.00    +0.000 C 
BRANCH  19  21
ATOM     20  O   UNL     1       6.371   4.543  19.322  0.00  0.00    +0.000 OA
ATOM     21  C   UNL     1       5.545   5.347  18.911  0.00  0.00    +0.000 C 
ATOM     22  N   UNL     1       5.705   6.073  17.753  0.00  0.00    +0.000 N 
ATOM     23  H   UNL     1       4.987   6.724  17.465  0.00  0.00    +0.000 HD
BRANCH  22  24
ATOM     24  C   UNL     1       6.895   5.958  16.932  0.00  0.00    +0.000 C 
BRANCH  24  25
ATOM     25  C   UNL     1       6.609   5.191  15.668  0.00  0.00    +0.000 A 
ATOM     26  C   UNL     1       7.462   5.295  14.560  0.00  0.00    +0.000 A 
ATOM     27  C   UNL     1       7.190   4.584  13.388  0.00  0.00    +0.000 A 
ATOM     28  C   UNL     1       6.060   3.772  13.315  0.00  0.00    +0.000 A 
ATOM     29 CL   UNL     1       5.727   2.899  11.870  0.00  0.00    +0.000 Cl
ATOM     30  C   UNL     1       5.198   3.663  14.405  0.00  0.00    +0.000 A 
ATOM     31  C   UNL     1       5.471   4.375  15.576  0.00  0.00    +0.000 A 
ENDBRANCH  24  25
ENDBRANCH  22  24
ENDBRANCH  19  21
ENDBRANCH  18  19
ENDBRANCH   1  18
TORSDOF 8
ENDMDL
MODEL 2
REMARK VINA RESULT:      -7.8      7.064      8.761
REMARK  Name = 
REMARK  8 active torsions:
REMARK  status: ('A' for Active; 'I' for Inactive)
REMARK    1  A    between atoms: C_2  and  C_3
REMARK    2  A    between atoms: C_3  and  C_4
REMARK    3  A    between atoms: C_4  and  C_5
REMARK    4  A    between atoms: C_8  and  S_9
REMARK    5  A    between atoms: S_9  and  N_12
REMARK    6  A    between atoms: N_12  and  C_13
REMARK    7  A    between atoms: N_21  and  C_22
REMARK    8  A    between atoms: C_22  and  C_23
REMARK                            x       y       z     vdW  Elec       q    Type
REMARK                         _______ _______ _______ _____ _____    ______ ____
ROOT
ATOM      1  C   UNL     1       9.544  10.706  18.953  0.00  0.00    +0.000 A 
ATOM      2  C   UNL     1       9.467  11.540  20.075  0.00  0.00    +0.000 A 
ATOM      3  C   UNL     1       9.943  12.850  20.019  0.00  0.00    +0.000 A 
ATOM      4  C   UNL     1      10.539  13.330  18.850  0.00  0.00    +0.000 A 
ATOM      5  C   UNL     1      10.638  12.507  17.722  0.00  0.00    +0.000 A 
ATOM      6  C   UNL     1      10.155  11.194  17.785  0.00  0.00    +0.000 A 
ENDROOT
BRANCH   4   7
ATOM      7  S   UNL     1      11.131  15.009  18.820  0.00  0.00    +0.000 S 
ATOM      8  O   UNL     1      12.041  15.152  19.936  0.00  0.00    +0.000 OA
ATOM      9  O   UNL     1      11.535  15.338  17.471  0.00  0.00    +0.000 OA
BRANCH   7  10
ATOM     10  N   UNL     1       9.782  15.963  19.196  0.00  0.00    +0.000 NA
ATOM     11  H   UNL     1      10.100  16.739  19.785  0.00  0.00    +0.000 HD
BRANCH  10  12
ATOM     12  C   UNL     1       8.827  16.343  18.121  0.00  0.00    +0.000 C 
ATOM     13  C   UNL     1       7.782  15.261  17.854  0.00  0.00    +0.000 C 
ATOM     14  C   UNL     1       6.874  15.039  19.062  0.00  0.00    +0.000 C 
ATOM     15  C   UNL     1       6.139  16.320  19.425  0.00  0.00    +0.000 C 
ATOM     16  C   UNL     1       7.106  17.478  19.655  0.00  0.00    +0.000 C 
ATOM     17  C   UNL     1       8.109  17.648  18.510  0.00  0.00    +0.000 C 
ENDBRANCH  10  12
ENDBRANCH   7  10
ENDBRANCH   4   7
BRANCH   1  18
ATOM     18  C   UNL     1       8.988   9.299  19.012  0.00  0.00    +0.000 C 
BRANCH  18  19
ATOM     19  C   UNL     1       8.016   8.999  17.864  0.00  0.00    +0.000 C 
BRANCH  19  21
ATOM     20  O   UNL     1       8.101   6.697  18.600  0.00  0.00    +0.000 OA
ATOM     21  C   UNL     1       7.716   7.510  17.770  0.00  0.00    +0.000 C 
ATOM     22  N   UNL     1       6.966   7.169  16.667  0.00  0.00    +0.000 N 
ATOM     23  H   UNL     1       6.678   7.886  16.014  0.00  0.00    +0.000 HD
BRANCH  22  24
ATOM     24  C   UNL     1       6.590   5.797  16.387  0.00  0.00    +0.000 C 
BRANCH  24  25
ATOM     25  C   UNL     1       5.300   5.438  17.077  0.00  0.00    +0.000 A 
ATOM     26  C   UNL     1       5.034   4.113  17.451  0.00  0.00    +0.000 A 
ATOM     27  C   UNL     1       3.834   3.785  18.087  0.00  0.00    +0.000 A 
ATOM     28  C   UNL     1       2.891   4.778  18.347  0.00  0.00    +0.000 A 
ATOM     29 CL   UNL     1       1.414   4.370  19.129  0.00  0.00    +0.000 Cl
ATOM     30  C   UNL     1       3.138   6.098  17.976  0.00  0.00    +0.000 A 
ATOM     31  C   UNL     1       4.337   6.425  17.338  0.00  0.00    +0.000 A 
ENDBRANCH  24  25
ENDBRANCH  22  24
ENDBRANCH  19  21
ENDBRANCH  18  19
ENDBRANCH   1  18
TORSDOF 8
ENDMDL
MODEL 3
REMARK VINA RESULT:      -7.7      3.806      9.460
REMARK  Name = 
REMARK  8 active torsions:
REMARK  status: ('A' for Active; 'I' for Inactive)
REMARK    1  A    between atoms: C_2  and  C_3
REMARK    2  A    between atoms: C_3  and  C_4
REMARK    3  A    between atoms: C_4  and  C_5
REMARK    4  A    between atoms: C_8  and  S_9
REMARK    5  A    between atoms: S_9  and  N_12
REMARK    6  A    between atoms: N_12  and  C_13
REMARK    7  A    between atoms: N_21  and  C_22
REMARK    8  A    between atoms: C_22  and  C_23
REMARK                            x       y       z     vdW  Elec       q    Type
REMARK                         _______ _______ _______ _____ _____    ______ ____
ROOT
ATOM      1  C   UNL     1       1.490   6.721  20.520  0.00  0.00    +0.000 A 
ATOM      2  C   UNL     1       2.170   7.014  19.332  0.00  0.00    +0.000 A 
ATOM      3  C   UNL     1       2.954   6.044  18.706  0.00  0.00    +0.000 A 
ATOM      4  C   UNL     1       3.097   4.779  19.283  0.00  0.00    +0.000 A 
ATOM      5  C   UNL     1       2.436   4.473  20.479  0.00  0.00    +0.000 A 
ATOM      6  C   UNL     1       1.649   5.451  21.099  0.00  0.00    +0.000 A 
ENDROOT
BRANCH   4   7
ATOM      7  S   UNL     1       4.105   3.570  18.452  0.00  0.00    +0.000 S 
ATOM      8  O   UNL     1       3.989   2.339  19.204  0.00  0.00    +0.000 OA
ATOM      9  O   UNL     1       3.819   3.617  17.034  0.00  0.00    +0.000 OA
BRANCH   7  10
ATOM     10  N   UNL     1       5.701   4.097  18.668  0.00  0.00    +0.000 NA
ATOM     11  H   UNL     1       6.131   3.511  19.389  0.00  0.00    +0.000 HD
BRANCH  10  12
ATOM     12  C   UNL     1       6.557   4.356  17.479  0.00  0.00    +0.000 C 
ATOM     13  C   UNL     1       6.006   5.470  16.590  0.00  0.00    +0.000 C 
ATOM     14  C   UNL     1       5.994   6.817  17.309  0.00  0.00    +0.000 C 
ATOM     15  C   UNL     1       7.400   7.211  17.736  0.00  0.00    +0.000 C 
ATOM     16  C   UNL     1       8.056   6.126  18.586  0.00  0.00    +0.000 C 
ATOM     17  C   UNL     1       7.975   4.739  17.941  0.00  0.00    +0.000 C 
ENDBRANCH  10  12
ENDBRANCH   7  10
ENDBRANCH   4   7
BRANCH   1  18
ATOM     18  C   UNL     1       0.610   7.769  21.168  0.00  0.00    +0.000 C 
BRANCH  18  19
ATOM     19  C   UNL     1       1.414   8.937  21.753  0.00  0.00    +0.000 C 
BRANCH  19  21
ATOM     20  O   UNL     1       0.569  11.193  21.959  0.00  0.00    +0.000 OA
ATOM     21  C   UNL     1       0.910  10.273  21.227  0.00  0.00    +0.000 C 
ATOM     22  N   UNL     1       0.882  10.348  19.853  0.00  0.00    +0.000 N 
ATOM     23  H   UNL     1       1.176   9.553  19.301  0.00  0.00    +0.000 HD
BRANCH  22  24
ATOM     24  C   UNL     1       0.416  11.532  19.157  0.00  0.00    +0.000 C 
BRANCH  24  25
ATOM     25  C   UNL     1      -1.047  11.419  18.819  0.00  0.00    +0.000 A 
ATOM     26  C   UNL     1      -1.989  12.257  19.434  0.00  0.00    +0.000 A 
ATOM     27  C   UNL     1      -3.347  12.146  19.120  0.00  0.00    +0.000 A 
ATOM     28  C   UNL     1      -3.770  11.194  18.195  0.00  0.00    +0.000 A 
ATOM     29 CL   UNL     1      -5.442  11.059  17.811  0.00  0.00    +0.000 Cl
ATOM     30  C   UNL     1      -2.847  10.349  17.580  0.00  0.00    +0.000 A 
ATOM     31  C   UNL     1      -1.490  10.460  17.896  0.00  0.00    +0.000 A 
ENDBRANCH  24  25
ENDBRANCH  22  24
ENDBRANCH  19  21
ENDBRANCH  18  19
ENDBRANCH   1  18
TORSDOF 8
ENDMDL
MODEL 4
REMARK VINA RESULT:      -7.6      2.705      3.251
REMARK  Name = 
REMARK  8 active torsions:
REMARK  status: ('A' for Active; 'I' for Inactive)
REMARK    1  A    between atoms: C_2  and  C_3
REMARK    2  A    between atoms: C_3  and  C_4
REMARK    3  A    between atoms: C_4  and  C_5
REMARK    4  A    between atoms: C_8  and  S_9
REMARK    5  A    between atoms: S_9  and  N_12
REMARK    6  A    between atoms: N_12  and  C_13
REMARK    7  A    between atoms: N_21  and  C_22
REMARK    8  A    between atoms: C_22  and  C_23
REMARK                            x       y       z     vdW  Elec       q    Type
REMARK                         _______ _______ _______ _____ _____    ______ ____
ROOT
ATOM      1  C   UNL     1       1.578   6.853  20.361  0.00  0.00    +0.000 A 
ATOM      2  C   UNL     1       2.151   7.258  19.150  0.00  0.00    +0.000 A 
ATOM      3  C   UNL     1       2.038   8.580  18.720  0.00  0.00    +0.000 A 
ATOM      4  C   UNL     1       1.316   9.506  19.478  0.00  0.00    +0.000 A 
ATOM      5  C   UNL     1       0.723   9.115  20.685  0.00  0.00    +0.000 A 
ATOM      6  C   UNL     1       0.843   7.787  21.112  0.00  0.00    +0.000 A 
ENDROOT
BRANCH   4   7
ATOM      7  S   UNL     1       1.198  11.183  18.894  0.00  0.00    +0.000 S 
ATOM      8  O   UNL     1       0.963  12.015  20.053  0.00  0.00    +0.000 OA
ATOM      9  O   UNL     1       2.297  11.442  17.989  0.00  0.00    +0.000 OA
BRANCH   7  10
ATOM     10  N   UNL     1      -0.233  11.238  17.987  0.00  0.00    +0.000 NA
ATOM     11  H   UNL     1       0.020  11.409  17.009  0.00  0.00    +0.000 HD
BRANCH  10  12
ATOM     12  C   UNL     1      -1.274  10.194  18.190  0.00  0.00    +0.000 C 
ATOM     13  C   UNL     1      -2.470  10.706  18.991  0.00  0.00    +0.000 C 
ATOM     14  C   UNL     1      -3.224  11.806  18.245  0.00  0.00    +0.000 C 
ATOM     15  C   UNL     1      -3.738  11.294  16.908  0.00  0.00    +0.000 C 
ATOM     16  C   UNL     1      -2.614  10.707  16.059  0.00  0.00    +0.000 C 
ATOM     17  C   UNL     1      -1.766   9.686  16.823  0.00  0.00    +0.000 C 
ENDBRANCH  10  12
ENDBRANCH   7  10
ENDBRANCH   4   7
BRANCH   1  18
ATOM     18  C   UNL     1       1.741   5.425  20.838  0.00  0.00    +0.000 C 
BRANCH  18  19
ATOM     19  C   UNL     1       1.129   4.404  19.870  0.00  0.00    +0.000 C 
BRANCH  19  21
ATOM     20  O   UNL     1       1.743   3.676  17.648  0.00  0.00    +0.000 OA
ATOM     21  C   UNL     1       2.103   4.046  18.758  0.00  0.00    +0.000 C 
ATOM     22  N   UNL     1       3.425   4.185  19.118  0.00  0.00    +0.000 N 
ATOM     23  H   UNL     1       3.661   4.495  20.052  0.00  0.00    +0.000 HD
BRANCH  22  24
ATOM     24  C   UNL     1       4.508   3.875  18.204  0.00  0.00    +0.000 C 
BRANCH  24  25
ATOM     25  C   UNL     1       5.439   5.048  18.052  0.00  0.00    +0.000 A 
ATOM     26  C   UNL     1       5.089   6.139  17.242  0.00  0.00    +0.000 A 
ATOM     27  C   UNL     1       5.959   7.224  17.101  0.00  0.00    +0.000 A 
ATOM     28  C   UNL     1       7.185   7.221  17.763  0.00  0.00    +0.000 A 
ATOM     29 CL   UNL     1       8.255   8.557  17.585  0.00  0.00    +0.000 Cl
ATOM     30  C   UNL     1       7.551   6.142  18.566  0.00  0.00    +0.000 A 
ATOM     31  C   UNL     1       6.681   5.057  18.705  0.00  0.00    +0.000 A 
ENDBRANCH  24  25
ENDBRANCH  22  24
ENDBRANCH  19  21
ENDBRANCH  18  19
ENDBRANCH   1  18
TORSDOF 8
ENDMDL
MODEL 5
REMARK VINA RESULT:      -7.6      4.815     10.281
REMARK  Name = 
REMARK  8 active torsions:
REMARK  status: ('A' for Active; 'I' for Inactive)
REMARK    1  A    between atoms: C_2  and  C_3
REMARK    2  A    between atoms: C_3  and  C_4
REMARK    3  A    between atoms: C_4  and  C_5
REMARK    4  A    between atoms: C_8  and  S_9
REMARK    5  A    between atoms: S_9  and  N_12
REMARK    6  A    between atoms: N_12  and  C_13
REMARK    7  A    between atoms: N_21  and  C_22
REMARK    8  A    between atoms: C_22  and  C_23
REMARK                            x       y       z     vdW  Elec       q    Type
REMARK                         _______ _______ _______ _____ _____    ______ ____
ROOT
ATOM      1  C   UNL     1       1.713   8.593  18.966  0.00  0.00    +0.000 A 
ATOM      2  C   UNL     1       2.467   8.648  17.788  0.00  0.00    +0.000 A 
ATOM      3  C   UNL     1       3.410   7.661  17.503  0.00  0.00    +0.000 A 
ATOM      4  C   UNL     1       3.638   6.625  18.413  0.00  0.00    +0.000 A 
ATOM      5  C   UNL     1       2.904   6.561  19.603  0.00  0.00    +0.000 A 
ATOM      6  C   UNL     1       1.957   7.554  19.881  0.00  0.00    +0.000 A 
ENDROOT
BRANCH   4   7
ATOM      7  S   UNL     1       4.849   5.384  18.009  0.00  0.00    +0.000 S 
ATOM      8  O   UNL     1       4.798   5.199  16.575  0.00  0.00    +0.000 OA
ATOM      9  O   UNL     1       6.088   5.702  18.684  0.00  0.00    +0.000 OA
BRANCH   7  10
ATOM     10  N   UNL     1       4.255   3.947  18.684  0.00  0.00    +0.000 NA
ATOM     11  H   UNL     1       3.707   4.192  19.514  0.00  0.00    +0.000 HD
BRANCH  10  12
ATOM     12  C   UNL     1       3.632   2.923  17.802  0.00  0.00    +0.000 C 
ATOM     13  C   UNL     1       3.245   1.654  18.560  0.00  0.00    +0.000 C 
ATOM     14  C   UNL     1       2.160   1.922  19.600  0.00  0.00    +0.000 C 
ATOM     15  C   UNL     1       0.906   2.474  18.939  0.00  0.00    +0.000 C 
ATOM     16  C   UNL     1       1.208   3.718  18.108  0.00  0.00    +0.000 C 
ATOM     17  C   UNL     1       2.375   3.514  17.138  0.00  0.00    +0.000 C 
ENDBRANCH  10  12
ENDBRANCH   7  10
ENDBRANCH   4   7
BRANCH   1  18
ATOM     18  C   UNL     1       0.664   9.648  19.247  0.00  0.00    +0.000 C 
BRANCH  18  19
ATOM     19  C   UNL     1      -0.241   9.919  18.038  0.00  0.00    +0.000 C 
BRANCH  19  21
ATOM     20  O   UNL     1      -2.020  11.467  17.510  0.00  0.00    +0.000 OA
ATOM     21  C   UNL     1      -1.111  11.146  18.263  0.00  0.00    +0.000 C 
ATOM     22  N   UNL     1      -0.781  11.853  19.397  0.00  0.00    +0.000 N 
ATOM     23  H   UNL     1      -0.017  11.538  19.981  0.00  0.00    +0.000 HD
BRANCH  22  24
ATOM     24  C   UNL     1      -1.480  13.066  19.778  0.00  0.00    +0.000 C 
BRANCH  24  25
ATOM     25  C   UNL     1      -2.267  12.861  21.045  0.00  0.00    +0.000 A 
ATOM     26  C   UNL     1      -3.631  13.182  21.098  0.00  0.00    +0.000 A 
ATOM     27  C   UNL     1      -4.357  12.994  22.278  0.00  0.00    +0.000 A 
ATOM     28  C   UNL     1      -3.722  12.489  23.411  0.00  0.00    +0.000 A 
ATOM     29 CL   UNL     1      -4.618  12.260  24.862  0.00  0.00    +0.000 Cl
ATOM     30  C   UNL     1      -2.366  12.171  23.376  0.00  0.00    +0.000 A 
ATOM     31  C   UNL     1      -1.640  12.361  22.197  0.00  0.00    +0.000 A 
ENDBRANCH  24  25
ENDBRANCH  22  24
ENDBRANCH  19  21
ENDBRANCH  18  19
ENDBRANCH   1  18
TORSDOF 8
ENDMDL
MODEL 6
REMARK VINA RESULT:      -7.6      3.890      9.908
REMARK  Name = 
REMARK  8 active torsions:
REMARK  status: ('A' for Active; 'I' for Inactive)
REMARK    1  A    between atoms: C_2  and  C_3
REMARK    2  A    between atoms: C_3  and  C_4
REMARK    3  A    between atoms: C_4  and  C_5
REMARK    4  A    between atoms: C_8  and  S_9
REMARK    5  A    between atoms: S_9  and  N_12
REMARK    6  A    between atoms: N_12  and  C_13
REMARK    7  A    between atoms: N_21  and  C_22
REMARK    8  A    between atoms: C_22  and  C_23
REMARK                            x       y       z     vdW  Elec       q    Type
REMARK                         _______ _______ _______ _____ _____    ______ ____
ROOT
ATOM      1  C   UNL     1       1.797   7.289  20.395  0.00  0.00    +0.000 A 
ATOM      2  C   UNL     1       2.325   7.481  19.113  0.00  0.00    +0.000 A 
ATOM      3  C   UNL     1       2.663   6.389  18.315  0.00  0.00    +0.000 A 
ATOM      4  C   UNL     1       2.514   5.089  18.805  0.00  0.00    +0.000 A 
ATOM      5  C   UNL     1       2.001   4.877  20.091  0.00  0.00    +0.000 A 
ATOM      6  C   UNL     1       1.661   5.979  20.885  0.00  0.00    +0.000 A 
ENDROOT
BRANCH   4   7
ATOM      7  S   UNL     1       2.956   3.722  17.753  0.00  0.00    +0.000 S 
ATOM      8  O   UNL     1       3.503   2.693  18.610  0.00  0.00    +0.000 OA
ATOM      9  O   UNL     1       1.856   3.449  16.854  0.00  0.00    +0.000 OA
BRANCH   7  10
ATOM     10  N   UNL     1       4.252   4.283  16.817  0.00  0.00    +0.000 NA
ATOM     11  H   UNL     1       4.109   5.283  16.648  0.00  0.00    +0.000 HD
BRANCH  10  12
ATOM     12  C   UNL     1       5.644   3.903  17.185  0.00  0.00    +0.000 C 
ATOM     13  C   UNL     1       6.645   4.191  16.066  0.00  0.00    +0.000 C 
ATOM     14  C   UNL     1       6.759   5.686  15.777  0.00  0.00    +0.000 C 
ATOM     15  C   UNL     1       7.212   6.442  17.017  0.00  0.00    +0.000 C 
ATOM     16  C   UNL     1       6.298   6.168  18.208  0.00  0.00    +0.000 C 
ATOM     17  C   UNL     1       6.069   4.672  18.448  0.00  0.00    +0.000 C 
ENDBRANCH  10  12
ENDBRANCH   7  10
ENDBRANCH   4   7
BRANCH   1  18
ATOM     18  C   UNL     1       1.395   8.481  21.238  0.00  0.00    +0.000 C 
BRANCH  18  19
ATOM     19  C   UNL     1      -0.117   8.738  21.216  0.00  0.00    +0.000 C 
BRANCH  19  21
ATOM     20  O   UNL     1      -0.387  11.115  21.569  0.00  0.00    +0.000 OA
ATOM     21  C   UNL     1      -0.429  10.167  20.796  0.00  0.00    +0.000 C 
ATOM     22  N   UNL     1      -0.754  10.289  19.464  0.00  0.00    +0.000 N 
ATOM     23  H   UNL     1      -0.772   9.467  18.874  0.00  0.00    +0.000 HD
BRANCH  22  24
ATOM     24  C   UNL     1      -1.101  11.566  18.871  0.00  0.00    +0.000 C 
BRANCH  24  25
ATOM     25  C   UNL     1      -2.581  11.656  18.606  0.00  0.00    +0.000 A 
ATOM     26  C   UNL     1      -3.123  11.166  17.409  0.00  0.00    +0.000 A 
ATOM     27  C   UNL     1      -4.496  11.254  17.166  0.00  0.00    +0.000 A 
ATOM     28  C   UNL     1      -5.333  11.838  18.115  0.00  0.00    +0.000 A 
ATOM     29 CL   UNL     1      -7.023  11.947  17.812  0.00  0.00    +0.000 Cl
ATOM     30  C   UNL     1      -4.809  12.336  19.307  0.00  0.00    +0.000 A 
ATOM     31  C   UNL     1      -3.435  12.248  19.548  0.00  0.00    +0.000 A 
ENDBRANCH  24  25
ENDBRANCH  22  24
ENDBRANCH  19  21
ENDBRANCH  18  19
ENDBRANCH   1  18
TORSDOF 8
ENDMDL
MODEL 7
REMARK VINA RESULT:      -7.6      5.007     10.468
REMARK  Name = 
REMARK  8 active torsions:
REMARK  status: ('A' for Active; 'I' for Inactive)
REMARK    1  A    between atoms: C_2  and  C_3
REMARK    2  A    between atoms: C_3  and  C_4
REMARK    3  A    between atoms: C_4  and  C_5
REMARK    4  A    between atoms: C_8  and  S_9
REMARK    5  A    between atoms: S_9  and  N_12
REMARK    6  A    between atoms: N_12  and  C_13
REMARK    7  A    between atoms: N_21  and  C_22
REMARK    8  A    between atoms: C_22  and  C_23
REMARK                            x       y       z     vdW  Elec       q    Type
REMARK                         _______ _______ _______ _____ _____    ______ ____
ROOT
ATOM      1  C   UNL     1       1.192   9.660  19.127  0.00  0.00    +0.000 A 
ATOM      2  C   UNL     1       1.772   9.087  17.989  0.00  0.00    +0.000 A 
ATOM      3  C   UNL     1       2.310   7.801  18.038  0.00  0.00    +0.000 A 
ATOM      4  C   UNL     1       2.309   7.086  19.238  0.00  0.00    +0.000 A 
ATOM      5  C   UNL     1       1.746   7.648  20.391  0.00  0.00    +0.000 A 
ATOM      6  C   UNL     1       1.205   8.938  20.333  0.00  0.00    +0.000 A 
ENDROOT
BRANCH   4   7
ATOM      7  S   UNL     1       3.004   5.447  19.257  0.00  0.00    +0.000 S 
ATOM      8  O   UNL     1       2.736   4.893  20.566  0.00  0.00    +0.000 OA
ATOM      9  O   UNL     1       2.605   4.756  18.050  0.00  0.00    +0.000 OA
BRANCH   7  10
ATOM     10  N   UNL     1       4.682   5.675  19.184  0.00  0.00    +0.000 NA
ATOM     11  H   UNL     1       5.078   5.383  20.082  0.00  0.00    +0.000 HD
BRANCH  10  12
ATOM     12  C   UNL     1       5.435   5.214  17.987  0.00  0.00    +0.000 C 
ATOM     13  C   UNL     1       5.406   6.232  16.847  0.00  0.00    +0.000 C 
ATOM     14  C   UNL     1       6.118   7.529  17.226  0.00  0.00    +0.000 C 
ATOM     15  C   UNL     1       7.573   7.262  17.578  0.00  0.00    +0.000 C 
ATOM     16  C   UNL     1       7.703   6.209  18.676  0.00  0.00    +0.000 C 
ATOM     17  C   UNL     1       6.899   4.939  18.376  0.00  0.00    +0.000 C 
ENDBRANCH  10  12
ENDBRANCH   7  10
ENDBRANCH   4   7
BRANCH   1  18
ATOM     18  C   UNL     1       0.574  11.040  19.052  0.00  0.00    +0.000 C 
BRANCH  18  19
ATOM     19  C   UNL     1       1.624  12.159  19.073  0.00  0.00    +0.000 C 
BRANCH  19  21
ATOM     20  O   UNL     1       2.584  12.941  21.149  0.00  0.00    +0.000 OA
ATOM     21  C   UNL     1       1.616  12.900  20.401  0.00  0.00    +0.000 C 
ATOM     22  N   UNL     1       0.420  13.524  20.676  0.00  0.00    +0.000 N 
ATOM     23  H   UNL     1      -0.346  13.453  20.018  0.00  0.00    +0.000 HD
BRANCH  22  24
ATOM     24  C   UNL     1       0.204  14.268  21.902  0.00  0.00    +0.000 C 
BRANCH  24  25
ATOM     25  C   UNL     1      -1.013  13.766  22.633  0.00  0.00    +0.000 A 
ATOM     26  C   UNL     1      -1.763  14.627  23.447  0.00  0.00    +0.000 A 
ATOM     27  C   UNL     1      -2.890  14.155  24.127  0.00  0.00    +0.000 A 
ATOM     28  C   UNL     1      -3.268  12.820  24.000  0.00  0.00    +0.000 A 
ATOM     29 CL   UNL     1      -4.655  12.242  24.838  0.00  0.00    +0.000 Cl
ATOM     30  C   UNL     1      -2.530  11.950  23.199  0.00  0.00    +0.000 A 
ATOM     31  C   UNL     1      -1.403  12.422  22.522  0.00  0.00    +0.000 A 
ENDBRANCH  24  25
ENDBRANCH  22  24
ENDBRANCH  19  21
ENDBRANCH  18  19
ENDBRANCH   1  18
TORSDOF 8
ENDMDL
MODEL 8
REMARK VINA RESULT:      -7.5      4.652     10.648
REMARK  Name = 
REMARK  8 active torsions:
REMARK  status: ('A' for Active; 'I' for Inactive)
REMARK    1  A    between atoms: C_2  and  C_3
REMARK    2  A    between atoms: C_3  and  C_4
REMARK    3  A    between atoms: C_4  and  C_5
REMARK    4  A    between atoms: C_8  and  S_9
REMARK    5  A    between atoms: S_9  and  N_12
REMARK    6  A    between atoms: N_12  and  C_13
REMARK    7  A    between atoms: N_21  and  C_22
REMARK    8  A    between atoms: C_22  and  C_23
REMARK                            x       y       z     vdW  Elec       q    Type
REMARK                         _______ _______ _______ _____ _____    ______ ____
ROOT
ATOM      1  C   UNL     1       1.460   9.082  18.818  0.00  0.00    +0.000 A 
ATOM      2  C   UNL     1       2.115   8.491  17.731  0.00  0.00    +0.000 A 
ATOM      3  C   UNL     1       2.715   7.238  17.860  0.00  0.00    +0.000 A 
ATOM      4  C   UNL     1       2.700   6.577  19.092  0.00  0.00    +0.000 A 
ATOM      5  C   UNL     1       2.062   7.159  20.194  0.00  0.00    +0.000 A 
ATOM      6  C   UNL     1       1.459   8.416  20.056  0.00  0.00    +0.000 A 
ENDROOT
BRANCH   4   7
ATOM      7  S   UNL     1       3.474   4.979  19.213  0.00  0.00    +0.000 S 
ATOM      8  O   UNL     1       3.124   4.441  20.509  0.00  0.00    +0.000 OA
ATOM      9  O   UNL     1       3.218   4.241  17.996  0.00  0.00    +0.000 OA
BRANCH   7  10
ATOM     10  N   UNL     1       5.138   5.296  19.277  0.00  0.00    +0.000 NA
ATOM     11  H   UNL     1       5.479   5.004  20.197  0.00  0.00    +0.000 HD
BRANCH  10  12
ATOM     12  C   UNL     1       6.006   4.902  18.134  0.00  0.00    +0.000 C 
ATOM     13  C   UNL     1       5.784   5.776  16.900  0.00  0.00    +0.000 C 
ATOM     14  C   UNL     1       6.182   7.228  17.153  0.00  0.00    +0.000 C 
ATOM     15  C   UNL     1       7.651   7.324  17.537  0.00  0.00    +0.000 C 
ATOM     16  C   UNL     1       7.980   6.434  18.733  0.00  0.00    +0.000 C 
ATOM     17  C   UNL     1       7.484   4.996  18.555  0.00  0.00    +0.000 C 
ENDBRANCH  10  12
ENDBRANCH   7  10
ENDBRANCH   4   7
BRANCH   1  18
ATOM     18  C   UNL     1       0.778  10.424  18.656  0.00  0.00    +0.000 C 
BRANCH  18  19
ATOM     19  C   UNL     1      -0.631  10.303  18.062  0.00  0.00    +0.000 C 
BRANCH  19  21
ATOM     20  O   UNL     1      -2.566  11.745  17.906  0.00  0.00    +0.000 OA
ATOM     21  C   UNL     1      -1.497  11.494  18.446  0.00  0.00    +0.000 C 
ATOM     22  N   UNL     1      -0.965  12.255  19.463  0.00  0.00    +0.000 N 
ATOM     23  H   UNL     1      -0.075  11.998  19.870  0.00  0.00    +0.000 HD
BRANCH  22  24
ATOM     24  C   UNL     1      -1.629  13.444  19.962  0.00  0.00    +0.000 C 
BRANCH  24  25
ATOM     25  C   UNL     1      -2.426  13.137  21.203  0.00  0.00    +0.000 A 
ATOM     26  C   UNL     1      -3.810  13.361  21.236  0.00  0.00    +0.000 A 
ATOM     27  C   UNL     1      -4.545  13.079  22.391  0.00  0.00    +0.000 A 
ATOM     28  C   UNL     1      -3.899  12.579  23.519  0.00  0.00    +0.000 A 
ATOM     29 CL   UNL     1      -4.805  12.234  24.941  0.00  0.00    +0.000 Cl
ATOM     30  C   UNL     1      -2.523  12.357  23.505  0.00  0.00    +0.000 A 
ATOM     31  C   UNL     1      -1.789  12.641  22.350  0.00  0.00    +0.000 A 
ENDBRANCH  24  25
ENDBRANCH  22  24
ENDBRANCH  19  21
ENDBRANCH  18  19
ENDBRANCH   1  18
TORSDOF 8
ENDMDL
MODEL 9
REMARK VINA RESULT:      -7.5      4.978     10.781
REMARK  Name = 
REMARK  8 active torsions:
REMARK  status: ('A' for Active; 'I' for Inactive)
REMARK    1  A    between atoms: C_2  and  C_3
REMARK    2  A    between atoms: C_3  and  C_4
REMARK    3  A    between atoms: C_4  and  C_5
REMARK    4  A    between atoms: C_8  and  S_9
REMARK    5  A    between atoms: S_9  and  N_12
REMARK    6  A    between atoms: N_12  and  C_13
REMARK    7  A    between atoms: N_21  and  C_22
REMARK    8  A    between atoms: C_22  and  C_23
REMARK                            x       y       z     vdW  Elec       q    Type
REMARK                         _______ _______ _______ _____ _____    ______ ____
ROOT
ATOM      1  C   UNL     1       1.732   7.207  20.486  0.00  0.00    +0.000 A 
ATOM      2  C   UNL     1       1.589   5.875  20.893  0.00  0.00    +0.000 A 
ATOM      3  C   UNL     1       1.963   4.831  20.047  0.00  0.00    +0.000 A 
ATOM      4  C   UNL     1       2.449   5.107  18.766  0.00  0.00    +0.000 A 
ATOM      5  C   UNL     1       2.585   6.432  18.336  0.00  0.00    +0.000 A 
ATOM      6  C   UNL     1       2.211   7.475  19.192  0.00  0.00    +0.000 A 
ENDROOT
BRANCH   4   7
ATOM      7  S   UNL     1       2.916   3.746  17.718  0.00  0.00    +0.000 S 
ATOM      8  O   UNL     1       3.450   2.716  18.582  0.00  0.00    +0.000 OA
ATOM      9  O   UNL     1       1.835   3.471  16.797  0.00  0.00    +0.000 OA
BRANCH   7  10
ATOM     10  N   UNL     1       4.229   4.315  16.810  0.00  0.00    +0.000 NA
ATOM     11  H   UNL     1       4.087   5.315  16.644  0.00  0.00    +0.000 HD
BRANCH  10  12
ATOM     12  C   UNL     1       5.614   3.935  17.199  0.00  0.00    +0.000 C 
ATOM     13  C   UNL     1       6.633   4.218  16.097  0.00  0.00    +0.000 C 
ATOM     14  C   UNL     1       6.753   5.713  15.805  0.00  0.00    +0.000 C 
ATOM     15  C   UNL     1       7.186   6.471  17.050  0.00  0.00    +0.000 C 
ATOM     16  C   UNL     1       6.253   6.201  18.227  0.00  0.00    +0.000 C 
ATOM     17  C   UNL     1       6.020   4.707  18.468  0.00  0.00    +0.000 C 
ENDBRANCH  10  12
ENDBRANCH   7  10
ENDBRANCH   4   7
BRANCH   1  18
ATOM     18  C   UNL     1       1.361   8.333  21.428  0.00  0.00    +0.000 C 
BRANCH  18  19
ATOM     19  C   UNL     1       0.040   9.014  21.045  0.00  0.00    +0.000 C 
BRANCH  19  21
ATOM     20  O   UNL     1       0.239  10.485  22.953  0.00  0.00    +0.000 OA
ATOM     21  C   UNL     1      -0.149  10.319  21.804  0.00  0.00    +0.000 C 
ATOM     22  N   UNL     1      -0.790  11.292  21.072  0.00  0.00    +0.000 N 
ATOM     23  H   UNL     1      -1.087  11.095  20.126  0.00  0.00    +0.000 HD
BRANCH  22  24
ATOM     24  C   UNL     1      -1.081  12.602  21.624  0.00  0.00    +0.000 C 
BRANCH  24  25
ATOM     25  C   UNL     1      -2.479  12.655  22.182  0.00  0.00    +0.000 A 
ATOM     26  C   UNL     1      -3.572  12.926  21.345  0.00  0.00    +0.000 A 
ATOM     27  C   UNL     1      -4.867  12.978  21.869  0.00  0.00    +0.000 A 
ATOM     28  C   UNL     1      -5.074  12.767  23.230  0.00  0.00    +0.000 A 
ATOM     29 CL   UNL     1      -6.670  12.834  23.872  0.00  0.00    +0.000 Cl
ATOM     30  C   UNL     1      -3.998  12.503  24.075  0.00  0.00    +0.000 A 
ATOM     31  C   UNL     1      -2.704  12.453  23.552  0.00  0.00    +0.000 A 
ENDBRANCH  24  25
ENDBRANCH  22  24
ENDBRANCH  19  21
ENDBRANCH  18  19
ENDBRANCH   1  18
TORSDOF 8
ENDMDL
