MODEL 1
REMARK VINA RESULT:      -7.6      0.000      0.000
REMARK  Name = 
REMARK  3 active torsions:
REMARK  status: ('A' for Active; 'I' for Inactive)
REMARK    1  A    between atoms: C_1  and  N_2
REMARK    2  A    between atoms: C_6  and  C_8
REMARK    3  A    between atoms: C_8  and  N_9
REMARK                            x       y       z     vdW  Elec       q    Type
REMARK                         _______ _______ _______ _____ _____    ______ ____
ROOT
ATOM      1  N   UNL     1       2.837   5.721  19.019  0.00  0.00    +0.000 N 
ATOM      2  C   UNL     1       2.067   4.585  19.272  0.00  0.00    +0.000 A 
ATOM      3  C   UNL     1       1.123   4.280  20.267  0.00  0.00    +0.000 A 
ATOM      4  C   UNL     1       0.463   3.044  20.215  0.00  0.00    +0.000 A 
ATOM      5  C   UNL     1       0.740   2.121  19.214  0.00  0.00    +0.000 A 
ATOM      6  C   UNL     1       1.706   2.402  18.249  0.00  0.00    +0.000 A 
ATOM      7  C   UNL     1       2.379   3.640  18.280  0.00  0.00    +0.000 A 
ATOM      8  C   UNL     1       3.400   4.206  17.503  0.00  0.00    +0.000 A 
ATOM      9  N   UNL     1       4.043   3.598  16.422  0.00  0.00    +0.000 NA
ATOM     10  C   UNL     1       5.010   4.314  15.955  0.00  0.00    +0.000 A 
ATOM     11  N   UNL     1       5.437   5.550  16.400  0.00  0.00    +0.000 N 
ATOM     12  C   UNL     1       4.780   6.230  17.409  0.00  0.00    +0.000 A 
ATOM     13  O   UNL     1       5.073   7.369  17.751  0.00  0.00    +0.000 OA
ATOM     14  C   UNL     1       3.713   5.450  17.979  0.00  0.00    +0.000 A 
ATOM     15  C   UNL     1       6.491   6.149  15.615  0.00  0.00    +0.000 C 
ATOM     16  C   UNL     1       7.239   5.042  14.892  0.00  0.00    +0.000 C 
ATOM     17  S   UNL     1       5.976   3.778  14.602  0.00  0.00    +0.000 S 
ENDROOT
BRANCH   1  18
ATOM     18  C   UNL     1       2.818   6.988  19.750  0.00  0.00    +0.000 C 
BRANCH  18  24
ATOM     19  C   UNL     1      -1.324  11.170  22.679  0.00  0.00    +0.000 C 
ATOM     20  N   UNL     1      -0.233  10.756  21.800  0.00  0.00    +0.000 NA
ATOM     21  C   UNL     1      -0.741  10.404  20.459  0.00  0.00    +0.000 C 
ATOM     22  C   UNL     1       0.391   9.963  19.509  0.00  0.00    +0.000 C 
ATOM     23  N   UNL     1       1.238   8.908  20.080  0.00  0.00    +0.000 N 
ATOM     24  C   UNL     1       1.954   8.107  19.194  0.00  0.00    +0.000 C 
ATOM     25  O   UNL     1       1.819   8.222  17.971  0.00  0.00    +0.000 OA
ATOM     26  C   UNL     1       1.657   9.151  21.465  0.00  0.00    +0.000 C 
ATOM     27  C   UNL     1       0.489   9.602  22.365  0.00  0.00    +0.000 C 
ENDBRANCH  18  24
ENDBRANCH   1  18
TORSDOF 2
ENDMDL
MODEL 2
REMARK VINA RESULT:      -7.5      3.646      6.232
REMARK  Name = 
REMARK  3 active torsions:
REMARK  status: ('A' for Active; 'I' for Inactive)
REMARK    1  A    between atoms: C_1  and  N_2
REMARK    2  A    between atoms: C_6  and  C_8
REMARK    3  A    between atoms: C_8  and  N_9
REMARK                            x       y       z     vdW  Elec       q    Type
REMARK                         _______ _______ _______ _____ _____    ______ ____
ROOT
ATOM      1  N   UNL     1       0.589  10.648  19.512  0.00  0.00    +0.000 N 
ATOM      2  C   UNL     1       0.049  10.732  20.796  0.00  0.00    +0.000 A 
ATOM      3  C   UNL     1      -0.613  11.765  21.481  0.00  0.00    +0.000 A 
ATOM      4  C   UNL     1      -1.098  11.514  22.773  0.00  0.00    +0.000 A 
ATOM      5  C   UNL     1      -0.918  10.278  23.384  0.00  0.00    +0.000 A 
ATOM      6  C   UNL     1      -0.225   9.265  22.723  0.00  0.00    +0.000 A 
ATOM      7  C   UNL     1       0.267   9.494  21.423  0.00  0.00    +0.000 A 
ATOM      8  C   UNL     1       1.016   8.722  20.522  0.00  0.00    +0.000 A 
ATOM      9  N   UNL     1       1.491   7.428  20.747  0.00  0.00    +0.000 NA
ATOM     10  C   UNL     1       2.233   6.999  19.781  0.00  0.00    +0.000 A 
ATOM     11  N   UNL     1       2.575   7.664  18.619  0.00  0.00    +0.000 N 
ATOM     12  C   UNL     1       2.062   8.910  18.313  0.00  0.00    +0.000 A 
ATOM     13  O   UNL     1       2.265   9.475  17.245  0.00  0.00    +0.000 OA
ATOM     14  C   UNL     1       1.254   9.438  19.380  0.00  0.00    +0.000 A 
ATOM     15  C   UNL     1       3.349   6.887  17.679  0.00  0.00    +0.000 C 
ATOM     16  C   UNL     1       4.068   5.788  18.442  0.00  0.00    +0.000 C 
ATOM     17  S   UNL     1       2.953   5.408  19.817  0.00  0.00    +0.000 S 
ENDROOT
BRANCH   1  18
ATOM     18  C   UNL     1       0.556  11.669  18.465  0.00  0.00    +0.000 C 
BRANCH  18  24
ATOM     19  C   UNL     1       0.171  18.225  18.789  0.00  0.00    +0.000 C 
ATOM     20  N   UNL     1       0.640  16.889  19.147  0.00  0.00    +0.000 NA
ATOM     21  C   UNL     1       1.795  16.495  18.314  0.00  0.00    +0.000 C 
ATOM     22  C   UNL     1       2.311  15.086  18.671  0.00  0.00    +0.000 C 
ATOM     23  N   UNL     1       1.250  14.071  18.672  0.00  0.00    +0.000 N 
ATOM     24  C   UNL     1       1.631  12.742  18.498  0.00  0.00    +0.000 C 
ATOM     25  O   UNL     1       2.805  12.435  18.268  0.00  0.00    +0.000 OA
ATOM     26  C   UNL     1       0.028  14.473  19.374  0.00  0.00    +0.000 C 
ATOM     27  C   UNL     1      -0.435  15.893  18.990  0.00  0.00    +0.000 C 
ENDBRANCH  18  24
ENDBRANCH   1  18
TORSDOF 2
ENDMDL
MODEL 3
REMARK VINA RESULT:      -6.9      3.000      5.720
REMARK  Name = 
REMARK  3 active torsions:
REMARK  status: ('A' for Active; 'I' for Inactive)
REMARK    1  A    between atoms: C_1  and  N_2
REMARK    2  A    between atoms: C_6  and  C_8
REMARK    3  A    between atoms: C_8  and  N_9
REMARK                            x       y       z     vdW  Elec       q    Type
REMARK                         _______ _______ _______ _____ _____    ______ ____
ROOT
ATOM      1  N   UNL     1       0.242  10.179  19.547  0.00  0.00    +0.000 N 
ATOM      2  C   UNL     1      -0.099  10.244  20.898  0.00  0.00    +0.000 A 
ATOM      3  C   UNL     1      -0.839  11.175  21.646  0.00  0.00    +0.000 A 
ATOM      4  C   UNL     1      -1.059  10.923  23.008  0.00  0.00    +0.000 A 
ATOM      5  C   UNL     1      -0.546   9.787  23.623  0.00  0.00    +0.000 A 
ATOM      6  C   UNL     1       0.224   8.883  22.894  0.00  0.00    +0.000 A 
ATOM      7  C   UNL     1       0.454   9.115  21.523  0.00  0.00    +0.000 A 
ATOM      8  C   UNL     1       1.193   8.441  20.539  0.00  0.00    +0.000 A 
ATOM      9  N   UNL     1       1.944   7.278  20.728  0.00  0.00    +0.000 NA
ATOM     10  C   UNL     1       2.597   6.935  19.668  0.00  0.00    +0.000 A 
ATOM     11  N   UNL     1       2.618   7.574  18.444  0.00  0.00    +0.000 N 
ATOM     12  C   UNL     1       1.827   8.677  18.183  0.00  0.00    +0.000 A 
ATOM     13  O   UNL     1       1.747   9.199  17.077  0.00  0.00    +0.000 OA
ATOM     14  C   UNL     1       1.105   9.111  19.349  0.00  0.00    +0.000 A 
ATOM     15  C   UNL     1       3.376   6.898  17.417  0.00  0.00    +0.000 C 
ATOM     16  C   UNL     1       4.408   6.009  18.089  0.00  0.00    +0.000 C 
ATOM     17  S   UNL     1       3.616   5.516  19.641  0.00  0.00    +0.000 S 
ENDROOT
BRANCH   1  18
ATOM     18  C   UNL     1      -0.153  11.104  18.485  0.00  0.00    +0.000 C 
BRANCH  18  24
ATOM     19  C   UNL     1      -6.303  12.662  20.213  0.00  0.00    +0.000 C 
ATOM     20  N   UNL     1      -5.142  12.555  19.332  0.00  0.00    +0.000 NA
ATOM     21  C   UNL     1      -5.133  11.258  18.626  0.00  0.00    +0.000 C 
ATOM     22  C   UNL     1      -3.917  11.119  17.689  0.00  0.00    +0.000 C 
ATOM     23  N   UNL     1      -2.642  11.398  18.360  0.00  0.00    +0.000 N 
ATOM     24  C   UNL     1      -1.486  10.858  17.799  0.00  0.00    +0.000 C 
ATOM     25  O   UNL     1      -1.540  10.103  16.823  0.00  0.00    +0.000 OA
ATOM     26  C   UNL     1      -2.645  12.610  19.186  0.00  0.00    +0.000 C 
ATOM     27  C   UNL     1      -3.888  12.704  20.093  0.00  0.00    +0.000 C 
ENDBRANCH  18  24
ENDBRANCH   1  18
TORSDOF 2
ENDMDL
MODEL 4
REMARK VINA RESULT:      -6.9      5.376     10.427
REMARK  Name = 
REMARK  3 active torsions:
REMARK  status: ('A' for Active; 'I' for Inactive)
REMARK    1  A    between atoms: C_1  and  N_2
REMARK    2  A    between atoms: C_6  and  C_8
REMARK    3  A    between atoms: C_8  and  N_9
REMARK                            x       y       z     vdW  Elec       q    Type
REMARK                         _______ _______ _______ _____ _____    ______ ____
ROOT
ATOM      1  N   UNL     1      -2.373  12.323  19.846  0.00  0.00    +0.000 N 
ATOM      2  C   UNL     1      -2.752  11.849  18.590  0.00  0.00    +0.000 A 
ATOM      3  C   UNL     1      -2.015  11.490  17.448  0.00  0.00    +0.000 A 
ATOM      4  C   UNL     1      -2.701  10.982  16.336  0.00  0.00    +0.000 A 
ATOM      5  C   UNL     1      -4.084  10.848  16.340  0.00  0.00    +0.000 A 
ATOM      6  C   UNL     1      -4.822  11.243  17.455  0.00  0.00    +0.000 A 
ATOM      7  C   UNL     1      -4.153  11.751  18.586  0.00  0.00    +0.000 A 
ATOM      8  C   UNL     1      -4.588  12.257  19.820  0.00  0.00    +0.000 A 
ATOM      9  N   UNL     1      -5.915  12.385  20.234  0.00  0.00    +0.000 NA
ATOM     10  C   UNL     1      -6.021  12.971  21.380  0.00  0.00    +0.000 A 
ATOM     11  N   UNL     1      -5.004  13.451  22.181  0.00  0.00    +0.000 N 
ATOM     12  C   UNL     1      -3.672  13.272  21.855  0.00  0.00    +0.000 A 
ATOM     13  O   UNL     1      -2.751  13.594  22.596  0.00  0.00    +0.000 OA
ATOM     14  C   UNL     1      -3.511  12.649  20.568  0.00  0.00    +0.000 A 
ATOM     15  C   UNL     1      -5.430  13.979  23.456  0.00  0.00    +0.000 C 
ATOM     16  C   UNL     1      -6.883  14.404  23.337  0.00  0.00    +0.000 C 
ATOM     17  S   UNL     1      -7.577  13.256  22.122  0.00  0.00    +0.000 S 
ENDROOT
BRANCH   1  18
ATOM     18  C   UNL     1      -1.013  12.535  20.342  0.00  0.00    +0.000 C 
BRANCH  18  24
ATOM     19  C   UNL     1       2.436   7.350  18.231  0.00  0.00    +0.000 C 
ATOM     20  N   UNL     1       2.139   8.520  19.054  0.00  0.00    +0.000 NA
ATOM     21  C   UNL     1       1.340   8.143  20.238  0.00  0.00    +0.000 C 
ATOM     22  C   UNL     1       1.012   9.360  21.126  0.00  0.00    +0.000 C 
ATOM     23  N   UNL     1       0.410  10.469  20.377  0.00  0.00    +0.000 N 
ATOM     24  C   UNL     1      -0.353  11.390  21.091  0.00  0.00    +0.000 C 
ATOM     25  O   UNL     1      -0.584  11.236  22.295  0.00  0.00    +0.000 OA
ATOM     26  C   UNL     1       1.093  10.792  19.120  0.00  0.00    +0.000 C 
ATOM     27  C   UNL     1       1.408   9.539  18.279  0.00  0.00    +0.000 C 
ENDBRANCH  18  24
ENDBRANCH   1  18
TORSDOF 2
ENDMDL
MODEL 5
REMARK VINA RESULT:      -6.9      4.285      9.049
REMARK  Name = 
REMARK  3 active torsions:
REMARK  status: ('A' for Active; 'I' for Inactive)
REMARK    1  A    between atoms: C_1  and  N_2
REMARK    2  A    between atoms: C_6  and  C_8
REMARK    3  A    between atoms: C_8  and  N_9
REMARK                            x       y       z     vdW  Elec       q    Type
REMARK                         _______ _______ _______ _____ _____    ______ ____
ROOT
ATOM      1  N   UNL     1      -0.484  10.979  19.147  0.00  0.00    +0.000 N 
ATOM      2  C   UNL     1      -1.543  10.734  18.273  0.00  0.00    +0.000 A 
ATOM      3  C   UNL     1      -1.685   9.872  17.173  0.00  0.00    +0.000 A 
ATOM      4  C   UNL     1      -2.925   9.812  16.519  0.00  0.00    +0.000 A 
ATOM      5  C   UNL     1      -3.995  10.598  16.929  0.00  0.00    +0.000 A 
ATOM      6  C   UNL     1      -3.844  11.486  17.993  0.00  0.00    +0.000 A 
ATOM      7  C   UNL     1      -2.609  11.559  18.667  0.00  0.00    +0.000 A 
ATOM      8  C   UNL     1      -2.129  12.348  19.723  0.00  0.00    +0.000 A 
ATOM      9  N   UNL     1      -2.843  13.340  20.398  0.00  0.00    +0.000 NA
ATOM     10  C   UNL     1      -2.118  13.970  21.261  0.00  0.00    +0.000 A 
ATOM     11  N   UNL     1      -0.785  13.764  21.556  0.00  0.00    +0.000 N 
ATOM     12  C   UNL     1      -0.059  12.740  20.977  0.00  0.00    +0.000 A 
ATOM     13  O   UNL     1       1.092  12.469  21.297  0.00  0.00    +0.000 OA
ATOM     14  C   UNL     1      -0.823  12.031  19.985  0.00  0.00    +0.000 A 
ATOM     15  C   UNL     1      -0.269  14.569  22.639  0.00  0.00    +0.000 C 
ATOM     16  C   UNL     1      -1.132  15.813  22.765  0.00  0.00    +0.000 C 
ATOM     17  S   UNL     1      -2.774  15.261  22.238  0.00  0.00    +0.000 S 
ENDROOT
BRANCH   1  18
ATOM     18  C   UNL     1       0.821  10.319  19.170  0.00  0.00    +0.000 C 
BRANCH  18  24
ATOM     19  C   UNL     1       3.111   4.209  18.357  0.00  0.00    +0.000 C 
ATOM     20  N   UNL     1       2.988   5.525  18.980  0.00  0.00    +0.000 NA
ATOM     21  C   UNL     1       1.919   5.528  19.999  0.00  0.00    +0.000 C 
ATOM     22  C   UNL     1       1.767   6.907  20.673  0.00  0.00    +0.000 C 
ATOM     23  N   UNL     1       1.623   8.003  19.708  0.00  0.00    +0.000 N 
ATOM     24  C   UNL     1       1.012   9.175  20.151  0.00  0.00    +0.000 C 
ATOM     25  O   UNL     1       0.535   9.260  21.287  0.00  0.00    +0.000 OA
ATOM     26  C   UNL     1       2.581   7.964  18.599  0.00  0.00    +0.000 C 
ATOM     27  C   UNL     1       2.702   6.561  17.971  0.00  0.00    +0.000 C 
ENDBRANCH  18  24
ENDBRANCH   1  18
TORSDOF 2
ENDMDL
MODEL 6
REMARK VINA RESULT:      -6.9      3.476      6.208
REMARK  Name = 
REMARK  3 active torsions:
REMARK  status: ('A' for Active; 'I' for Inactive)
REMARK    1  A    between atoms: C_1  and  N_2
REMARK    2  A    between atoms: C_6  and  C_8
REMARK    3  A    between atoms: C_8  and  N_9
REMARK                            x       y       z     vdW  Elec       q    Type
REMARK                         _______ _______ _______ _____ _____    ______ ____
ROOT
ATOM      1  N   UNL     1       0.317  10.413  19.607  0.00  0.00    +0.000 N 
ATOM      2  C   UNL     1      -0.080  10.421  20.944  0.00  0.00    +0.000 A 
ATOM      3  C   UNL     1      -0.799  11.349  21.716  0.00  0.00    +0.000 A 
ATOM      4  C   UNL     1      -1.094  11.032  23.050  0.00  0.00    +0.000 A 
ATOM      5  C   UNL     1      -0.673   9.836  23.617  0.00  0.00    +0.000 A 
ATOM      6  C   UNL     1       0.077   8.931  22.867  0.00  0.00    +0.000 A 
ATOM      7  C   UNL     1       0.381   9.227  21.524  0.00  0.00    +0.000 A 
ATOM      8  C   UNL     1       1.124   8.568  20.533  0.00  0.00    +0.000 A 
ATOM      9  N   UNL     1       1.800   7.355  20.682  0.00  0.00    +0.000 NA
ATOM     10  C   UNL     1       2.480   7.036  19.632  0.00  0.00    +0.000 A 
ATOM     11  N   UNL     1       2.591   7.741  18.450  0.00  0.00    +0.000 N 
ATOM     12  C   UNL     1       1.875   8.901  18.223  0.00  0.00    +0.000 A 
ATOM     13  O   UNL     1       1.874   9.489  17.148  0.00  0.00    +0.000 OA
ATOM     14  C   UNL     1       1.127   9.310  19.382  0.00  0.00    +0.000 A 
ATOM     15  C   UNL     1       3.355   7.082  17.417  0.00  0.00    +0.000 C 
ATOM     16  C   UNL     1       4.305   6.097  18.077  0.00  0.00    +0.000 C 
ATOM     17  S   UNL     1       3.418   5.563  19.563  0.00  0.00    +0.000 S 
ENDROOT
BRANCH   1  18
ATOM     18  C   UNL     1       0.021  11.419  18.586  0.00  0.00    +0.000 C 
BRANCH  18  24
ATOM     19  C   UNL     1      -4.238   9.761  13.859  0.00  0.00    +0.000 C 
ATOM     20  N   UNL     1      -3.762   9.968  15.225  0.00  0.00    +0.000 NA
ATOM     21  C   UNL     1      -4.020  11.352  15.670  0.00  0.00    +0.000 C 
ATOM     22  C   UNL     1      -3.526  11.598  17.110  0.00  0.00    +0.000 C 
ATOM     23  N   UNL     1      -2.128  11.198  17.312  0.00  0.00    +0.000 N 
ATOM     24  C   UNL     1      -1.435  11.789  18.367  0.00  0.00    +0.000 C 
ATOM     25  O   UNL     1      -1.949  12.676  19.055  0.00  0.00    +0.000 OA
ATOM     26  C   UNL     1      -1.790   9.881  16.763  0.00  0.00    +0.000 C 
ATOM     27  C   UNL     1      -2.318   9.686  15.328  0.00  0.00    +0.000 C 
ENDBRANCH  18  24
ENDBRANCH   1  18
TORSDOF 2
ENDMDL
MODEL 7
REMARK VINA RESULT:      -6.8      3.491      6.042
REMARK  Name = 
REMARK  3 active torsions:
REMARK  status: ('A' for Active; 'I' for Inactive)
REMARK    1  A    between atoms: C_1  and  N_2
REMARK    2  A    between atoms: C_6  and  C_8
REMARK    3  A    between atoms: C_8  and  N_9
REMARK                            x       y       z     vdW  Elec       q    Type
REMARK                         _______ _______ _______ _____ _____    ______ ____
ROOT
ATOM      1  N   UNL     1       0.909  10.398  19.508  0.00  0.00    +0.000 N 
ATOM      2  C   UNL     1       0.317  10.583  20.757  0.00  0.00    +0.000 A 
ATOM      3  C   UNL     1      -0.261  11.704  21.377  0.00  0.00    +0.000 A 
ATOM      4  C   UNL     1      -0.837  11.550  22.646  0.00  0.00    +0.000 A 
ATOM      5  C   UNL     1      -0.829  10.323  23.299  0.00  0.00    +0.000 A 
ATOM      6  C   UNL     1      -0.219   9.219  22.705  0.00  0.00    +0.000 A 
ATOM      7  C   UNL     1       0.362   9.350  21.428  0.00  0.00    +0.000 A 
ATOM      8  C   UNL     1       1.065   8.471  20.591  0.00  0.00    +0.000 A 
ATOM      9  N   UNL     1       1.380   7.140  20.875  0.00  0.00    +0.000 NA
ATOM     10  C   UNL     1       2.118   6.601  19.964  0.00  0.00    +0.000 A 
ATOM     11  N   UNL     1       2.593   7.186  18.806  0.00  0.00    +0.000 N 
ATOM     12  C   UNL     1       2.239   8.470  18.438  0.00  0.00    +0.000 A 
ATOM     13  O   UNL     1       2.560   8.975  17.369  0.00  0.00    +0.000 OA
ATOM     14  C   UNL     1       1.441   9.119  19.445  0.00  0.00    +0.000 A 
ATOM     15  C   UNL     1       3.323   6.298  17.930  0.00  0.00    +0.000 C 
ATOM     16  C   UNL     1       3.874   5.152  18.761  0.00  0.00    +0.000 C 
ATOM     17  S   UNL     1       2.654   4.942  20.082  0.00  0.00    +0.000 S 
ENDROOT
BRANCH   1  18
ATOM     18  C   UNL     1       1.046  11.383  18.434  0.00  0.00    +0.000 C 
BRANCH  18  24
ATOM     19  C   UNL     1       1.851  17.569  20.510  0.00  0.00    +0.000 C 
ATOM     20  N   UNL     1       1.463  16.501  19.592  0.00  0.00    +0.000 NA
ATOM     21  C   UNL     1       0.077  16.063  19.848  0.00  0.00    +0.000 C 
ATOM     22  C   UNL     1      -0.359  14.934  18.892  0.00  0.00    +0.000 C 
ATOM     23  N   UNL     1       0.586  13.811  18.864  0.00  0.00    +0.000 N 
ATOM     24  C   UNL     1       0.102  12.572  18.449  0.00  0.00    +0.000 C 
ATOM     25  O   UNL     1      -1.095  12.404  18.193  0.00  0.00    +0.000 OA
ATOM     26  C   UNL     1       1.993  14.206  18.747  0.00  0.00    +0.000 C 
ATOM     27  C   UNL     1       2.370  15.345  19.715  0.00  0.00    +0.000 C 
ENDBRANCH  18  24
ENDBRANCH   1  18
TORSDOF 2
ENDMDL
MODEL 8
REMARK VINA RESULT:      -6.6      4.975      9.879
REMARK  Name = 
REMARK  3 active torsions:
REMARK  status: ('A' for Active; 'I' for Inactive)
REMARK    1  A    between atoms: C_1  and  N_2
REMARK    2  A    between atoms: C_6  and  C_8
REMARK    3  A    between atoms: C_8  and  N_9
REMARK                            x       y       z     vdW  Elec       q    Type
REMARK                         _______ _______ _______ _____ _____    ______ ____
ROOT
ATOM      1  N   UNL     1      -1.535  11.908  19.596  0.00  0.00    +0.000 N 
ATOM      2  C   UNL     1      -2.094  11.289  18.479  0.00  0.00    +0.000 A 
ATOM      3  C   UNL     1      -1.532  10.568  17.411  0.00  0.00    +0.000 A 
ATOM      4  C   UNL     1      -2.387  10.009  16.451  0.00  0.00    +0.000 A 
ATOM      5  C   UNL     1      -3.765  10.171  16.530  0.00  0.00    +0.000 A 
ATOM      6  C   UNL     1      -4.323  10.920  17.564  0.00  0.00    +0.000 A 
ATOM      7  C   UNL     1      -3.483  11.488  18.542  0.00  0.00    +0.000 A 
ATOM      8  C   UNL     1      -3.714  12.304  19.660  0.00  0.00    +0.000 A 
ATOM      9  N   UNL     1      -4.955  12.785  20.084  0.00  0.00    +0.000 NA
ATOM     10  C   UNL     1      -4.855  13.592  21.087  0.00  0.00    +0.000 A 
ATOM     11  N   UNL     1      -3.705  13.995  21.737  0.00  0.00    +0.000 N 
ATOM     12  C   UNL     1      -2.464  13.481  21.410  0.00  0.00    +0.000 A 
ATOM     13  O   UNL     1      -1.445  13.741  22.037  0.00  0.00    +0.000 OA
ATOM     14  C   UNL     1      -2.527  12.600  20.274  0.00  0.00    +0.000 A 
ATOM     15  C   UNL     1      -3.920  14.838  22.890  0.00  0.00    +0.000 C 
ATOM     16  C   UNL     1      -5.265  15.527  22.736  0.00  0.00    +0.000 C 
ATOM     17  S   UNL     1      -6.263  14.335  21.807  0.00  0.00    +0.000 S 
ENDROOT
BRANCH   1  18
ATOM     18  C   UNL     1      -0.126  11.923  19.992  0.00  0.00    +0.000 C 
BRANCH  18  24
ATOM     19  C   UNL     1       2.525   6.092  18.509  0.00  0.00    +0.000 C 
ATOM     20  N   UNL     1       2.406   7.378  19.193  0.00  0.00    +0.000 NA
ATOM     21  C   UNL     1       1.570   7.255  20.405  0.00  0.00    +0.000 C 
ATOM     22  C   UNL     1       1.427   8.599  21.147  0.00  0.00    +0.000 C 
ATOM     23  N   UNL     1       0.985   9.692  20.272  0.00  0.00    +0.000 N 
ATOM     24  C   UNL     1       0.368  10.788  20.871  0.00  0.00    +0.000 C 
ATOM     25  O   UNL     1       0.126  10.805  22.083  0.00  0.00    +0.000 OA
ATOM     26  C   UNL     1       1.698   9.769  18.992  0.00  0.00    +0.000 C 
ATOM     27  C   UNL     1       1.823   8.397  18.301  0.00  0.00    +0.000 C 
ENDBRANCH  18  24
ENDBRANCH   1  18
TORSDOF 2
ENDMDL
MODEL 9
REMARK VINA RESULT:      -6.6      9.636     10.619
REMARK  Name = 
REMARK  3 active torsions:
REMARK  status: ('A' for Active; 'I' for Inactive)
REMARK    1  A    between atoms: C_1  and  N_2
REMARK    2  A    between atoms: C_6  and  C_8
REMARK    3  A    between atoms: C_8  and  N_9
REMARK                            x       y       z     vdW  Elec       q    Type
REMARK                         _______ _______ _______ _____ _____    ______ ____
ROOT
ATOM      1  N   UNL     1       8.459  14.234  19.854  0.00  0.00    +0.000 N 
ATOM      2  C   UNL     1       9.482  13.399  19.406  0.00  0.00    +0.000 A 
ATOM      3  C   UNL     1      10.149  13.291  18.174  0.00  0.00    +0.000 A 
ATOM      4  C   UNL     1      11.199  12.369  18.054  0.00  0.00    +0.000 A 
ATOM      5  C   UNL     1      11.572  11.558  19.119  0.00  0.00    +0.000 A 
ATOM      6  C   UNL     1      10.886  11.633  20.330  0.00  0.00    +0.000 A 
ATOM      7  C   UNL     1       9.831  12.555  20.474  0.00  0.00    +0.000 A 
ATOM      8  C   UNL     1       8.939  12.850  21.516  0.00  0.00    +0.000 A 
ATOM      9  N   UNL     1       8.896  12.221  22.763  0.00  0.00    +0.000 NA
ATOM     10  C   UNL     1       7.909  12.630  23.488  0.00  0.00    +0.000 A 
ATOM     11  N   UNL     1       6.955  13.574  23.163  0.00  0.00    +0.000 N 
ATOM     12  C   UNL     1       7.005  14.284  21.978  0.00  0.00    +0.000 A 
ATOM     13  O   UNL     1       6.234  15.198  21.710  0.00  0.00    +0.000 OA
ATOM     14  C   UNL     1       8.074  13.836  21.125  0.00  0.00    +0.000 A 
ATOM     15  C   UNL     1       6.024  13.890  24.222  0.00  0.00    +0.000 C 
ATOM     16  C   UNL     1       5.968  12.711  25.178  0.00  0.00    +0.000 C 
ATOM     17  S   UNL     1       7.630  11.999  25.094  0.00  0.00    +0.000 S 
ENDROOT
BRANCH   1  18
ATOM     18  C   UNL     1       7.808  15.316  19.115  0.00  0.00    +0.000 C 
BRANCH  18  24
ATOM     19  C   UNL     1       1.585  17.429  19.328  0.00  0.00    +0.000 C 
ATOM     20  N   UNL     1       2.865  17.084  18.715  0.00  0.00    +0.000 NA
ATOM     21  C   UNL     1       2.898  15.659  18.328  0.00  0.00    +0.000 C 
ATOM     22  C   UNL     1       4.240  15.267  17.678  0.00  0.00    +0.000 C 
ATOM     23  N   UNL     1       5.403  15.654  18.487  0.00  0.00    +0.000 N 
ATOM     24  C   UNL     1       6.593  14.961  18.276  0.00  0.00    +0.000 C 
ATOM     25  O   UNL     1       6.648  14.002  17.498  0.00  0.00    +0.000 OA
ATOM     26  C   UNL     1       5.349  17.023  19.008  0.00  0.00    +0.000 C 
ATOM     27  C   UNL     1       3.983  17.365  19.635  0.00  0.00    +0.000 C 
ENDBRANCH  18  24
ENDBRANCH   1  18
TORSDOF 2
ENDMDL
