MODEL 1
REMARK VINA RESULT:      -7.6      0.000      0.000
REMARK  Name = 
REMARK  2 active torsions:
REMARK  status: ('A' for Active; 'I' for Inactive)
REMARK    1  A    between atoms: C_2  and  O_3
REMARK    2  A    between atoms: O_3  and  C_4
REMARK                            x       y       z     vdW  Elec       q    Type
REMARK                         _______ _______ _______ _____ _____    ______ ____
ROOT
ATOM      1  O   UNL     1       1.004   9.257  21.697  0.00  0.00    +0.000 OA
ATOM      2  C   UNL     1       1.266   8.979  20.532  0.00  0.00    +0.000 C 
ATOM      3  N   UNL     1       1.490   7.691  20.069  0.00  0.00    +0.000 N 
ATOM      4  C   UNL     1       1.751   7.396  18.662  0.00  0.00    +0.000 C 
ATOM      5  C   UNL     1       2.939   6.456  18.521  0.00  0.00    +0.000 C 
ATOM      6  C   UNL     1       2.746   5.149  19.334  0.00  0.00    +0.000 C 
ATOM      7  C   UNL     1       1.541   4.302  18.844  0.00  0.00    +0.000 C 
ATOM      8  C   UNL     1       1.721   3.828  17.405  0.00  0.00    +0.000 C 
ATOM      9  C   UNL     1       3.028   3.055  17.238  0.00  0.00    +0.000 C 
ATOM     10  N   UNL     1       4.135   3.804  17.816  0.00  0.00    +0.000 N 
ATOM     11  C   UNL     1       5.247   4.095  17.065  0.00  0.00    +0.000 A 
ATOM     12  N   UNL     1       5.252   3.776  15.759  0.00  0.00    +0.000 NA
ATOM     13  C   UNL     1       6.342   4.091  15.035  0.00  0.00    +0.000 A 
ATOM     14  C   UNL     1       7.441   4.719  15.556  0.00  0.00    +0.000 A 
ATOM     15  C   UNL     1       7.356   5.009  16.891  0.00  0.00    +0.000 A 
ATOM     16  N   UNL     1       6.284   4.716  17.650  0.00  0.00    +0.000 NA
ATOM     17  C   UNL     1       4.019   4.275  19.194  0.00  0.00    +0.000 C 
ATOM     18  C   UNL     1       2.532   5.566  20.811  0.00  0.00    +0.000 C 
ATOM     19  C   UNL     1       1.376   6.560  20.981  0.00  0.00    +0.000 C 
ENDROOT
BRANCH   2  20
ATOM     20  O   UNL     1       1.390   9.916  19.511  0.00  0.00    +0.000 OA
BRANCH  20  21
ATOM     21  C   UNL     1       0.329  10.715  19.042  0.00  0.00    +0.000 A 
ATOM     22  C   UNL     1      -0.595  10.028  18.249  0.00  0.00    +0.000 A 
ATOM     23  C   UNL     1      -1.651  10.717  17.660  0.00  0.00    +0.000 A 
ATOM     24  C   UNL     1      -1.790  12.088  17.879  0.00  0.00    +0.000 A 
ATOM     25  C   UNL     1      -0.862  12.768  18.670  0.00  0.00    +0.000 A 
ATOM     26  C   UNL     1       0.209  12.084  19.249  0.00  0.00    +0.000 A 
ENDBRANCH  20  21
ENDBRANCH   2  20
TORSDOF 2
ENDMDL
MODEL 2
REMARK VINA RESULT:      -7.5      0.506      1.030
REMARK  Name = 
REMARK  2 active torsions:
REMARK  status: ('A' for Active; 'I' for Inactive)
REMARK    1  A    between atoms: C_2  and  O_3
REMARK    2  A    between atoms: O_3  and  C_4
REMARK                            x       y       z     vdW  Elec       q    Type
REMARK                         _______ _______ _______ _____ _____    ______ ____
ROOT
ATOM      1  O   UNL     1       1.071   8.826  22.118  0.00  0.00    +0.000 OA
ATOM      2  C   UNL     1       1.320   8.658  20.929  0.00  0.00    +0.000 C 
ATOM      3  N   UNL     1       1.523   7.418  20.342  0.00  0.00    +0.000 N 
ATOM      4  C   UNL     1       1.769   7.256  18.911  0.00  0.00    +0.000 C 
ATOM      5  C   UNL     1       2.942   6.319  18.670  0.00  0.00    +0.000 C 
ATOM      6  C   UNL     1       2.736   4.942  19.355  0.00  0.00    +0.000 C 
ATOM      7  C   UNL     1       1.516   4.163  18.796  0.00  0.00    +0.000 C 
ATOM      8  C   UNL     1       1.679   3.828  17.317  0.00  0.00    +0.000 C 
ATOM      9  C   UNL     1       2.973   3.056  17.065  0.00  0.00    +0.000 C 
ATOM     10  N   UNL     1       4.095   3.731  17.703  0.00  0.00    +0.000 N 
ATOM     11  C   UNL     1       5.206   4.078  16.974  0.00  0.00    +0.000 A 
ATOM     12  N   UNL     1       5.198   3.886  15.644  0.00  0.00    +0.000 NA
ATOM     13  C   UNL     1       6.286   4.254  14.944  0.00  0.00    +0.000 A 
ATOM     14  C   UNL     1       7.399   4.813  15.515  0.00  0.00    +0.000 A 
ATOM     15  C   UNL     1       7.327   4.974  16.872  0.00  0.00    +0.000 A 
ATOM     16  N   UNL     1       6.256   4.625  17.608  0.00  0.00    +0.000 NA
ATOM     17  C   UNL     1       3.995   4.067  19.121  0.00  0.00    +0.000 C 
ATOM     18  C   UNL     1       2.539   5.217  20.867  0.00  0.00    +0.000 C 
ATOM     19  C   UNL     1       1.398   6.206  21.142  0.00  0.00    +0.000 C 
ENDROOT
BRANCH   2  20
ATOM     20  O   UNL     1       1.451   9.688  20.003  0.00  0.00    +0.000 OA
BRANCH  20  21
ATOM     21  C   UNL     1       0.373  10.455  19.520  0.00  0.00    +0.000 A 
ATOM     22  C   UNL     1       0.073  11.573  20.304  0.00  0.00    +0.000 A 
ATOM     23  C   UNL     1      -1.018  12.373  19.980  0.00  0.00    +0.000 A 
ATOM     24  C   UNL     1      -1.796  12.065  18.864  0.00  0.00    +0.000 A 
ATOM     25  C   UNL     1      -1.492  10.945  18.087  0.00  0.00    +0.000 A 
ATOM     26  C   UNL     1      -0.409  10.128  18.418  0.00  0.00    +0.000 A 
ENDBRANCH  20  21
ENDBRANCH   2  20
TORSDOF 2
ENDMDL
MODEL 3
REMARK VINA RESULT:      -7.4      1.335      1.828
REMARK  Name = 
REMARK  2 active torsions:
REMARK  status: ('A' for Active; 'I' for Inactive)
REMARK    1  A    between atoms: C_2  and  O_3
REMARK    2  A    between atoms: O_3  and  C_4
REMARK                            x       y       z     vdW  Elec       q    Type
REMARK                         _______ _______ _______ _____ _____    ______ ____
ROOT
ATOM      1  O   UNL     1       0.989  10.377  20.899  0.00  0.00    +0.000 OA
ATOM      2  C   UNL     1       1.216   9.904  19.791  0.00  0.00    +0.000 C 
ATOM      3  N   UNL     1       1.434   8.556  19.548  0.00  0.00    +0.000 N 
ATOM      4  C   UNL     1       1.652   8.025  18.204  0.00  0.00    +0.000 C 
ATOM      5  C   UNL     1       2.841   7.076  18.188  0.00  0.00    +0.000 C 
ATOM      6  C   UNL     1       2.682   5.927  19.218  0.00  0.00    +0.000 C 
ATOM      7  C   UNL     1       1.467   5.008  18.919  0.00  0.00    +0.000 C 
ATOM      8  C   UNL     1       1.605   4.295  17.577  0.00  0.00    +0.000 C 
ATOM      9  C   UNL     1       2.911   3.506  17.503  0.00  0.00    +0.000 C 
ATOM     10  N   UNL     1       4.031   4.343  17.909  0.00  0.00    +0.000 N 
ATOM     11  C   UNL     1       5.118   4.503  17.085  0.00  0.00    +0.000 A 
ATOM     12  N   UNL     1       5.085   3.965  15.853  0.00  0.00    +0.000 NA
ATOM     13  C   UNL     1       6.149   4.152  15.052  0.00  0.00    +0.000 A 
ATOM     14  C   UNL     1       7.260   4.861  15.423  0.00  0.00    +0.000 A 
ATOM     15  C   UNL     1       7.215   5.374  16.691  0.00  0.00    +0.000 A 
ATOM     16  N   UNL     1       6.169   5.215  17.522  0.00  0.00    +0.000 NA
ATOM     17  C   UNL     1       3.955   5.042  19.189  0.00  0.00    +0.000 C 
ATOM     18  C   UNL     1       2.512   6.590  20.608  0.00  0.00    +0.000 C 
ATOM     19  C   UNL     1       1.355   7.597  20.643  0.00  0.00    +0.000 C 
ENDROOT
BRANCH   2  20
ATOM     20  O   UNL     1       1.303  10.653  18.622  0.00  0.00    +0.000 OA
BRANCH  20  21
ATOM     21  C   UNL     1       1.313  12.061  18.587  0.00  0.00    +0.000 A 
ATOM     22  C   UNL     1       2.566  12.615  18.306  0.00  0.00    +0.000 A 
ATOM     23  C   UNL     1       2.730  13.996  18.316  0.00  0.00    +0.000 A 
ATOM     24  C   UNL     1       1.640  14.821  18.589  0.00  0.00    +0.000 A 
ATOM     25  C   UNL     1       0.392  14.261  18.872  0.00  0.00    +0.000 A 
ATOM     26  C   UNL     1       0.225  12.875  18.880  0.00  0.00    +0.000 A 
ENDBRANCH  20  21
ENDBRANCH   2  20
TORSDOF 2
ENDMDL
MODEL 4
REMARK VINA RESULT:      -7.3      0.831      1.187
REMARK  Name = 
REMARK  2 active torsions:
REMARK  status: ('A' for Active; 'I' for Inactive)
REMARK    1  A    between atoms: C_2  and  O_3
REMARK    2  A    between atoms: O_3  and  C_4
REMARK                            x       y       z     vdW  Elec       q    Type
REMARK                         _______ _______ _______ _____ _____    ______ ____
ROOT
ATOM      1  O   UNL     1       1.009   9.939  21.286  0.00  0.00    +0.000 OA
ATOM      2  C   UNL     1       1.283   9.538  20.161  0.00  0.00    +0.000 C 
ATOM      3  N   UNL     1       1.468   8.203  19.832  0.00  0.00    +0.000 N 
ATOM      4  C   UNL     1       1.746   7.761  18.467  0.00  0.00    +0.000 C 
ATOM      5  C   UNL     1       2.900   6.771  18.447  0.00  0.00    +0.000 C 
ATOM      6  C   UNL     1       2.642   5.559  19.381  0.00  0.00    +0.000 C 
ATOM      7  C   UNL     1       1.416   4.710  18.948  0.00  0.00    +0.000 C 
ATOM      8  C   UNL     1       1.607   4.090  17.568  0.00  0.00    +0.000 C 
ATOM      9  C   UNL     1       2.887   3.258  17.509  0.00  0.00    +0.000 C 
ATOM     10  N   UNL     1       4.010   4.021  18.035  0.00  0.00    +0.000 N 
ATOM     11  C   UNL     1       5.147   4.197  17.286  0.00  0.00    +0.000 A 
ATOM     12  N   UNL     1       5.166   3.749  16.019  0.00  0.00    +0.000 NA
ATOM     13  C   UNL     1       6.281   3.952  15.293  0.00  0.00    +0.000 A 
ATOM     14  C   UNL     1       7.393   4.589  15.775  0.00  0.00    +0.000 A 
ATOM     15  C   UNL     1       7.292   5.013  17.073  0.00  0.00    +0.000 A 
ATOM     16  N   UNL     1       6.195   4.836  17.831  0.00  0.00    +0.000 NA
ATOM     17  C   UNL     1       3.884   4.630  19.357  0.00  0.00    +0.000 C 
ATOM     18  C   UNL     1       2.415   6.127  20.804  0.00  0.00    +0.000 C 
ATOM     19  C   UNL     1       1.293   7.173  20.848  0.00  0.00    +0.000 C 
ENDROOT
BRANCH   2  20
ATOM     20  O   UNL     1       1.462  10.364  19.056  0.00  0.00    +0.000 OA
BRANCH  20  21
ATOM     21  C   UNL     1       1.067  11.715  19.010  0.00  0.00    +0.000 A 
ATOM     22  C   UNL     1      -0.286  11.903  18.713  0.00  0.00    +0.000 A 
ATOM     23  C   UNL     1      -0.790  13.192  18.563  0.00  0.00    +0.000 A 
ATOM     24  C   UNL     1       0.056  14.289  18.726  0.00  0.00    +0.000 A 
ATOM     25  C   UNL     1       1.408  14.093  19.019  0.00  0.00    +0.000 A 
ATOM     26  C   UNL     1       1.922  12.802  19.154  0.00  0.00    +0.000 A 
ENDBRANCH  20  21
ENDBRANCH   2  20
TORSDOF 2
ENDMDL
MODEL 5
REMARK VINA RESULT:      -6.6      3.331      8.873
REMARK  Name = 
REMARK  2 active torsions:
REMARK  status: ('A' for Active; 'I' for Inactive)
REMARK    1  A    between atoms: C_2  and  O_3
REMARK    2  A    between atoms: O_3  and  C_4
REMARK                            x       y       z     vdW  Elec       q    Type
REMARK                         _______ _______ _______ _____ _____    ______ ____
ROOT
ATOM      1  O   UNL     1       3.786   6.825  18.790  0.00  0.00    +0.000 OA
ATOM      2  C   UNL     1       2.712   7.006  19.353  0.00  0.00    +0.000 C 
ATOM      3  N   UNL     1       1.796   7.982  18.990  0.00  0.00    +0.000 N 
ATOM      4  C   UNL     1       0.504   8.134  19.656  0.00  0.00    +0.000 C 
ATOM      5  C   UNL     1       0.242   9.594  19.994  0.00  0.00    +0.000 C 
ATOM      6  C   UNL     1       0.330  10.506  18.743  0.00  0.00    +0.000 C 
ATOM      7  C   UNL     1      -0.744  10.172  17.673  0.00  0.00    +0.000 C 
ATOM      8  C   UNL     1      -2.160  10.388  18.197  0.00  0.00    +0.000 C 
ATOM      9  C   UNL     1      -2.344  11.810  18.723  0.00  0.00    +0.000 C 
ATOM     10  N   UNL     1      -1.259  12.158  19.630  0.00  0.00    +0.000 N 
ATOM     11  C   UNL     1      -1.528  12.605  20.900  0.00  0.00    +0.000 A 
ATOM     12  N   UNL     1      -2.801  12.613  21.331  0.00  0.00    +0.000 NA
ATOM     13  C   UNL     1      -3.041  13.033  22.587  0.00  0.00    +0.000 A 
ATOM     14  C   UNL     1      -2.059  13.450  23.446  0.00  0.00    +0.000 A 
ATOM     15  C   UNL     1      -0.792  13.412  22.930  0.00  0.00    +0.000 A 
ATOM     16  N   UNL     1      -0.508  12.995  21.683  0.00  0.00    +0.000 NA
ATOM     17  C   UNL     1       0.117  11.980  19.175  0.00  0.00    +0.000 C 
ATOM     18  C   UNL     1       1.747  10.313  18.145  0.00  0.00    +0.000 C 
ATOM     19  C   UNL     1       2.065   8.843  17.845  0.00  0.00    +0.000 C 
ENDROOT
BRANCH   2  20
ATOM     20  O   UNL     1       2.265   6.269  20.445  0.00  0.00    +0.000 OA
BRANCH  20  21
ATOM     21  C   UNL     1       2.044   4.879  20.420  0.00  0.00    +0.000 A 
ATOM     22  C   UNL     1       1.547   4.403  19.203  0.00  0.00    +0.000 A 
ATOM     23  C   UNL     1       1.213   3.058  19.069  0.00  0.00    +0.000 A 
ATOM     24  C   UNL     1       1.392   2.190  20.145  0.00  0.00    +0.000 A 
ATOM     25  C   UNL     1       1.886   2.673  21.359  0.00  0.00    +0.000 A 
ATOM     26  C   UNL     1       2.206   4.025  21.504  0.00  0.00    +0.000 A 
ENDBRANCH  20  21
ENDBRANCH   2  20
TORSDOF 2
ENDMDL
MODEL 6
REMARK VINA RESULT:      -6.5      7.745     10.253
REMARK  Name = 
REMARK  2 active torsions:
REMARK  status: ('A' for Active; 'I' for Inactive)
REMARK    1  A    between atoms: C_2  and  O_3
REMARK    2  A    between atoms: O_3  and  C_4
REMARK                            x       y       z     vdW  Elec       q    Type
REMARK                         _______ _______ _______ _____ _____    ______ ____
ROOT
ATOM      1  O   UNL     1      -6.114  13.132  24.778  0.00  0.00    +0.000 OA
ATOM      2  C   UNL     1      -5.503  13.458  23.767  0.00  0.00    +0.000 C 
ATOM      3  N   UNL     1      -5.970  13.261  22.475  0.00  0.00    +0.000 N 
ATOM      4  C   UNL     1      -5.233  13.709  21.296  0.00  0.00    +0.000 C 
ATOM      5  C   UNL     1      -5.176  12.608  20.248  0.00  0.00    +0.000 C 
ATOM      6  C   UNL     1      -6.589  12.103  19.858  0.00  0.00    +0.000 C 
ATOM      7  C   UNL     1      -7.465  13.201  19.197  0.00  0.00    +0.000 C 
ATOM      8  C   UNL     1      -6.867  13.698  17.885  0.00  0.00    +0.000 C 
ATOM      9  C   UNL     1      -6.627  12.542  16.915  0.00  0.00    +0.000 C 
ATOM     10  N   UNL     1      -5.914  11.462  17.583  0.00  0.00    +0.000 N 
ATOM     11  C   UNL     1      -4.742  10.972  17.061  0.00  0.00    +0.000 A 
ATOM     12  N   UNL     1      -4.206  11.577  15.987  0.00  0.00    +0.000 NA
ATOM     13  C   UNL     1      -3.045  11.097  15.504  0.00  0.00    +0.000 A 
ATOM     14  C   UNL     1      -2.383  10.029  16.049  0.00  0.00    +0.000 A 
ATOM     15  C   UNL     1      -2.996   9.470  17.139  0.00  0.00    +0.000 A 
ATOM     16  N   UNL     1      -4.152   9.923  17.655  0.00  0.00    +0.000 NA
ATOM     17  C   UNL     1      -6.448  10.942  18.839  0.00  0.00    +0.000 C 
ATOM     18  C   UNL     1      -7.263  11.604  21.161  0.00  0.00    +0.000 C 
ATOM     19  C   UNL     1      -7.286  12.674  22.260  0.00  0.00    +0.000 C 
ENDROOT
BRANCH   2  20
ATOM     20  O   UNL     1      -4.247  14.057  23.768  0.00  0.00    +0.000 OA
BRANCH  20  21
ATOM     21  C   UNL     1      -3.054  13.386  23.435  0.00  0.00    +0.000 A 
ATOM     22  C   UNL     1      -2.032  14.229  22.990  0.00  0.00    +0.000 A 
ATOM     23  C   UNL     1      -0.825  13.687  22.558  0.00  0.00    +0.000 A 
ATOM     24  C   UNL     1      -0.637  12.305  22.588  0.00  0.00    +0.000 A 
ATOM     25  C   UNL     1      -1.664  11.468  23.031  0.00  0.00    +0.000 A 
ATOM     26  C   UNL     1      -2.883  12.007  23.450  0.00  0.00    +0.000 A 
ENDBRANCH  20  21
ENDBRANCH   2  20
TORSDOF 2
ENDMDL
MODEL 7
REMARK VINA RESULT:      -6.5      4.788     10.663
REMARK  Name = 
REMARK  2 active torsions:
REMARK  status: ('A' for Active; 'I' for Inactive)
REMARK    1  A    between atoms: C_2  and  O_3
REMARK    2  A    between atoms: O_3  and  C_4
REMARK                            x       y       z     vdW  Elec       q    Type
REMARK                         _______ _______ _______ _____ _____    ______ ____
ROOT
ATOM      1  O   UNL     1       0.761   9.854  22.425  0.00  0.00    +0.000 OA
ATOM      2  C   UNL     1       0.298  10.524  21.510  0.00  0.00    +0.000 C 
ATOM      3  N   UNL     1      -0.634  11.538  21.679  0.00  0.00    +0.000 N 
ATOM      4  C   UNL     1      -1.125  12.347  20.566  0.00  0.00    +0.000 C 
ATOM      5  C   UNL     1      -2.641  12.467  20.616  0.00  0.00    +0.000 C 
ATOM      6  C   UNL     1      -3.134  13.034  21.973  0.00  0.00    +0.000 C 
ATOM      7  C   UNL     1      -2.637  14.480  22.243  0.00  0.00    +0.000 C 
ATOM      8  C   UNL     1      -3.162  15.469  21.207  0.00  0.00    +0.000 C 
ATOM      9  C   UNL     1      -4.687  15.428  21.129  0.00  0.00    +0.000 C 
ATOM     10  N   UNL     1      -5.150  14.053  21.003  0.00  0.00    +0.000 N 
ATOM     11  C   UNL     1      -5.974  13.687  19.968  0.00  0.00    +0.000 A 
ATOM     12  N   UNL     1      -6.259  14.588  19.012  0.00  0.00    +0.000 NA
ATOM     13  C   UNL     1      -7.049  14.203  17.994  0.00  0.00    +0.000 A 
ATOM     14  C   UNL     1      -7.577  12.945  17.879  0.00  0.00    +0.000 A 
ATOM     15  C   UNL     1      -7.240  12.088  18.893  0.00  0.00    +0.000 A 
ATOM     16  N   UNL     1      -6.449  12.431  19.925  0.00  0.00    +0.000 NA
ATOM     17  C   UNL     1      -4.685  13.066  21.974  0.00  0.00    +0.000 C 
ATOM     18  C   UNL     1      -2.609  12.081  23.076  0.00  0.00    +0.000 C 
ATOM     19  C   UNL     1      -1.088  11.893  23.017  0.00  0.00    +0.000 C 
ENDROOT
BRANCH   2  20
ATOM     20  O   UNL     1       0.628  10.355  20.169  0.00  0.00    +0.000 OA
BRANCH  20  21
ATOM     21  C   UNL     1       1.327   9.241  19.665  0.00  0.00    +0.000 A 
ATOM     22  C   UNL     1       1.649   9.336  18.308  0.00  0.00    +0.000 A 
ATOM     23  C   UNL     1       2.273   8.271  17.667  0.00  0.00    +0.000 A 
ATOM     24  C   UNL     1       2.591   7.120  18.387  0.00  0.00    +0.000 A 
ATOM     25  C   UNL     1       2.264   7.030  19.742  0.00  0.00    +0.000 A 
ATOM     26  C   UNL     1       1.622   8.090  20.386  0.00  0.00    +0.000 A 
ENDBRANCH  20  21
ENDBRANCH   2  20
TORSDOF 2
ENDMDL
MODEL 8
REMARK VINA RESULT:      -6.5      4.620      8.833
REMARK  Name = 
REMARK  2 active torsions:
REMARK  status: ('A' for Active; 'I' for Inactive)
REMARK    1  A    between atoms: C_2  and  O_3
REMARK    2  A    between atoms: O_3  and  C_4
REMARK                            x       y       z     vdW  Elec       q    Type
REMARK                         _______ _______ _______ _____ _____    ______ ____
ROOT
ATOM      1  O   UNL     1      -1.335  10.111  19.076  0.00  0.00    +0.000 OA
ATOM      2  C   UNL     1      -0.345  10.464  19.706  0.00  0.00    +0.000 C 
ATOM      3  N   UNL     1       0.066  11.782  19.838  0.00  0.00    +0.000 N 
ATOM      4  C   UNL     1       1.226  12.167  20.640  0.00  0.00    +0.000 C 
ATOM      5  C   UNL     1       2.111  13.137  19.873  0.00  0.00    +0.000 C 
ATOM      6  C   UNL     1       1.327  14.389  19.399  0.00  0.00    +0.000 C 
ATOM      7  C   UNL     1       0.772  15.238  20.573  0.00  0.00    +0.000 C 
ATOM      8  C   UNL     1       1.887  15.802  21.449  0.00  0.00    +0.000 C 
ATOM      9  C   UNL     1       2.884  16.611  20.621  0.00  0.00    +0.000 C 
ATOM     10  N   UNL     1       3.302  15.851  19.451  0.00  0.00    +0.000 N 
ATOM     11  C   UNL     1       4.634  15.629  19.203  0.00  0.00    +0.000 A 
ATOM     12  N   UNL     1       5.541  16.026  20.112  0.00  0.00    +0.000 NA
ATOM     13  C   UNL     1       6.839  15.778  19.862  0.00  0.00    +0.000 A 
ATOM     14  C   UNL     1       7.284  15.143  18.734  0.00  0.00    +0.000 A 
ATOM     15  C   UNL     1       6.299  14.772  17.859  0.00  0.00    +0.000 A 
ATOM     16  N   UNL     1       4.990  14.996  18.073  0.00  0.00    +0.000 NA
ATOM     17  C   UNL     1       2.275  15.296  18.573  0.00  0.00    +0.000 C 
ATOM     18  C   UNL     1       0.158  13.879  18.518  0.00  0.00    +0.000 C 
ATOM     19  C   UNL     1      -0.722  12.854  19.244  0.00  0.00    +0.000 C 
ENDROOT
BRANCH   2  20
ATOM     20  O   UNL     1       0.516   9.593  20.366  0.00  0.00    +0.000 OA
BRANCH  20  21
ATOM     21  C   UNL     1       1.364   8.679  19.712  0.00  0.00    +0.000 A 
ATOM     22  C   UNL     1       1.722   9.060  18.416  0.00  0.00    +0.000 A 
ATOM     23  C   UNL     1       2.496   8.209  17.632  0.00  0.00    +0.000 A 
ATOM     24  C   UNL     1       2.925   6.988  18.152  0.00  0.00    +0.000 A 
ATOM     25  C   UNL     1       2.561   6.612  19.447  0.00  0.00    +0.000 A 
ATOM     26  C   UNL     1       1.770   7.455  20.231  0.00  0.00    +0.000 A 
ENDBRANCH  20  21
ENDBRANCH   2  20
TORSDOF 2
ENDMDL
MODEL 9
REMARK VINA RESULT:      -6.4      6.663      9.744
REMARK  Name = 
REMARK  2 active torsions:
REMARK  status: ('A' for Active; 'I' for Inactive)
REMARK    1  A    between atoms: C_2  and  O_3
REMARK    2  A    between atoms: O_3  and  C_4
REMARK                            x       y       z     vdW  Elec       q    Type
REMARK                         _______ _______ _______ _____ _____    ______ ____
ROOT
ATOM      1  O   UNL     1      -3.000   9.335  16.125  0.00  0.00    +0.000 OA
ATOM      2  C   UNL     1      -3.077  10.439  16.652  0.00  0.00    +0.000 C 
ATOM      3  N   UNL     1      -2.172  10.923  17.585  0.00  0.00    +0.000 N 
ATOM      4  C   UNL     1      -2.271  12.265  18.154  0.00  0.00    +0.000 C 
ATOM      5  C   UNL     1      -2.103  12.222  19.665  0.00  0.00    +0.000 C 
ATOM      6  C   UNL     1      -0.773  11.541  20.083  0.00  0.00    +0.000 C 
ATOM      7  C   UNL     1       0.482  12.308  19.589  0.00  0.00    +0.000 C 
ATOM      8  C   UNL     1       0.571  13.708  20.190  0.00  0.00    +0.000 C 
ATOM      9  C   UNL     1       0.534  13.657  21.716  0.00  0.00    +0.000 C 
ATOM     10  N   UNL     1      -0.576  12.829  22.167  0.00  0.00    +0.000 N 
ATOM     11  C   UNL     1      -1.504  13.326  23.048  0.00  0.00    +0.000 A 
ATOM     12  N   UNL     1      -1.437  14.621  23.402  0.00  0.00    +0.000 NA
ATOM     13  C   UNL     1      -2.370  15.095  24.248  0.00  0.00    +0.000 A 
ATOM     14  C   UNL     1      -3.382  14.330  24.764  0.00  0.00    +0.000 A 
ATOM     15  C   UNL     1      -3.379  13.024  24.355  0.00  0.00    +0.000 A 
ATOM     16  N   UNL     1      -2.468  12.512  23.507  0.00  0.00    +0.000 NA
ATOM     17  C   UNL     1      -0.703  11.476  21.631  0.00  0.00    +0.000 C 
ATOM     18  C   UNL     1      -0.790  10.114  19.479  0.00  0.00    +0.000 C 
ATOM     19  C   UNL     1      -1.016  10.119  17.962  0.00  0.00    +0.000 C 
ENDROOT
BRANCH   2  20
ATOM     20  O   UNL     1      -4.090  11.359  16.401  0.00  0.00    +0.000 OA
BRANCH  20  21
ATOM     21  C   UNL     1      -5.233  11.513  17.210  0.00  0.00    +0.000 A 
ATOM     22  C   UNL     1      -5.923  12.710  17.000  0.00  0.00    +0.000 A 
ATOM     23  C   UNL     1      -7.027  13.021  17.788  0.00  0.00    +0.000 A 
ATOM     24  C   UNL     1      -7.449  12.127  18.772  0.00  0.00    +0.000 A 
ATOM     25  C   UNL     1      -6.753  10.934  18.978  0.00  0.00    +0.000 A 
ATOM     26  C   UNL     1      -5.634  10.625  18.202  0.00  0.00    +0.000 A 
ENDBRANCH  20  21
ENDBRANCH   2  20
TORSDOF 2
ENDMDL
