MODEL 1
REMARK VINA RESULT:      -7.6      0.000      0.000
REMARK  Name = 
REMARK  6 active torsions:
REMARK  status: ('A' for Active; 'I' for Inactive)
REMARK    1  A    between atoms: C_1  and  O_2
REMARK    2  A    between atoms: O_2  and  C_3
REMARK    3  A    between atoms: C_3  and  C_4
REMARK    4  A    between atoms: C_4  and  N_5
REMARK    5  A    between atoms: C_11  and  C_12
REMARK    6  A    between atoms: N_17  and  C_18
REMARK                            x       y       z     vdW  Elec       q    Type
REMARK                         _______ _______ _______ _____ _____    ______ ____
ROOT
ATOM      1  N   UNL     1       4.255   5.196  17.851  0.00  0.00    +0.000 N 
ATOM      2  C   UNL     1       3.836   4.745  19.099  0.00  0.00    +0.000 A 
ATOM      3  S   UNL     1       4.247   3.294  19.842  0.00  0.00    +0.000 S 
ATOM      4  N   UNL     1       3.003   5.567  19.817  0.00  0.00    +0.000 N 
ATOM      5  C   UNL     1       2.594   6.828  19.388  0.00  0.00    +0.000 A 
ATOM      6  C   UNL     1       1.724   7.602  20.162  0.00  0.00    +0.000 A 
ATOM      7  C   UNL     1       1.337   8.867  19.708  0.00  0.00    +0.000 A 
ATOM      8  C   UNL     1       1.873   9.380  18.516  0.00  0.00    +0.000 A 
ATOM      9  C   UNL     1       2.719   8.596  17.741  0.00  0.00    +0.000 A 
ATOM     10  C   UNL     1       3.073   7.321  18.182  0.00  0.00    +0.000 A 
ATOM     11  C   UNL     1       3.970   6.480  17.370  0.00  0.00    +0.000 A 
ATOM     12  O   UNL     1       4.438   6.964  16.340  0.00  0.00    +0.000 OA
ATOM     13  H   UNL     1       2.687   5.223  20.718  0.00  0.00    +0.000 HD
ENDROOT
BRANCH   7  14
ATOM     14  C   UNL     1       0.410   9.707  20.519  0.00  0.00    +0.000 C 
ATOM     15  O   UNL     1       0.507   9.664  21.739  0.00  0.00    +0.000 OA
ATOM     16  N   UNL     1      -0.478  10.542  19.833  0.00  0.00    +0.000 N 
ATOM     17  C   UNL     1      -1.226  11.525  20.622  0.00  0.00    +0.000 C 
ATOM     18  C   UNL     1      -1.889  12.624  19.751  0.00  0.00    +0.000 C 
ATOM     19  N   UNL     1      -2.636  12.147  18.545  0.00  0.00    +0.000 NA
ATOM     20  C   UNL     1      -1.681  11.296  17.794  0.00  0.00    +0.000 C 
ATOM     21  C   UNL     1      -1.160  10.098  18.608  0.00  0.00    +0.000 C 
BRANCH  19  22
ATOM     22  C   UNL     1      -3.903  11.451  18.909  0.00  0.00    +0.000 C 
ATOM     23  C   UNL     1      -4.749  12.277  19.908  0.00  0.00    +0.000 C 
ATOM     24  C   UNL     1      -5.441  13.480  19.270  0.00  0.00    +0.000 C 
ATOM     25  C   UNL     1      -6.351  13.061  18.125  0.00  0.00    +0.000 C 
ATOM     26  C   UNL     1      -5.632  12.192  17.099  0.00  0.00    +0.000 C 
ATOM     27  C   UNL     1      -4.835  11.052  17.732  0.00  0.00    +0.000 C 
ENDBRANCH  19  22
ENDBRANCH   7  14
BRANCH   1  28
ATOM     28  C   UNL     1       5.015   4.339  16.921  0.00  0.00    +0.000 C 
BRANCH  28  29
ATOM     29  C   UNL     1       6.533   4.412  17.148  0.00  0.00    +0.000 C 
BRANCH  29  31
ATOM     30  C   UNL     1       6.367   4.394  14.798  0.00  0.00    +0.000 C 
ATOM     31  O   UNL     1       7.211   4.652  15.913  0.00  0.00    +0.000 OA
ENDBRANCH  29  31
ENDBRANCH  28  29
ENDBRANCH   1  28
TORSDOF 5
ENDMDL
MODEL 2
REMARK VINA RESULT:      -7.2      1.557      2.116
REMARK  Name = 
REMARK  6 active torsions:
REMARK  status: ('A' for Active; 'I' for Inactive)
REMARK    1  A    between atoms: C_1  and  O_2
REMARK    2  A    between atoms: O_2  and  C_3
REMARK    3  A    between atoms: C_3  and  C_4
REMARK    4  A    between atoms: C_4  and  N_5
REMARK    5  A    between atoms: C_11  and  C_12
REMARK    6  A    between atoms: N_17  and  C_18
REMARK                            x       y       z     vdW  Elec       q    Type
REMARK                         _______ _______ _______ _____ _____    ______ ____
ROOT
ATOM      1  N   UNL     1       3.281   4.652  18.995  0.00  0.00    +0.000 N 
ATOM      2  C   UNL     1       2.795   4.504  20.290  0.00  0.00    +0.000 A 
ATOM      3  S   UNL     1       2.934   3.149  21.276  0.00  0.00    +0.000 S 
ATOM      4  N   UNL     1       2.135   5.575  20.840  0.00  0.00    +0.000 N 
ATOM      5  C   UNL     1       1.965   6.799  20.195  0.00  0.00    +0.000 A 
ATOM      6  C   UNL     1       1.259   7.839  20.807  0.00  0.00    +0.000 A 
ATOM      7  C   UNL     1       1.111   9.059  20.138  0.00  0.00    +0.000 A 
ATOM      8  C   UNL     1       1.724   9.255  18.891  0.00  0.00    +0.000 A 
ATOM      9  C   UNL     1       2.403   8.208  18.279  0.00  0.00    +0.000 A 
ATOM     10  C   UNL     1       2.518   6.983  18.936  0.00  0.00    +0.000 A 
ATOM     11  C   UNL     1       3.237   5.866  18.299  0.00  0.00    +0.000 A 
ATOM     12  O   UNL     1       3.779   6.074  17.214  0.00  0.00    +0.000 OA
ATOM     13  H   UNL     1       1.766   5.453  21.778  0.00  0.00    +0.000 HD
ENDROOT
BRANCH   7  14
ATOM     14  C   UNL     1       0.362  10.180  20.773  0.00  0.00    +0.000 C 
ATOM     15  O   UNL     1       0.652  10.494  21.921  0.00  0.00    +0.000 OA
ATOM     16  N   UNL     1      -0.590  10.848  19.997  0.00  0.00    +0.000 N 
ATOM     17  C   UNL     1      -1.160  12.083  20.543  0.00  0.00    +0.000 C 
ATOM     18  C   UNL     1      -1.910  12.928  19.478  0.00  0.00    +0.000 C 
ATOM     19  N   UNL     1      -2.860  12.181  18.595  0.00  0.00    +0.000 NA
ATOM     20  C   UNL     1      -2.074  11.064  18.016  0.00  0.00    +0.000 C 
ATOM     21  C   UNL     1      -1.479  10.122  19.077  0.00  0.00    +0.000 C 
BRANCH  19  22
ATOM     22  C   UNL     1      -4.079  11.740  19.331  0.00  0.00    +0.000 C 
ATOM     23  C   UNL     1      -4.713  12.894  20.144  0.00  0.00    +0.000 C 
ATOM     24  C   UNL     1      -5.447  13.916  19.279  0.00  0.00    +0.000 C 
ATOM     25  C   UNL     1      -6.550  13.266  18.457  0.00  0.00    +0.000 C 
ATOM     26  C   UNL     1      -6.048  12.074  17.650  0.00  0.00    +0.000 C 
ATOM     27  C   UNL     1      -5.208  11.100  18.477  0.00  0.00    +0.000 C 
ENDBRANCH  19  22
ENDBRANCH   7  14
BRANCH   1  28
ATOM     28  C   UNL     1       3.863   3.524  18.241  0.00  0.00    +0.000 C 
BRANCH  28  29
ATOM     29  C   UNL     1       2.798   2.575  17.672  0.00  0.00    +0.000 C 
BRANCH  29  31
ATOM     30  C   UNL     1       0.650   2.295  18.597  0.00  0.00    +0.000 C 
ATOM     31  O   UNL     1       1.493   3.139  17.824  0.00  0.00    +0.000 OA
ENDBRANCH  29  31
ENDBRANCH  28  29
ENDBRANCH   1  28
TORSDOF 5
ENDMDL
MODEL 3
REMARK VINA RESULT:      -7.1      1.263      1.442
REMARK  Name = 
REMARK  6 active torsions:
REMARK  status: ('A' for Active; 'I' for Inactive)
REMARK    1  A    between atoms: C_1  and  O_2
REMARK    2  A    between atoms: O_2  and  C_3
REMARK    3  A    between atoms: C_3  and  C_4
REMARK    4  A    between atoms: C_4  and  N_5
REMARK    5  A    between atoms: C_11  and  C_12
REMARK    6  A    between atoms: N_17  and  C_18
REMARK                            x       y       z     vdW  Elec       q    Type
REMARK                         _______ _______ _______ _____ _____    ______ ____
ROOT
ATOM      1  N   UNL     1       3.264   4.992  18.761  0.00  0.00    +0.000 N 
ATOM      2  C   UNL     1       2.776   4.683  20.027  0.00  0.00    +0.000 A 
ATOM      3  S   UNL     1       2.949   3.226  20.850  0.00  0.00    +0.000 S 
ATOM      4  N   UNL     1       2.085   5.665  20.692  0.00  0.00    +0.000 N 
ATOM      5  C   UNL     1       1.884   6.949  20.193  0.00  0.00    +0.000 A 
ATOM      6  C   UNL     1       1.147   7.893  20.916  0.00  0.00    +0.000 A 
ATOM      7  C   UNL     1       0.968   9.177  20.391  0.00  0.00    +0.000 A 
ATOM      8  C   UNL     1       1.580   9.533  19.179  0.00  0.00    +0.000 A 
ATOM      9  C   UNL     1       2.291   8.583  18.455  0.00  0.00    +0.000 A 
ATOM     10  C   UNL     1       2.437   7.294  18.967  0.00  0.00    +0.000 A 
ATOM     11  C   UNL     1       3.188   6.278  18.209  0.00  0.00    +0.000 A 
ATOM     12  O   UNL     1       3.729   6.625  17.160  0.00  0.00    +0.000 OA
ATOM     13  H   UNL     1       1.717   5.424  21.607  0.00  0.00    +0.000 HD
ENDROOT
BRANCH   7  14
ATOM     14  C   UNL     1       0.186  10.196  21.147  0.00  0.00    +0.000 C 
ATOM     15  O   UNL     1       0.400  10.319  22.347  0.00  0.00    +0.000 OA
ATOM     16  N   UNL     1      -0.706  10.996  20.427  0.00  0.00    +0.000 N 
ATOM     17  C   UNL     1      -1.303  12.139  21.124  0.00  0.00    +0.000 C 
ATOM     18  C   UNL     1      -1.973  13.155  20.160  0.00  0.00    +0.000 C 
ATOM     19  N   UNL     1      -2.867  12.575  19.109  0.00  0.00    +0.000 NA
ATOM     20  C   UNL     1      -2.052  11.551  18.413  0.00  0.00    +0.000 C 
ATOM     21  C   UNL     1      -1.536  10.442  19.346  0.00  0.00    +0.000 C 
BRANCH  19  22
ATOM     22  C   UNL     1      -4.135  12.045  19.684  0.00  0.00    +0.000 C 
ATOM     23  C   UNL     1      -4.860  13.098  20.557  0.00  0.00    +0.000 C 
ATOM     24  C   UNL     1      -5.536  14.201  19.746  0.00  0.00    +0.000 C 
ATOM     25  C   UNL     1      -6.551  13.632  18.766  0.00  0.00    +0.000 C 
ATOM     26  C   UNL     1      -5.958  12.541  17.882  0.00  0.00    +0.000 C 
ATOM     27  C   UNL     1      -5.175  11.491  18.670  0.00  0.00    +0.000 C 
ENDBRANCH  19  22
ENDBRANCH   7  14
BRANCH   1  28
ATOM     28  C   UNL     1       3.879   3.976  17.886  0.00  0.00    +0.000 C 
BRANCH  28  29
ATOM     29  C   UNL     1       5.397   4.155  17.738  0.00  0.00    +0.000 C 
BRANCH  29  31
ATOM     30  C   UNL     1       6.781   5.410  19.172  0.00  0.00    +0.000 C 
ATOM     31  O   UNL     1       6.020   4.219  19.023  0.00  0.00    +0.000 OA
ENDBRANCH  29  31
ENDBRANCH  28  29
ENDBRANCH   1  28
TORSDOF 5
ENDMDL
MODEL 4
REMARK VINA RESULT:      -7.0      2.607      2.981
REMARK  Name = 
REMARK  6 active torsions:
REMARK  status: ('A' for Active; 'I' for Inactive)
REMARK    1  A    between atoms: C_1  and  O_2
REMARK    2  A    between atoms: O_2  and  C_3
REMARK    3  A    between atoms: C_3  and  C_4
REMARK    4  A    between atoms: C_4  and  N_5
REMARK    5  A    between atoms: C_11  and  C_12
REMARK    6  A    between atoms: N_17  and  C_18
REMARK                            x       y       z     vdW  Elec       q    Type
REMARK                         _______ _______ _______ _____ _____    ______ ____
ROOT
ATOM      1  N   UNL     1       4.474   5.032  17.746  0.00  0.00    +0.000 N 
ATOM      2  C   UNL     1       4.059   4.549  18.984  0.00  0.00    +0.000 A 
ATOM      3  S   UNL     1       4.509   3.099  19.707  0.00  0.00    +0.000 S 
ATOM      4  N   UNL     1       3.196   5.334  19.708  0.00  0.00    +0.000 N 
ATOM      5  C   UNL     1       2.753   6.588  19.295  0.00  0.00    +0.000 A 
ATOM      6  C   UNL     1       1.853   7.323  20.074  0.00  0.00    +0.000 A 
ATOM      7  C   UNL     1       1.432   8.583  19.637  0.00  0.00    +0.000 A 
ATOM      8  C   UNL     1       1.960   9.131  18.458  0.00  0.00    +0.000 A 
ATOM      9  C   UNL     1       2.835   8.385  17.677  0.00  0.00    +0.000 A 
ATOM     10  C   UNL     1       3.226   7.115  18.101  0.00  0.00    +0.000 A 
ATOM     11  C   UNL     1       4.153   6.314  17.283  0.00  0.00    +0.000 A 
ATOM     12  O   UNL     1       4.614   6.829  16.265  0.00  0.00    +0.000 OA
ATOM     13  H   UNL     1       2.884   4.966  20.601  0.00  0.00    +0.000 HD
ENDROOT
BRANCH   7  14
ATOM     14  C   UNL     1       0.473   9.381  20.453  0.00  0.00    +0.000 C 
ATOM     15  O   UNL     1      -0.396   8.783  21.076  0.00  0.00    +0.000 OA
ATOM     16  N   UNL     1       0.661  10.766  20.506  0.00  0.00    +0.000 N 
ATOM     17  C   UNL     1      -0.136  11.518  21.480  0.00  0.00    +0.000 C 
ATOM     18  C   UNL     1       0.396  12.957  21.717  0.00  0.00    +0.000 C 
ATOM     19  N   UNL     1       0.725  13.747  20.490  0.00  0.00    +0.000 NA
ATOM     20  C   UNL     1       1.652  12.898  19.704  0.00  0.00    +0.000 C 
ATOM     21  C   UNL     1       1.052  11.535  19.315  0.00  0.00    +0.000 C 
BRANCH  19  22
ATOM     22  C   UNL     1      -0.497  14.154  19.741  0.00  0.00    +0.000 C 
ATOM     23  C   UNL     1      -1.511  14.895  20.648  0.00  0.00    +0.000 C 
ATOM     24  C   UNL     1      -1.089  16.321  20.993  0.00  0.00    +0.000 C 
ATOM     25  C   UNL     1      -0.884  17.163  19.742  0.00  0.00    +0.000 C 
ATOM     26  C   UNL     1       0.063  16.502  18.746  0.00  0.00    +0.000 C 
ATOM     27  C   UNL     1      -0.275  15.035  18.480  0.00  0.00    +0.000 C 
ENDBRANCH  19  22
ENDBRANCH   7  14
BRANCH   1  28
ATOM     28  C   UNL     1       5.267   4.213  16.810  0.00  0.00    +0.000 C 
BRANCH  28  29
ATOM     29  C   UNL     1       6.781   4.413  16.977  0.00  0.00    +0.000 C 
BRANCH  29  31
ATOM     30  C   UNL     1       6.556   4.323  14.634  0.00  0.00    +0.000 C 
ATOM     31  O   UNL     1       7.388   4.714  15.719  0.00  0.00    +0.000 OA
ENDBRANCH  29  31
ENDBRANCH  28  29
ENDBRANCH   1  28
TORSDOF 5
ENDMDL
MODEL 5
REMARK VINA RESULT:      -6.9      3.914      9.821
REMARK  Name = 
REMARK  6 active torsions:
REMARK  status: ('A' for Active; 'I' for Inactive)
REMARK    1  A    between atoms: C_1  and  O_2
REMARK    2  A    between atoms: O_2  and  C_3
REMARK    3  A    between atoms: C_3  and  C_4
REMARK    4  A    between atoms: C_4  and  N_5
REMARK    5  A    between atoms: C_11  and  C_12
REMARK    6  A    between atoms: N_17  and  C_18
REMARK                            x       y       z     vdW  Elec       q    Type
REMARK                         _______ _______ _______ _____ _____    ______ ____
ROOT
ATOM      1  N   UNL     1      -1.235  12.756  22.256  0.00  0.00    +0.000 N 
ATOM      2  C   UNL     1      -0.749  13.539  21.214  0.00  0.00    +0.000 A 
ATOM      3  S   UNL     1      -0.968  15.194  21.004  0.00  0.00    +0.000 S 
ATOM      4  N   UNL     1      -0.002  12.910  20.249  0.00  0.00    +0.000 N 
ATOM      5  C   UNL     1       0.327  11.557  20.279  0.00  0.00    +0.000 A 
ATOM      6  C   UNL     1       1.073  10.977  19.249  0.00  0.00    +0.000 A 
ATOM      7  C   UNL     1       1.394   9.617  19.310  0.00  0.00    +0.000 A 
ATOM      8  C   UNL     1       1.026   8.859  20.432  0.00  0.00    +0.000 A 
ATOM      9  C   UNL     1       0.265   9.436  21.441  0.00  0.00    +0.000 A 
ATOM     10  C   UNL     1      -0.082  10.784  21.357  0.00  0.00    +0.000 A 
ATOM     11  C   UNL     1      -0.888  11.409  22.421  0.00  0.00    +0.000 A 
ATOM     12  O   UNL     1      -1.180  10.723  23.400  0.00  0.00    +0.000 OA
ATOM     13  H   UNL     1       0.333  13.486  19.483  0.00  0.00    +0.000 HD
ENDROOT
BRANCH   7  14
ATOM     14  C   UNL     1       2.188   8.981  18.221  0.00  0.00    +0.000 C 
ATOM     15  O   UNL     1       2.353   9.608  17.181  0.00  0.00    +0.000 OA
ATOM     16  N   UNL     1       2.751   7.726  18.474  0.00  0.00    +0.000 N 
ATOM     17  C   UNL     1       3.711   7.207  17.496  0.00  0.00    +0.000 C 
ATOM     18  C   UNL     1       4.538   6.009  18.035  0.00  0.00    +0.000 C 
ATOM     19  N   UNL     1       3.764   4.933  18.729  0.00  0.00    +0.000 NA
ATOM     20  C   UNL     1       2.972   5.622  19.777  0.00  0.00    +0.000 C 
ATOM     21  C   UNL     1       2.017   6.690  19.218  0.00  0.00    +0.000 C 
BRANCH  19  22
ATOM     22  C   UNL     1       2.937   4.136  17.779  0.00  0.00    +0.000 C 
ATOM     23  C   UNL     1       3.518   2.718  17.556  0.00  0.00    +0.000 C 
ATOM     24  C   UNL     1       3.298   1.778  18.739  0.00  0.00    +0.000 C 
ATOM     25  C   UNL     1       1.820   1.628  19.069  0.00  0.00    +0.000 C 
ATOM     26  C   UNL     1       1.128   2.973  19.259  0.00  0.00    +0.000 C 
ATOM     27  C   UNL     1       1.436   3.970  18.141  0.00  0.00    +0.000 C 
ENDBRANCH  19  22
ENDBRANCH   7  14
BRANCH   1  28
ATOM     28  C   UNL     1      -2.180  13.282  23.260  0.00  0.00    +0.000 C 
BRANCH  28  29
ATOM     29  C   UNL     1      -3.631  13.308  22.757  0.00  0.00    +0.000 C 
BRANCH  29  31
ATOM     30  C   UNL     1      -4.344  12.359  24.792  0.00  0.00    +0.000 C 
ATOM     31  O   UNL     1      -4.392  12.267  23.374  0.00  0.00    +0.000 OA
ENDBRANCH  29  31
ENDBRANCH  28  29
ENDBRANCH   1  28
TORSDOF 5
ENDMDL
MODEL 6
REMARK VINA RESULT:      -6.9      3.388      4.688
REMARK  Name = 
REMARK  6 active torsions:
REMARK  status: ('A' for Active; 'I' for Inactive)
REMARK    1  A    between atoms: C_1  and  O_2
REMARK    2  A    between atoms: O_2  and  C_3
REMARK    3  A    between atoms: C_3  and  C_4
REMARK    4  A    between atoms: C_4  and  N_5
REMARK    5  A    between atoms: C_11  and  C_12
REMARK    6  A    between atoms: N_17  and  C_18
REMARK                            x       y       z     vdW  Elec       q    Type
REMARK                         _______ _______ _______ _____ _____    ______ ____
ROOT
ATOM      1  N   UNL     1       4.391   5.803  18.347  0.00  0.00    +0.000 N 
ATOM      2  C   UNL     1       4.378   6.473  17.128  0.00  0.00    +0.000 A 
ATOM      3  S   UNL     1       5.300   6.118  15.768  0.00  0.00    +0.000 S 
ATOM      4  N   UNL     1       3.518   7.536  17.004  0.00  0.00    +0.000 N 
ATOM      5  C   UNL     1       2.640   7.948  18.005  0.00  0.00    +0.000 A 
ATOM      6  C   UNL     1       1.808   9.056  17.818  0.00  0.00    +0.000 A 
ATOM      7  C   UNL     1       0.933   9.441  18.838  0.00  0.00    +0.000 A 
ATOM      8  C   UNL     1       0.845   8.679  20.013  0.00  0.00    +0.000 A 
ATOM      9  C   UNL     1       1.691   7.593  20.202  0.00  0.00    +0.000 A 
ATOM     10  C   UNL     1       2.587   7.234  19.195  0.00  0.00    +0.000 A 
ATOM     11  C   UNL     1       3.490   6.085  19.381  0.00  0.00    +0.000 A 
ATOM     12  O   UNL     1       3.376   5.426  20.414  0.00  0.00    +0.000 OA
ATOM     13  H   UNL     1       3.528   8.031  16.118  0.00  0.00    +0.000 HD
ENDROOT
BRANCH   7  14
ATOM     14  C   UNL     1       0.038  10.619  18.658  0.00  0.00    +0.000 C 
ATOM     15  O   UNL     1      -0.972  10.482  17.978  0.00  0.00    +0.000 OA
ATOM     16  N   UNL     1       0.376  11.800  19.326  0.00  0.00    +0.000 N 
ATOM     17  C   UNL     1      -0.614  12.881  19.331  0.00  0.00    +0.000 C 
ATOM     18  C   UNL     1      -0.308  13.980  20.383  0.00  0.00    +0.000 C 
ATOM     19  N   UNL     1       1.103  14.475  20.427  0.00  0.00    +0.000 NA
ATOM     20  C   UNL     1       1.947  13.265  20.575  0.00  0.00    +0.000 C 
ATOM     21  C   UNL     1       1.772  12.253  19.430  0.00  0.00    +0.000 C 
BRANCH  19  22
ATOM     22  C   UNL     1       1.444  15.302  19.235  0.00  0.00    +0.000 C 
ATOM     23  C   UNL     1       0.394  16.412  18.982  0.00  0.00    +0.000 C 
ATOM     24  C   UNL     1       0.482  17.570  19.973  0.00  0.00    +0.000 C 
ATOM     25  C   UNL     1       1.859  18.219  19.954  0.00  0.00    +0.000 C 
ATOM     26  C   UNL     1       2.982  17.206  20.142  0.00  0.00    +0.000 C 
ATOM     27  C   UNL     1       2.842  15.980  19.240  0.00  0.00    +0.000 C 
ENDBRANCH  19  22
ENDBRANCH   7  14
BRANCH   1  28
ATOM     28  C   UNL     1       5.382   4.753  18.656  0.00  0.00    +0.000 C 
BRANCH  28  29
ATOM     29  C   UNL     1       6.633   5.301  19.359  0.00  0.00    +0.000 C 
BRANCH  29  31
ATOM     30  C   UNL     1       7.936   6.982  18.346  0.00  0.00    +0.000 C 
ATOM     31  O   UNL     1       7.657   5.589  18.404  0.00  0.00    +0.000 OA
ENDBRANCH  29  31
ENDBRANCH  28  29
ENDBRANCH   1  28
TORSDOF 5
ENDMDL
MODEL 7
REMARK VINA RESULT:      -6.8      1.971      2.401
REMARK  Name = 
REMARK  6 active torsions:
REMARK  status: ('A' for Active; 'I' for Inactive)
REMARK    1  A    between atoms: C_1  and  O_2
REMARK    2  A    between atoms: O_2  and  C_3
REMARK    3  A    between atoms: C_3  and  C_4
REMARK    4  A    between atoms: C_4  and  N_5
REMARK    5  A    between atoms: C_11  and  C_12
REMARK    6  A    between atoms: N_17  and  C_18
REMARK                            x       y       z     vdW  Elec       q    Type
REMARK                         _______ _______ _______ _____ _____    ______ ____
ROOT
ATOM      1  N   UNL     1       2.697   5.472  19.154  0.00  0.00    +0.000 N 
ATOM      2  C   UNL     1       2.228   5.133  20.419  0.00  0.00    +0.000 A 
ATOM      3  S   UNL     1       2.374   3.645  21.188  0.00  0.00    +0.000 S 
ATOM      4  N   UNL     1       1.581   6.112  21.133  0.00  0.00    +0.000 N 
ATOM      5  C   UNL     1       1.408   7.418  20.682  0.00  0.00    +0.000 A 
ATOM      6  C   UNL     1       0.717   8.358  21.453  0.00  0.00    +0.000 A 
ATOM      7  C   UNL     1       0.566   9.664  20.976  0.00  0.00    +0.000 A 
ATOM      8  C   UNL     1       1.162  10.043  19.764  0.00  0.00    +0.000 A 
ATOM      9  C   UNL     1       1.827   9.098  18.992  0.00  0.00    +0.000 A 
ATOM     10  C   UNL     1       1.945   7.788  19.456  0.00  0.00    +0.000 A 
ATOM     11  C   UNL     1       2.648   6.777  18.648  0.00  0.00    +0.000 A 
ATOM     12  O   UNL     1       3.176   7.144  17.599  0.00  0.00    +0.000 OA
ATOM     13  H   UNL     1       1.226   5.851  22.047  0.00  0.00    +0.000 HD
ENDROOT
BRANCH   7  14
ATOM     14  C   UNL     1      -0.168  10.679  21.784  0.00  0.00    +0.000 C 
ATOM     15  O   UNL     1       0.052  10.732  22.988  0.00  0.00    +0.000 OA
ATOM     16  N   UNL     1      -1.023  11.555  21.106  0.00  0.00    +0.000 N 
ATOM     17  C   UNL     1      -1.565  12.688  21.861  0.00  0.00    +0.000 C 
ATOM     18  C   UNL     1      -2.188  13.781  20.951  0.00  0.00    +0.000 C 
ATOM     19  N   UNL     1      -3.107  13.296  19.875  0.00  0.00    +0.000 NA
ATOM     20  C   UNL     1      -2.341  12.271  19.126  0.00  0.00    +0.000 C 
ATOM     21  C   UNL     1      -1.877  11.094  20.001  0.00  0.00    +0.000 C 
BRANCH  19  22
ATOM     22  C   UNL     1      -4.399  12.797  20.425  0.00  0.00    +0.000 C 
ATOM     23  C   UNL     1      -5.196  13.918  21.137  0.00  0.00    +0.000 C 
ATOM     24  C   UNL     1      -5.841  14.911  20.173  0.00  0.00    +0.000 C 
ATOM     25  C   UNL     1      -6.783  14.218  19.200  0.00  0.00    +0.000 C 
ATOM     26  C   UNL     1      -6.115  13.055  18.475  0.00  0.00    +0.000 C 
ATOM     27  C   UNL     1      -5.362  12.114  19.415  0.00  0.00    +0.000 C 
ENDBRANCH  19  22
ENDBRANCH   7  14
BRANCH   1  28
ATOM     28  C   UNL     1       3.261   4.468  18.230  0.00  0.00    +0.000 C 
BRANCH  28  29
ATOM     29  C   UNL     1       2.194   3.801  17.349  0.00  0.00    +0.000 C 
BRANCH  29  31
ATOM     30  C   UNL     1       3.344   1.840  17.966  0.00  0.00    +0.000 C 
ATOM     31  O   UNL     1       2.077   2.414  17.671  0.00  0.00    +0.000 OA
ENDBRANCH  29  31
ENDBRANCH  28  29
ENDBRANCH   1  28
TORSDOF 5
ENDMDL
MODEL 8
REMARK VINA RESULT:      -6.8      1.864      2.443
REMARK  Name = 
REMARK  6 active torsions:
REMARK  status: ('A' for Active; 'I' for Inactive)
REMARK    1  A    between atoms: C_1  and  O_2
REMARK    2  A    between atoms: O_2  and  C_3
REMARK    3  A    between atoms: C_3  and  C_4
REMARK    4  A    between atoms: C_4  and  N_5
REMARK    5  A    between atoms: C_11  and  C_12
REMARK    6  A    between atoms: N_17  and  C_18
REMARK                            x       y       z     vdW  Elec       q    Type
REMARK                         _______ _______ _______ _____ _____    ______ ____
ROOT
ATOM      1  N   UNL     1       2.865   6.345  18.585  0.00  0.00    +0.000 N 
ATOM      2  C   UNL     1       2.603   5.761  19.821  0.00  0.00    +0.000 A 
ATOM      3  S   UNL     1       3.053   4.222  20.329  0.00  0.00    +0.000 S 
ATOM      4  N   UNL     1       1.912   6.513  20.738  0.00  0.00    +0.000 N 
ATOM      5  C   UNL     1       1.501   7.825  20.517  0.00  0.00    +0.000 A 
ATOM      6  C   UNL     1       0.778   8.524  21.489  0.00  0.00    +0.000 A 
ATOM      7  C   UNL     1       0.385   9.843  21.240  0.00  0.00    +0.000 A 
ATOM      8  C   UNL     1       0.771  10.479  20.051  0.00  0.00    +0.000 A 
ATOM      9  C   UNL     1       1.469   9.772  19.080  0.00  0.00    +0.000 A 
ATOM     10  C   UNL     1       1.829   8.445  19.319  0.00  0.00    +0.000 A 
ATOM     11  C   UNL     1       2.569   7.684  18.298  0.00  0.00    +0.000 A 
ATOM     12  O   UNL     1       2.911   8.274  17.274  0.00  0.00    +0.000 OA
ATOM     13  H   UNL     1       1.709   6.073  21.630  0.00  0.00    +0.000 HD
ENDROOT
BRANCH   7  14
ATOM     14  C   UNL     1      -0.387  10.604  22.264  0.00  0.00    +0.000 C 
ATOM     15  O   UNL     1      -0.202  10.338  23.445  0.00  0.00    +0.000 OA
ATOM     16  N   UNL     1      -1.235  11.622  21.815  0.00  0.00    +0.000 N 
ATOM     17  C   UNL     1      -1.815  12.511  22.825  0.00  0.00    +0.000 C 
ATOM     18  C   UNL     1      -2.428  13.801  22.217  0.00  0.00    +0.000 C 
ATOM     19  N   UNL     1      -3.310  13.612  21.023  0.00  0.00    +0.000 NA
ATOM     20  C   UNL     1      -2.507  12.827  20.054  0.00  0.00    +0.000 C 
ATOM     21  C   UNL     1      -2.051  11.463  20.602  0.00  0.00    +0.000 C 
BRANCH  19  22
ATOM     22  C   UNL     1      -4.609  12.976  21.381  0.00  0.00    +0.000 C 
ATOM     23  C   UNL     1      -5.388  13.805  22.433  0.00  0.00    +0.000 C 
ATOM     24  C   UNL     1      -6.017  15.074  21.863  0.00  0.00    +0.000 C 
ATOM     25  C   UNL     1      -6.970  14.761  20.718  0.00  0.00    +0.000 C 
ATOM     26  C   UNL     1      -6.322  13.899  19.641  0.00  0.00    +0.000 C 
ATOM     27  C   UNL     1      -5.584  12.686  20.207  0.00  0.00    +0.000 C 
ENDBRANCH  19  22
ENDBRANCH   7  14
BRANCH   1  28
ATOM     28  C   UNL     1       3.454   5.585  17.466  0.00  0.00    +0.000 C 
BRANCH  28  29
ATOM     29  C   UNL     1       4.977   5.759  17.363  0.00  0.00    +0.000 C 
BRANCH  29  31
ATOM     30  C   UNL     1       7.058   4.756  17.823  0.00  0.00    +0.000 C 
ATOM     31  O   UNL     1       5.646   4.589  17.839  0.00  0.00    +0.000 OA
ENDBRANCH  29  31
ENDBRANCH  28  29
ENDBRANCH   1  28
TORSDOF 5
ENDMDL
MODEL 9
REMARK VINA RESULT:      -6.8      3.541      4.920
REMARK  Name = 
REMARK  6 active torsions:
REMARK  status: ('A' for Active; 'I' for Inactive)
REMARK    1  A    between atoms: C_1  and  O_2
REMARK    2  A    between atoms: O_2  and  C_3
REMARK    3  A    between atoms: C_3  and  C_4
REMARK    4  A    between atoms: C_4  and  N_5
REMARK    5  A    between atoms: C_11  and  C_12
REMARK    6  A    between atoms: N_17  and  C_18
REMARK                            x       y       z     vdW  Elec       q    Type
REMARK                         _______ _______ _______ _____ _____    ______ ____
ROOT
ATOM      1  N   UNL     1       4.012   5.882  18.739  0.00  0.00    +0.000 N 
ATOM      2  C   UNL     1       4.133   6.583  17.543  0.00  0.00    +0.000 A 
ATOM      3  S   UNL     1       5.151   6.219  16.255  0.00  0.00    +0.000 S 
ATOM      4  N   UNL     1       3.335   7.689  17.378  0.00  0.00    +0.000 N 
ATOM      5  C   UNL     1       2.395   8.116  18.313  0.00  0.00    +0.000 A 
ATOM      6  C   UNL     1       1.633   9.267  18.089  0.00  0.00    +0.000 A 
ATOM      7  C   UNL     1       0.692   9.667  19.044  0.00  0.00    +0.000 A 
ATOM      8  C   UNL     1       0.470   8.880  20.184  0.00  0.00    +0.000 A 
ATOM      9  C   UNL     1       1.247   7.751  20.411  0.00  0.00    +0.000 A 
ATOM     10  C   UNL     1       2.208   7.376  19.473  0.00  0.00    +0.000 A 
ATOM     11  C   UNL     1       3.039   6.180  19.701  0.00  0.00    +0.000 A 
ATOM     12  O   UNL     1       2.808   5.501  20.700  0.00  0.00    +0.000 OA
ATOM     13  H   UNL     1       3.444   8.205  16.511  0.00  0.00    +0.000 HD
ENDROOT
BRANCH   7  14
ATOM     14  C   UNL     1      -0.129  10.891  18.823  0.00  0.00    +0.000 C 
ATOM     15  O   UNL     1      -1.121  10.803  18.110  0.00  0.00    +0.000 OA
ATOM     16  N   UNL     1       0.250  12.058  19.494  0.00  0.00    +0.000 N 
ATOM     17  C   UNL     1      -0.679  13.191  19.456  0.00  0.00    +0.000 C 
ATOM     18  C   UNL     1      -0.349  14.282  20.511  0.00  0.00    +0.000 C 
ATOM     19  N   UNL     1       1.085  14.699  20.600  0.00  0.00    +0.000 NA
ATOM     20  C   UNL     1       1.856  13.446  20.786  0.00  0.00    +0.000 C 
ATOM     21  C   UNL     1       1.664  12.435  19.643  0.00  0.00    +0.000 C 
BRANCH  19  22
ATOM     22  C   UNL     1       1.511  15.495  19.414  0.00  0.00    +0.000 C 
ATOM     23  C   UNL     1       0.473  16.583  19.044  0.00  0.00    +0.000 C 
ATOM     24  C   UNL     1       0.469  17.771  20.003  0.00  0.00    +0.000 C 
ATOM     25  C   UNL     1       1.836  18.437  20.075  0.00  0.00    +0.000 C 
ATOM     26  C   UNL     1       2.951  17.445  20.383  0.00  0.00    +0.000 C 
ATOM     27  C   UNL     1       2.897  16.191  19.510  0.00  0.00    +0.000 C 
ENDBRANCH  19  22
ENDBRANCH   7  14
BRANCH   1  28
ATOM     28  C   UNL     1       4.923   4.779  19.099  0.00  0.00    +0.000 C 
BRANCH  28  29
ATOM     29  C   UNL     1       4.469   3.423  18.540  0.00  0.00    +0.000 C 
BRANCH  29  31
ATOM     30  C   UNL     1       2.607   2.213  19.326  0.00  0.00    +0.000 C 
ATOM     31  O   UNL     1       3.950   2.599  19.586  0.00  0.00    +0.000 OA
ENDBRANCH  29  31
ENDBRANCH  28  29
ENDBRANCH   1  28
TORSDOF 5
ENDMDL
