MODEL 1
REMARK VINA RESULT:      -6.3      0.000      0.000
REMARK  Name = 
REMARK  10 active torsions:
REMARK  status: ('A' for Active; 'I' for Inactive)
REMARK    1  A    between atoms: C_1  and  O_2
REMARK    2  A    between atoms: O_2  and  C_3
REMARK    3  A    between atoms: C_3  and  C_4
REMARK    4  A    between atoms: C_4  and  C_5
REMARK    5  A    between atoms: C_4  and  C_6
REMARK    6  A    between atoms: C_4  and  N_9
REMARK    7  A    between atoms: C_6  and  C_7
REMARK    8  A    between atoms: C_7  and  O_8
REMARK    9  A    between atoms: N_12  and  C_13
REMARK   10  A    between atoms: C_19  and  C_20
REMARK                            x       y       z     vdW  Elec       q    Type
REMARK                         _______ _______ _______ _____ _____    ______ ____
ROOT
ATOM      1  N   UNL     1       3.268   2.808  20.647  0.00  0.00    +0.000 N 
ATOM      2  C   UNL     1       4.373   3.088  19.888  0.00  0.00    +0.000 C 
ATOM      3  O   UNL     1       5.265   2.256  19.794  0.00  0.00    +0.000 OA
ATOM      4  N   UNL     1       4.394   4.339  19.340  0.00  0.00    +0.000 N 
ATOM      5  H   UNL     1       3.298   1.841  20.960  0.00  0.00    +0.000 HD
ATOM      6  H   UNL     1       3.868   5.010  19.859  0.00  0.00    +0.000 HD
ENDROOT
BRANCH   4   7
ATOM      7  C   UNL     1       5.396   4.874  18.518  0.00  0.00    +0.000 A 
ATOM      8  C   UNL     1       6.462   5.585  19.079  0.00  0.00    +0.000 A 
ATOM      9  C   UNL     1       7.527   5.995  18.276  0.00  0.00    +0.000 A 
ATOM     10  C   UNL     1       7.514   5.709  16.912  0.00  0.00    +0.000 A 
ATOM     11  C   UNL     1       6.440   5.023  16.339  0.00  0.00    +0.000 A 
ATOM     12 BR   UNL     1       6.531   4.696  14.470  0.00  0.00    +0.000 Br
ATOM     13  C   UNL     1       5.354   4.598  17.130  0.00  0.00    +0.000 A 
ATOM     14  C   UNL     1       4.164   3.880  16.546  0.00  0.00    +0.000 C 
ENDBRANCH   4   7
BRANCH   1  15
ATOM     15  C   UNL     1       1.925   3.449  20.709  0.00  0.00    +0.000 C 
ATOM     16  C   UNL     1       1.078   2.747  21.791  0.00  0.00    +0.000 C 
BRANCH  15  17
ATOM     17  C   UNL     1       2.101   4.946  21.120  0.00  0.00    +0.000 C 
BRANCH  17  19
ATOM     18  C   UNL     1       2.078   7.169  20.348  0.00  0.00    +0.000 C 
ATOM     19  O   UNL     1       1.827   5.809  20.014  0.00  0.00    +0.000 OA
ENDBRANCH  17  19
ENDBRANCH  15  17
BRANCH  15  20
ATOM     20  C   UNL     1       1.180   3.431  19.345  0.00  0.00    +0.000 C 
BRANCH  20  21
ATOM     21  C   UNL     1       0.857   2.034  18.823  0.00  0.00    +0.000 C 
BRANCH  21  22
ATOM     22  O   UNL     1       1.992   1.523  18.134  0.00  0.00    +0.000 OA
ATOM     23  H   UNL     1       2.735   2.130  18.301  0.00  0.00    +0.000 HD
ENDBRANCH  21  22
ENDBRANCH  20  21
ENDBRANCH  15  20
ENDBRANCH   1  15
TORSDOF 7
ENDMDL
MODEL 2
REMARK VINA RESULT:      -5.7      3.285      6.200
REMARK  Name = 
REMARK  10 active torsions:
REMARK  status: ('A' for Active; 'I' for Inactive)
REMARK    1  A    between atoms: C_1  and  O_2
REMARK    2  A    between atoms: O_2  and  C_3
REMARK    3  A    between atoms: C_3  and  C_4
REMARK    4  A    between atoms: C_4  and  C_5
REMARK    5  A    between atoms: C_4  and  C_6
REMARK    6  A    between atoms: C_4  and  N_9
REMARK    7  A    between atoms: C_6  and  C_7
REMARK    8  A    between atoms: C_7  and  O_8
REMARK    9  A    between atoms: N_12  and  C_13
REMARK   10  A    between atoms: C_19  and  C_20
REMARK                            x       y       z     vdW  Elec       q    Type
REMARK                         _______ _______ _______ _____ _____    ______ ____
ROOT
ATOM      1  N   UNL     1       3.534   5.120  17.423  0.00  0.00    +0.000 N 
ATOM      2  C   UNL     1       2.498   5.724  18.084  0.00  0.00    +0.000 C 
ATOM      3  O   UNL     1       1.371   5.255  17.993  0.00  0.00    +0.000 OA
ATOM      4  N   UNL     1       2.830   6.866  18.755  0.00  0.00    +0.000 N 
ATOM      5  H   UNL     1       3.219   4.247  17.008  0.00  0.00    +0.000 HD
ATOM      6  H   UNL     1       3.619   7.339  18.370  0.00  0.00    +0.000 HD
ENDROOT
BRANCH   4   7
ATOM      7  C   UNL     1       1.967   7.669  19.516  0.00  0.00    +0.000 A 
ATOM      8  C   UNL     1       1.573   7.262  20.795  0.00  0.00    +0.000 A 
ATOM      9  C   UNL     1       0.830   8.123  21.602  0.00  0.00    +0.000 A 
ATOM     10  C   UNL     1       0.467   9.381  21.121  0.00  0.00    +0.000 A 
ATOM     11  C   UNL     1       0.833   9.783  19.835  0.00  0.00    +0.000 A 
ATOM     12 BR   UNL     1       0.277  11.515  19.288  0.00  0.00    +0.000 Br
ATOM     13  C   UNL     1       1.586   8.931  19.002  0.00  0.00    +0.000 A 
ATOM     14  C   UNL     1       1.977   9.316  17.598  0.00  0.00    +0.000 C 
ENDBRANCH   4   7
BRANCH   1  15
ATOM     15  C   UNL     1       5.010   5.249  17.574  0.00  0.00    +0.000 C 
ATOM     16  C   UNL     1       5.428   6.697  17.243  0.00  0.00    +0.000 C 
BRANCH  15  17
ATOM     17  C   UNL     1       5.390   4.957  19.061  0.00  0.00    +0.000 C 
BRANCH  17  19
ATOM     18  C   UNL     1       4.449   2.933  19.807  0.00  0.00    +0.000 C 
ATOM     19  O   UNL     1       5.605   3.558  19.261  0.00  0.00    +0.000 OA
ENDBRANCH  17  19
ENDBRANCH  15  17
BRANCH  15  20
ATOM     20  C   UNL     1       5.802   4.244  16.690  0.00  0.00    +0.000 C 
BRANCH  20  21
ATOM     21  C   UNL     1       7.225   4.683  16.359  0.00  0.00    +0.000 C 
BRANCH  21  22
ATOM     22  O   UNL     1       8.122   4.091  17.292  0.00  0.00    +0.000 OA
ATOM     23  H   UNL     1       8.483   3.285  16.881  0.00  0.00    +0.000 HD
ENDBRANCH  21  22
ENDBRANCH  20  21
ENDBRANCH  15  20
ENDBRANCH   1  15
TORSDOF 7
ENDMDL
MODEL 3
REMARK VINA RESULT:      -5.7      3.132      5.130
REMARK  Name = 
REMARK  10 active torsions:
REMARK  status: ('A' for Active; 'I' for Inactive)
REMARK    1  A    between atoms: C_1  and  O_2
REMARK    2  A    between atoms: O_2  and  C_3
REMARK    3  A    between atoms: C_3  and  C_4
REMARK    4  A    between atoms: C_4  and  C_5
REMARK    5  A    between atoms: C_4  and  C_6
REMARK    6  A    between atoms: C_4  and  N_9
REMARK    7  A    between atoms: C_6  and  C_7
REMARK    8  A    between atoms: C_7  and  O_8
REMARK    9  A    between atoms: N_12  and  C_13
REMARK   10  A    between atoms: C_19  and  C_20
REMARK                            x       y       z     vdW  Elec       q    Type
REMARK                         _______ _______ _______ _____ _____    ______ ____
ROOT
ATOM      1  N   UNL     1       2.644   3.394  17.887  0.00  0.00    +0.000 N 
ATOM      2  C   UNL     1       2.066   4.635  17.893  0.00  0.00    +0.000 C 
ATOM      3  O   UNL     1       1.013   4.812  17.294  0.00  0.00    +0.000 OA
ATOM      4  N   UNL     1       2.781   5.602  18.541  0.00  0.00    +0.000 N 
ATOM      5  H   UNL     1       2.021   2.723  17.447  0.00  0.00    +0.000 HD
ATOM      6  H   UNL     1       3.763   5.425  18.560  0.00  0.00    +0.000 HD
ENDROOT
BRANCH   4   7
ATOM      7  C   UNL     1       2.414   6.946  18.702  0.00  0.00    +0.000 A 
ATOM      8  C   UNL     1       2.595   7.856  17.655  0.00  0.00    +0.000 A 
ATOM      9  C   UNL     1       2.103   9.156  17.768  0.00  0.00    +0.000 A 
ATOM     10  C   UNL     1       1.448   9.548  18.935  0.00  0.00    +0.000 A 
ATOM     11  C   UNL     1       1.287   8.654  19.996  0.00  0.00    +0.000 A 
ATOM     12 BR   UNL     1       0.385   9.304  21.535  0.00  0.00    +0.000 Br
ATOM     13  C   UNL     1       1.775   7.335  19.904  0.00  0.00    +0.000 A 
ATOM     14  C   UNL     1       1.647   6.348  21.037  0.00  0.00    +0.000 C 
ENDBRANCH   4   7
BRANCH   1  15
ATOM     15  C   UNL     1       3.710   2.799  18.740  0.00  0.00    +0.000 C 
ATOM     16  C   UNL     1       3.809   1.287  18.445  0.00  0.00    +0.000 C 
BRANCH  15  17
ATOM     17  C   UNL     1       5.077   3.460  18.371  0.00  0.00    +0.000 C 
BRANCH  17  19
ATOM     18  C   UNL     1       6.432   5.303  18.925  0.00  0.00    +0.000 C 
ATOM     19  O   UNL     1       5.513   4.333  19.416  0.00  0.00    +0.000 OA
ENDBRANCH  17  19
ENDBRANCH  15  17
BRANCH  15  20
ATOM     20  C   UNL     1       3.479   3.038  20.258  0.00  0.00    +0.000 C 
BRANCH  20  21
ATOM     21  C   UNL     1       2.179   2.448  20.797  0.00  0.00    +0.000 C 
BRANCH  21  22
ATOM     22  O   UNL     1       1.956   2.942  22.113  0.00  0.00    +0.000 OA
ATOM     23  H   UNL     1       2.062   2.196  22.729  0.00  0.00    +0.000 HD
ENDBRANCH  21  22
ENDBRANCH  20  21
ENDBRANCH  15  20
ENDBRANCH   1  15
TORSDOF 7
ENDMDL
MODEL 4
REMARK VINA RESULT:      -5.6      3.317      5.988
REMARK  Name = 
REMARK  10 active torsions:
REMARK  status: ('A' for Active; 'I' for Inactive)
REMARK    1  A    between atoms: C_1  and  O_2
REMARK    2  A    between atoms: O_2  and  C_3
REMARK    3  A    between atoms: C_3  and  C_4
REMARK    4  A    between atoms: C_4  and  C_5
REMARK    5  A    between atoms: C_4  and  C_6
REMARK    6  A    between atoms: C_4  and  N_9
REMARK    7  A    between atoms: C_6  and  C_7
REMARK    8  A    between atoms: C_7  and  O_8
REMARK    9  A    between atoms: N_12  and  C_13
REMARK   10  A    between atoms: C_19  and  C_20
REMARK                            x       y       z     vdW  Elec       q    Type
REMARK                         _______ _______ _______ _____ _____    ______ ____
ROOT
ATOM      1  N   UNL     1       4.800   4.065  16.081  0.00  0.00    +0.000 N 
ATOM      2  C   UNL     1       3.883   4.140  17.095  0.00  0.00    +0.000 C 
ATOM      3  O   UNL     1       3.188   3.166  17.352  0.00  0.00    +0.000 OA
ATOM      4  N   UNL     1       3.793   5.361  17.701  0.00  0.00    +0.000 N 
ATOM      5  H   UNL     1       4.853   3.112  15.731  0.00  0.00    +0.000 HD
ATOM      6  H   UNL     1       4.060   6.119  17.111  0.00  0.00    +0.000 HD
ENDROOT
BRANCH   4   7
ATOM      7  C   UNL     1       2.948   5.704  18.767  0.00  0.00    +0.000 A 
ATOM      8  C   UNL     1       2.632   4.757  19.747  0.00  0.00    +0.000 A 
ATOM      9  C   UNL     1       1.906   5.138  20.876  0.00  0.00    +0.000 A 
ATOM     10  C   UNL     1       1.483   6.460  21.012  0.00  0.00    +0.000 A 
ATOM     11  C   UNL     1       1.771   7.405  20.024  0.00  0.00    +0.000 A 
ATOM     12 BR   UNL     1       1.137   9.171  20.317  0.00  0.00    +0.000 Br
ATOM     13  C   UNL     1       2.503   7.043  18.876  0.00  0.00    +0.000 A 
ATOM     14  C   UNL     1       2.811   8.025  17.774  0.00  0.00    +0.000 C 
ENDBRANCH   4   7
BRANCH   1  15
ATOM     15  C   UNL     1       5.965   4.927  15.737  0.00  0.00    +0.000 C 
ATOM     16  C   UNL     1       5.482   6.381  15.554  0.00  0.00    +0.000 C 
BRANCH  15  17
ATOM     17  C   UNL     1       6.981   4.894  16.923  0.00  0.00    +0.000 C 
BRANCH  17  19
ATOM     18  C   UNL     1       7.700   5.993  18.876  0.00  0.00    +0.000 C 
ATOM     19  O   UNL     1       6.748   5.985  17.818  0.00  0.00    +0.000 OA
ENDBRANCH  17  19
ENDBRANCH  15  17
BRANCH  15  20
ATOM     20  C   UNL     1       6.723   4.447  14.467  0.00  0.00    +0.000 C 
BRANCH  20  21
ATOM     21  C   UNL     1       5.840   3.762  13.429  0.00  0.00    +0.000 C 
BRANCH  21  22
ATOM     22  O   UNL     1       6.663   3.241  12.392  0.00  0.00    +0.000 OA
ATOM     23  H   UNL     1       6.879   3.977  11.791  0.00  0.00    +0.000 HD
ENDBRANCH  21  22
ENDBRANCH  20  21
ENDBRANCH  15  20
ENDBRANCH   1  15
TORSDOF 7
ENDMDL
MODEL 5
REMARK VINA RESULT:      -5.6      3.421      6.160
REMARK  Name = 
REMARK  10 active torsions:
REMARK  status: ('A' for Active; 'I' for Inactive)
REMARK    1  A    between atoms: C_1  and  O_2
REMARK    2  A    between atoms: O_2  and  C_3
REMARK    3  A    between atoms: C_3  and  C_4
REMARK    4  A    between atoms: C_4  and  C_5
REMARK    5  A    between atoms: C_4  and  C_6
REMARK    6  A    between atoms: C_4  and  N_9
REMARK    7  A    between atoms: C_6  and  C_7
REMARK    8  A    between atoms: C_7  and  O_8
REMARK    9  A    between atoms: N_12  and  C_13
REMARK   10  A    between atoms: C_19  and  C_20
REMARK                            x       y       z     vdW  Elec       q    Type
REMARK                         _______ _______ _______ _____ _____    ______ ____
ROOT
ATOM      1  N   UNL     1       5.204   3.760  16.423  0.00  0.00    +0.000 N 
ATOM      2  C   UNL     1       4.313   3.845  17.460  0.00  0.00    +0.000 C 
ATOM      3  O   UNL     1       3.882   2.819  17.969  0.00  0.00    +0.000 OA
ATOM      4  N   UNL     1       3.936   5.115  17.793  0.00  0.00    +0.000 N 
ATOM      5  H   UNL     1       5.483   2.792  16.284  0.00  0.00    +0.000 HD
ATOM      6  H   UNL     1       3.999   5.761  17.035  0.00  0.00    +0.000 HD
ENDROOT
BRANCH   4   7
ATOM      7  C   UNL     1       3.049   5.481  18.816  0.00  0.00    +0.000 A 
ATOM      8  C   UNL     1       2.680   4.551  19.794  0.00  0.00    +0.000 A 
ATOM      9  C   UNL     1       1.911   4.955  20.885  0.00  0.00    +0.000 A 
ATOM     10  C   UNL     1       1.497   6.284  20.985  0.00  0.00    +0.000 A 
ATOM     11  C   UNL     1       1.838   7.212  19.999  0.00  0.00    +0.000 A 
ATOM     12 BR   UNL     1       1.213   8.988  20.241  0.00  0.00    +0.000 Br
ATOM     13  C   UNL     1       2.616   6.827  18.888  0.00  0.00    +0.000 A 
ATOM     14  C   UNL     1       2.982   7.791  17.788  0.00  0.00    +0.000 C 
ENDBRANCH   4   7
BRANCH   1  15
ATOM     15  C   UNL     1       6.116   4.772  15.821  0.00  0.00    +0.000 C 
ATOM     16  C   UNL     1       5.275   5.903  15.194  0.00  0.00    +0.000 C 
BRANCH  15  17
ATOM     17  C   UNL     1       7.001   5.387  16.951  0.00  0.00    +0.000 C 
BRANCH  17  19
ATOM     18  C   UNL     1       7.624   7.546  17.655  0.00  0.00    +0.000 C 
ATOM     19  O   UNL     1       7.523   6.656  16.548  0.00  0.00    +0.000 OA
ENDBRANCH  17  19
ENDBRANCH  15  17
BRANCH  15  20
ATOM     20  C   UNL     1       7.080   4.166  14.761  0.00  0.00    +0.000 C 
BRANCH  20  21
ATOM     21  C   UNL     1       7.249   5.017  13.506  0.00  0.00    +0.000 C 
BRANCH  21  22
ATOM     22  O   UNL     1       8.425   5.808  13.638  0.00  0.00    +0.000 OA
ATOM     23  H   UNL     1       8.594   5.926  14.590  0.00  0.00    +0.000 HD
ENDBRANCH  21  22
ENDBRANCH  20  21
ENDBRANCH  15  20
ENDBRANCH   1  15
TORSDOF 7
ENDMDL
MODEL 6
REMARK VINA RESULT:      -5.6      3.416      6.439
REMARK  Name = 
REMARK  10 active torsions:
REMARK  status: ('A' for Active; 'I' for Inactive)
REMARK    1  A    between atoms: C_1  and  O_2
REMARK    2  A    between atoms: O_2  and  C_3
REMARK    3  A    between atoms: C_3  and  C_4
REMARK    4  A    between atoms: C_4  and  C_5
REMARK    5  A    between atoms: C_4  and  C_6
REMARK    6  A    between atoms: C_4  and  N_9
REMARK    7  A    between atoms: C_6  and  C_7
REMARK    8  A    between atoms: C_7  and  O_8
REMARK    9  A    between atoms: N_12  and  C_13
REMARK   10  A    between atoms: C_19  and  C_20
REMARK                            x       y       z     vdW  Elec       q    Type
REMARK                         _______ _______ _______ _____ _____    ______ ____
ROOT
ATOM      1  N   UNL     1       4.958   4.125  16.147  0.00  0.00    +0.000 N 
ATOM      2  C   UNL     1       3.958   4.184  17.080  0.00  0.00    +0.000 C 
ATOM      3  O   UNL     1       3.142   3.273  17.147  0.00  0.00    +0.000 OA
ATOM      4  N   UNL     1       3.937   5.325  17.831  0.00  0.00    +0.000 N 
ATOM      5  H   UNL     1       4.945   3.222  15.680  0.00  0.00    +0.000 HD
ATOM      6  H   UNL     1       4.339   6.112  17.370  0.00  0.00    +0.000 HD
ENDROOT
BRANCH   4   7
ATOM      7  C   UNL     1       3.030   5.633  18.856  0.00  0.00    +0.000 A 
ATOM      8  C   UNL     1       2.690   4.666  19.809  0.00  0.00    +0.000 A 
ATOM      9  C   UNL     1       1.899   5.015  20.904  0.00  0.00    +0.000 A 
ATOM     10  C   UNL     1       1.435   6.324  21.033  0.00  0.00    +0.000 A 
ATOM     11  C   UNL     1       1.748   7.288  20.072  0.00  0.00    +0.000 A 
ATOM     12 BR   UNL     1       1.055   9.033  20.352  0.00  0.00    +0.000 Br
ATOM     13  C   UNL     1       2.547   6.959  18.958  0.00  0.00    +0.000 A 
ATOM     14  C   UNL     1       2.883   7.962  17.884  0.00  0.00    +0.000 C 
ENDBRANCH   4   7
BRANCH   1  15
ATOM     15  C   UNL     1       6.235   4.881  16.020  0.00  0.00    +0.000 C 
ATOM     16  C   UNL     1       7.214   4.408  17.114  0.00  0.00    +0.000 C 
BRANCH  15  17
ATOM     17  C   UNL     1       6.869   4.568  14.627  0.00  0.00    +0.000 C 
BRANCH  17  19
ATOM     18  C   UNL     1       6.461   3.649  12.499  0.00  0.00    +0.000 C 
ATOM     19  O   UNL     1       5.970   3.796  13.826  0.00  0.00    +0.000 OA
ENDBRANCH  17  19
ENDBRANCH  15  17
BRANCH  15  20
ATOM     20  C   UNL     1       6.040   6.422  16.101  0.00  0.00    +0.000 C 
BRANCH  20  21
ATOM     21  C   UNL     1       6.661   7.071  17.333  0.00  0.00    +0.000 C 
BRANCH  21  22
ATOM     22  O   UNL     1       7.771   7.865  16.929  0.00  0.00    +0.000 OA
ATOM     23  H   UNL     1       7.464   8.460  16.222  0.00  0.00    +0.000 HD
ENDBRANCH  21  22
ENDBRANCH  20  21
ENDBRANCH  15  20
ENDBRANCH   1  15
TORSDOF 7
ENDMDL
MODEL 7
REMARK VINA RESULT:      -5.6      3.542      6.278
REMARK  Name = 
REMARK  10 active torsions:
REMARK  status: ('A' for Active; 'I' for Inactive)
REMARK    1  A    between atoms: C_1  and  O_2
REMARK    2  A    between atoms: O_2  and  C_3
REMARK    3  A    between atoms: C_3  and  C_4
REMARK    4  A    between atoms: C_4  and  C_5
REMARK    5  A    between atoms: C_4  and  C_6
REMARK    6  A    between atoms: C_4  and  N_9
REMARK    7  A    between atoms: C_6  and  C_7
REMARK    8  A    between atoms: C_7  and  O_8
REMARK    9  A    between atoms: N_12  and  C_13
REMARK   10  A    between atoms: C_19  and  C_20
REMARK                            x       y       z     vdW  Elec       q    Type
REMARK                         _______ _______ _______ _____ _____    ______ ____
ROOT
ATOM      1  N   UNL     1       5.792   6.108  15.257  0.00  0.00    +0.000 N 
ATOM      2  C   UNL     1       4.840   6.277  16.226  0.00  0.00    +0.000 C 
ATOM      3  O   UNL     1       4.295   7.366  16.353  0.00  0.00    +0.000 OA
ATOM      4  N   UNL     1       4.630   5.188  17.024  0.00  0.00    +0.000 N 
ATOM      5  H   UNL     1       5.838   6.936  14.668  0.00  0.00    +0.000 HD
ATOM      6  H   UNL     1       5.424   4.589  17.096  0.00  0.00    +0.000 HD
ENDROOT
BRANCH   4   7
ATOM      7  C   UNL     1       3.712   5.091  18.079  0.00  0.00    +0.000 A 
ATOM      8  C   UNL     1       3.573   6.142  18.992  0.00  0.00    +0.000 A 
ATOM      9  C   UNL     1       2.565   6.102  19.954  0.00  0.00    +0.000 A 
ATOM     10  C   UNL     1       1.709   5.002  20.014  0.00  0.00    +0.000 A 
ATOM     11  C   UNL     1       1.859   3.935  19.125  0.00  0.00    +0.000 A 
ATOM     12 BR   UNL     1       0.640   2.490  19.307  0.00  0.00    +0.000 Br
ATOM     13  C   UNL     1       2.870   3.954  18.143  0.00  0.00    +0.000 A 
ATOM     14  C   UNL     1       3.082   2.812  17.182  0.00  0.00    +0.000 C 
ENDBRANCH   4   7
BRANCH   1  15
ATOM     15  C   UNL     1       6.389   4.880  14.663  0.00  0.00    +0.000 C 
ATOM     16  C   UNL     1       7.603   5.274  13.797  0.00  0.00    +0.000 C 
BRANCH  15  17
ATOM     17  C   UNL     1       6.891   3.957  15.819  0.00  0.00    +0.000 C 
BRANCH  17  19
ATOM     18  C   UNL     1       7.716   4.580  17.934  0.00  0.00    +0.000 C 
ATOM     19  O   UNL     1       7.963   4.579  16.532  0.00  0.00    +0.000 OA
ENDBRANCH  17  19
ENDBRANCH  15  17
BRANCH  15  20
ATOM     20  C   UNL     1       5.373   4.054  13.824  0.00  0.00    +0.000 C 
BRANCH  20  21
ATOM     21  C   UNL     1       5.955   3.446  12.552  0.00  0.00    +0.000 C 
BRANCH  21  22
ATOM     22  O   UNL     1       4.888   3.044  11.700  0.00  0.00    +0.000 OA
ATOM     23  H   UNL     1       5.195   3.139  10.781  0.00  0.00    +0.000 HD
ENDBRANCH  21  22
ENDBRANCH  20  21
ENDBRANCH  15  20
ENDBRANCH   1  15
TORSDOF 7
ENDMDL
MODEL 8
REMARK VINA RESULT:      -5.6      3.455      6.412
REMARK  Name = 
REMARK  10 active torsions:
REMARK  status: ('A' for Active; 'I' for Inactive)
REMARK    1  A    between atoms: C_1  and  O_2
REMARK    2  A    between atoms: O_2  and  C_3
REMARK    3  A    between atoms: C_3  and  C_4
REMARK    4  A    between atoms: C_4  and  C_5
REMARK    5  A    between atoms: C_4  and  C_6
REMARK    6  A    between atoms: C_4  and  N_9
REMARK    7  A    between atoms: C_6  and  C_7
REMARK    8  A    between atoms: C_7  and  O_8
REMARK    9  A    between atoms: N_12  and  C_13
REMARK   10  A    between atoms: C_19  and  C_20
REMARK                            x       y       z     vdW  Elec       q    Type
REMARK                         _______ _______ _______ _____ _____    ______ ____
ROOT
ATOM      1  N   UNL     1       3.589   4.727  17.594  0.00  0.00    +0.000 N 
ATOM      2  C   UNL     1       2.613   5.350  18.324  0.00  0.00    +0.000 C 
ATOM      3  O   UNL     1       1.562   4.764  18.549  0.00  0.00    +0.000 OA
ATOM      4  N   UNL     1       2.898   6.636  18.689  0.00  0.00    +0.000 N 
ATOM      5  H   UNL     1       3.329   3.760  17.421  0.00  0.00    +0.000 HD
ATOM      6  H   UNL     1       3.534   7.093  18.072  0.00  0.00    +0.000 HD
ENDROOT
BRANCH   4   7
ATOM      7  C   UNL     1       2.080   7.490  19.444  0.00  0.00    +0.000 A 
ATOM      8  C   UNL     1       1.712   7.141  20.748  0.00  0.00    +0.000 A 
ATOM      9  C   UNL     1       1.017   8.053  21.543  0.00  0.00    +0.000 A 
ATOM     10  C   UNL     1       0.676   9.302  21.026  0.00  0.00    +0.000 A 
ATOM     11  C   UNL     1       1.016   9.647  19.716  0.00  0.00    +0.000 A 
ATOM     12 BR   UNL     1       0.493  11.373  19.121  0.00  0.00    +0.000 Br
ATOM     13  C   UNL     1       1.720   8.743  18.894  0.00  0.00    +0.000 A 
ATOM     14  C   UNL     1       2.081   9.066  17.467  0.00  0.00    +0.000 C 
ENDBRANCH   4   7
BRANCH   1  15
ATOM     15  C   UNL     1       5.037   5.032  17.420  0.00  0.00    +0.000 C 
ATOM     16  C   UNL     1       5.743   4.935  18.788  0.00  0.00    +0.000 C 
BRANCH  15  17
ATOM     17  C   UNL     1       5.664   3.963  16.469  0.00  0.00    +0.000 C 
BRANCH  17  19
ATOM     18  C   UNL     1       6.081   3.943  14.152  0.00  0.00    +0.000 C 
ATOM     19  O   UNL     1       6.356   4.594  15.388  0.00  0.00    +0.000 OA
ENDBRANCH  17  19
ENDBRANCH  15  17
BRANCH  15  20
ATOM     20  C   UNL     1       5.292   6.425  16.779  0.00  0.00    +0.000 C 
BRANCH  20  21
ATOM     21  C   UNL     1       6.488   7.175  17.358  0.00  0.00    +0.000 C 
BRANCH  21  22
ATOM     22  O   UNL     1       7.628   6.929  16.543  0.00  0.00    +0.000 OA
ATOM     23  H   UNL     1       8.418   7.153  17.067  0.00  0.00    +0.000 HD
ENDBRANCH  21  22
ENDBRANCH  20  21
ENDBRANCH  15  20
ENDBRANCH   1  15
TORSDOF 7
ENDMDL
MODEL 9
REMARK VINA RESULT:      -5.6      3.214      5.937
REMARK  Name = 
REMARK  10 active torsions:
REMARK  status: ('A' for Active; 'I' for Inactive)
REMARK    1  A    between atoms: C_1  and  O_2
REMARK    2  A    between atoms: O_2  and  C_3
REMARK    3  A    between atoms: C_3  and  C_4
REMARK    4  A    between atoms: C_4  and  C_5
REMARK    5  A    between atoms: C_4  and  C_6
REMARK    6  A    between atoms: C_4  and  N_9
REMARK    7  A    between atoms: C_6  and  C_7
REMARK    8  A    between atoms: C_7  and  O_8
REMARK    9  A    between atoms: N_12  and  C_13
REMARK   10  A    between atoms: C_19  and  C_20
REMARK                            x       y       z     vdW  Elec       q    Type
REMARK                         _______ _______ _______ _____ _____    ______ ____
ROOT
ATOM      1  N   UNL     1       3.008   4.890  19.126  0.00  0.00    +0.000 N 
ATOM      2  C   UNL     1       2.210   5.750  19.833  0.00  0.00    +0.000 C 
ATOM      3  O   UNL     1       1.394   5.299  20.626  0.00  0.00    +0.000 OA
ATOM      4  N   UNL     1       2.371   7.071  19.525  0.00  0.00    +0.000 N 
ATOM      5  H   UNL     1       2.876   3.940  19.460  0.00  0.00    +0.000 HD
ATOM      6  H   UNL     1       2.702   7.226  18.597  0.00  0.00    +0.000 HD
ENDROOT
BRANCH   4   7
ATOM      7  C   UNL     1       1.691   8.152  20.104  0.00  0.00    +0.000 A 
ATOM      8  C   UNL     1       1.474   8.189  21.486  0.00  0.00    +0.000 A 
ATOM      9  C   UNL     1       0.922   9.326  22.075  0.00  0.00    +0.000 A 
ATOM     10  C   UNL     1       0.572  10.417  21.279  0.00  0.00    +0.000 A 
ATOM     11  C   UNL     1       0.760  10.377  19.895  0.00  0.00    +0.000 A 
ATOM     12 BR   UNL     1       0.240  11.918  18.915  0.00  0.00    +0.000 Br
ATOM     13  C   UNL     1       1.317   9.239  19.278  0.00  0.00    +0.000 A 
ATOM     14  C   UNL     1       1.511   9.146  17.786  0.00  0.00    +0.000 C 
ENDBRANCH   4   7
BRANCH   1  15
ATOM     15  C   UNL     1       4.260   5.118  18.352  0.00  0.00    +0.000 C 
ATOM     16  C   UNL     1       4.093   6.377  17.476  0.00  0.00    +0.000 C 
BRANCH  15  17
ATOM     17  C   UNL     1       5.432   5.369  19.354  0.00  0.00    +0.000 C 
BRANCH  17  19
ATOM     18  C   UNL     1       7.723   5.659  18.900  0.00  0.00    +0.000 C 
ATOM     19  O   UNL     1       6.633   4.745  18.893  0.00  0.00    +0.000 OA
ENDBRANCH  17  19
ENDBRANCH  15  17
BRANCH  15  20
ATOM     20  C   UNL     1       4.660   3.899  17.472  0.00  0.00    +0.000 C 
BRANCH  20  21
ATOM     21  C   UNL     1       3.817   2.650  17.707  0.00  0.00    +0.000 C 
BRANCH  21  22
ATOM     22  O   UNL     1       4.276   1.997  18.886  0.00  0.00    +0.000 OA
ATOM     23  H   UNL     1       5.240   1.886  18.804  0.00  0.00    +0.000 HD
ENDBRANCH  21  22
ENDBRANCH  20  21
ENDBRANCH  15  20
ENDBRANCH   1  15
TORSDOF 7
ENDMDL
