MODEL 1
REMARK VINA RESULT:      -8.0      0.000      0.000
REMARK  Name = 
REMARK  11 active torsions:
REMARK  status: ('A' for Active; 'I' for Inactive)
REMARK    1  A    between atoms: C_1  and  O_2
REMARK    2  A    between atoms: O_2  and  C_3
REMARK    3  A    between atoms: C_5  and  N_6
REMARK    4  A    between atoms: C_10  and  C_11
REMARK    5  A    between atoms: N_12  and  N_13
REMARK    6  A    between atoms: C_14  and  C_16
REMARK    7  A    between atoms: C_16  and  C_17
REMARK    8  A    between atoms: C_16  and  N_18
REMARK    9  A    between atoms: N_18  and  C_19
REMARK   10  A    between atoms: C_23  and  C_24
REMARK   11  A    between atoms: C_26  and  O_27
REMARK                            x       y       z     vdW  Elec       q    Type
REMARK                         _______ _______ _______ _____ _____    ______ ____
ROOT
ATOM      1  C   UNL     1       1.928   8.144  19.316  0.00  0.00    +0.000 C 
ATOM      2  N   UNL     1       2.185   7.147  20.098  0.00  0.00    +0.000 NA
ENDROOT
BRANCH   1   7
ATOM      3  C   UNL     1      -0.498  11.081  19.366  0.00  0.00    +0.000 A 
ATOM      4  C   UNL     1      -0.752  11.163  20.739  0.00  0.00    +0.000 A 
ATOM      5  C   UNL     1      -0.133  10.276  21.630  0.00  0.00    +0.000 A 
ATOM      6  C   UNL     1       0.750   9.291  21.165  0.00  0.00    +0.000 A 
ATOM      7  C   UNL     1       1.001   9.202  19.792  0.00  0.00    +0.000 A 
ATOM      8  C   UNL     1       0.380  10.095  18.890  0.00  0.00    +0.000 A 
BRANCH   5   9
ATOM      9  N   UNL     1      -0.415  10.385  23.067  0.00  0.00    +0.000 N 
ATOM     10  O   UNL     1      -1.332  11.137  23.424  0.00  0.00    +0.000 OA
ATOM     11  O   UNL     1       0.280   9.704  23.835  0.00  0.00    +0.000 OA
ENDBRANCH   5   9
BRANCH   3  13
ATOM     12  C   UNL     1      -2.475  11.697  18.153  0.00  0.00    +0.000 C 
ATOM     13  O   UNL     1      -1.182  12.025  18.647  0.00  0.00    +0.000 OA
ENDBRANCH   3  13
BRANCH   8  14
ATOM     14  O   UNL     1       0.624  10.013  17.543  0.00  0.00    +0.000 OA
ATOM     15  H   UNL     1       0.098   9.282  17.145  0.00  0.00    +0.000 HD
ENDBRANCH   8  14
ENDBRANCH   1   7
BRANCH   2  16
ATOM     16  N   UNL     1       3.033   6.181  19.667  0.00  0.00    +0.000 N 
ATOM     17  C   UNL     1       2.924   4.914  20.233  0.00  0.00    +0.000 C 
ATOM     18  O   UNL     1       2.181   4.668  21.187  0.00  0.00    +0.000 OA
ATOM     19  H   UNL     1       3.733   6.397  18.966  0.00  0.00    +0.000 HD
BRANCH  17  20
ATOM     20  C   UNL     1       3.863   3.824  19.654  0.00  0.00    +0.000 C 
ATOM     21  C   UNL     1       3.513   2.445  20.215  0.00  0.00    +0.000 C 
BRANCH  20  22
ATOM     22  N   UNL     1       3.793   3.855  18.174  0.00  0.00    +0.000 N 
ATOM     23  H   UNL     1       3.030   4.467  17.872  0.00  0.00    +0.000 HD
BRANCH  22  24
ATOM     24  C   UNL     1       4.945   4.192  17.434  0.00  0.00    +0.000 A 
ATOM     25  C   UNL     1       6.146   4.610  18.011  0.00  0.00    +0.000 A 
ATOM     26  C   UNL     1       7.290   4.845  17.241  0.00  0.00    +0.000 A 
ATOM     27  C   UNL     1       7.261   4.647  15.866  0.00  0.00    +0.000 A 
ATOM     28  C   UNL     1       6.092   4.196  15.253  0.00  0.00    +0.000 A 
ATOM     29  C   UNL     1       6.055   3.961  13.772  0.00  0.00    +0.000 C 
ATOM     30  C   UNL     1       4.951   3.959  16.046  0.00  0.00    +0.000 A 
ENDBRANCH  22  24
ENDBRANCH  20  22
ENDBRANCH  17  20
ENDBRANCH   2  16
TORSDOF 8
ENDMDL
MODEL 2
REMARK VINA RESULT:      -8.0      2.908      9.016
REMARK  Name = 
REMARK  11 active torsions:
REMARK  status: ('A' for Active; 'I' for Inactive)
REMARK    1  A    between atoms: C_1  and  O_2
REMARK    2  A    between atoms: O_2  and  C_3
REMARK    3  A    between atoms: C_5  and  N_6
REMARK    4  A    between atoms: C_10  and  C_11
REMARK    5  A    between atoms: N_12  and  N_13
REMARK    6  A    between atoms: C_14  and  C_16
REMARK    7  A    between atoms: C_16  and  C_17
REMARK    8  A    between atoms: C_16  and  N_18
REMARK    9  A    between atoms: N_18  and  C_19
REMARK   10  A    between atoms: C_23  and  C_24
REMARK   11  A    between atoms: C_26  and  O_27
REMARK                            x       y       z     vdW  Elec       q    Type
REMARK                         _______ _______ _______ _____ _____    ______ ____
ROOT
ATOM      1  C   UNL     1       2.826   7.481  18.032  0.00  0.00    +0.000 C 
ATOM      2  N   UNL     1       2.259   7.859  19.131  0.00  0.00    +0.000 NA
ENDROOT
BRANCH   1   7
ATOM      3  C   UNL     1       4.269   4.019  18.700  0.00  0.00    +0.000 A 
ATOM      4  C   UNL     1       5.524   4.159  18.096  0.00  0.00    +0.000 A 
ATOM      5  C   UNL     1       5.890   5.368  17.490  0.00  0.00    +0.000 A 
ATOM      6  C   UNL     1       5.008   6.458  17.474  0.00  0.00    +0.000 A 
ATOM      7  C   UNL     1       3.751   6.320  18.070  0.00  0.00    +0.000 A 
ATOM      8  C   UNL     1       3.378   5.103  18.684  0.00  0.00    +0.000 A 
BRANCH   5   9
ATOM      9  N   UNL     1       7.213   5.489  16.866  0.00  0.00    +0.000 N 
ATOM     10  O   UNL     1       7.546   6.594  16.417  0.00  0.00    +0.000 OA
ATOM     11  O   UNL     1       7.923   4.473  16.837  0.00  0.00    +0.000 OA
ENDBRANCH   5   9
BRANCH   3  13
ATOM     12  C   UNL     1       3.450   1.777  18.456  0.00  0.00    +0.000 C 
ATOM     13  O   UNL     1       4.082   2.776  19.245  0.00  0.00    +0.000 OA
ENDBRANCH   3  13
BRANCH   8  14
ATOM     14  O   UNL     1       2.148   4.963  19.271  0.00  0.00    +0.000 OA
ATOM     15  H   UNL     1       1.609   5.776  19.133  0.00  0.00    +0.000 HD
ENDBRANCH   8  14
ENDBRANCH   1   7
BRANCH   2  16
ATOM     16  N   UNL     1       1.412   8.917  19.098  0.00  0.00    +0.000 N 
ATOM     17  C   UNL     1       0.789   9.294  20.284  0.00  0.00    +0.000 C 
ATOM     18  O   UNL     1       0.877   8.637  21.325  0.00  0.00    +0.000 OA
ATOM     19  H   UNL     1       1.234   9.396  18.222  0.00  0.00    +0.000 HD
BRANCH  17  20
ATOM     20  C   UNL     1      -0.110  10.555  20.213  0.00  0.00    +0.000 C 
ATOM     21  C   UNL     1       0.474  11.693  21.052  0.00  0.00    +0.000 C 
BRANCH  20  22
ATOM     22  N   UNL     1      -0.290  10.948  18.795  0.00  0.00    +0.000 N 
ATOM     23  H   UNL     1       0.310  10.376  18.194  0.00  0.00    +0.000 HD
BRANCH  22  24
ATOM     24  C   UNL     1      -1.586  10.958  18.239  0.00  0.00    +0.000 A 
ATOM     25  C   UNL     1      -2.678  11.603  18.824  0.00  0.00    +0.000 A 
ATOM     26  C   UNL     1      -3.923  11.663  18.188  0.00  0.00    +0.000 A 
ATOM     27  C   UNL     1      -4.097  11.089  16.935  0.00  0.00    +0.000 A 
ATOM     28  C   UNL     1      -3.024  10.465  16.300  0.00  0.00    +0.000 A 
ATOM     29  C   UNL     1      -3.197   9.860  14.938  0.00  0.00    +0.000 C 
ATOM     30  C   UNL     1      -1.775  10.420  16.952  0.00  0.00    +0.000 A 
ENDBRANCH  22  24
ENDBRANCH  20  22
ENDBRANCH  17  20
ENDBRANCH   2  16
TORSDOF 8
ENDMDL
MODEL 3
REMARK VINA RESULT:      -8.0      1.810      3.662
REMARK  Name = 
REMARK  11 active torsions:
REMARK  status: ('A' for Active; 'I' for Inactive)
REMARK    1  A    between atoms: C_1  and  O_2
REMARK    2  A    between atoms: O_2  and  C_3
REMARK    3  A    between atoms: C_5  and  N_6
REMARK    4  A    between atoms: C_10  and  C_11
REMARK    5  A    between atoms: N_12  and  N_13
REMARK    6  A    between atoms: C_14  and  C_16
REMARK    7  A    between atoms: C_16  and  C_17
REMARK    8  A    between atoms: C_16  and  N_18
REMARK    9  A    between atoms: N_18  and  C_19
REMARK   10  A    between atoms: C_23  and  C_24
REMARK   11  A    between atoms: C_26  and  O_27
REMARK                            x       y       z     vdW  Elec       q    Type
REMARK                         _______ _______ _______ _____ _____    ______ ____
ROOT
ATOM      1  C   UNL     1       2.393   7.391  18.432  0.00  0.00    +0.000 C 
ATOM      2  N   UNL     1       3.546   7.572  17.874  0.00  0.00    +0.000 NA
ENDROOT
BRANCH   1   7
ATOM      3  C   UNL     1       0.996  10.853  19.192  0.00  0.00    +0.000 A 
ATOM      4  C   UNL     1       0.527  10.645  20.494  0.00  0.00    +0.000 A 
ATOM      5  C   UNL     1       0.676   9.395  21.111  0.00  0.00    +0.000 A 
ATOM      6  C   UNL     1       1.291   8.331  20.438  0.00  0.00    +0.000 A 
ATOM      7  C   UNL     1       1.755   8.534  19.134  0.00  0.00    +0.000 A 
ATOM      8  C   UNL     1       1.610   9.792  18.509  0.00  0.00    +0.000 A 
BRANCH   5   9
ATOM      9  N   UNL     1       0.177   9.204  22.479  0.00  0.00    +0.000 N 
ATOM     10  O   UNL     1       0.784   9.763  23.403  0.00  0.00    +0.000 OA
ATOM     11  O   UNL     1      -0.832   8.499  22.622  0.00  0.00    +0.000 OA
ENDBRANCH   5   9
BRANCH   3  13
ATOM     12  C   UNL     1      -0.571  12.571  18.600  0.00  0.00    +0.000 C 
ATOM     13  O   UNL     1       0.772  12.130  18.750  0.00  0.00    +0.000 OA
ENDBRANCH   3  13
BRANCH   8  14
ATOM     14  O   UNL     1       2.063   9.996  17.231  0.00  0.00    +0.000 OA
ATOM     15  H   UNL     1       1.387   9.701  16.578  0.00  0.00    +0.000 HD
ENDBRANCH   8  14
ENDBRANCH   1   7
BRANCH   2  16
ATOM     16  N   UNL     1       4.129   6.531  17.230  0.00  0.00    +0.000 N 
ATOM     17  C   UNL     1       5.000   5.719  17.952  0.00  0.00    +0.000 C 
ATOM     18  O   UNL     1       5.355   5.978  19.105  0.00  0.00    +0.000 OA
ATOM     19  H   UNL     1       3.941   6.373  16.246  0.00  0.00    +0.000 HD
BRANCH  17  20
ATOM     20  C   UNL     1       5.582   4.498  17.196  0.00  0.00    +0.000 C 
ATOM     21  C   UNL     1       7.111   4.526  17.204  0.00  0.00    +0.000 C 
BRANCH  20  22
ATOM     22  N   UNL     1       5.046   3.252  17.794  0.00  0.00    +0.000 N 
ATOM     23  H   UNL     1       5.680   2.913  18.524  0.00  0.00    +0.000 HD
BRANCH  22  24
ATOM     24  C   UNL     1       3.735   3.240  18.311  0.00  0.00    +0.000 A 
ATOM     25  C   UNL     1       2.586   3.307  17.519  0.00  0.00    +0.000 A 
ATOM     26  C   UNL     1       1.305   3.199  18.071  0.00  0.00    +0.000 A 
ATOM     27  C   UNL     1       1.146   3.003  19.437  0.00  0.00    +0.000 A 
ATOM     28  C   UNL     1       2.267   2.897  20.260  0.00  0.00    +0.000 A 
ATOM     29  C   UNL     1       2.106   2.666  21.734  0.00  0.00    +0.000 C 
ATOM     30  C   UNL     1       3.550   3.001  19.686  0.00  0.00    +0.000 A 
ENDBRANCH  22  24
ENDBRANCH  20  22
ENDBRANCH  17  20
ENDBRANCH   2  16
TORSDOF 8
ENDMDL
MODEL 4
REMARK VINA RESULT:      -8.0      3.135      9.428
REMARK  Name = 
REMARK  11 active torsions:
REMARK  status: ('A' for Active; 'I' for Inactive)
REMARK    1  A    between atoms: C_1  and  O_2
REMARK    2  A    between atoms: O_2  and  C_3
REMARK    3  A    between atoms: C_5  and  N_6
REMARK    4  A    between atoms: C_10  and  C_11
REMARK    5  A    between atoms: N_12  and  N_13
REMARK    6  A    between atoms: C_14  and  C_16
REMARK    7  A    between atoms: C_16  and  C_17
REMARK    8  A    between atoms: C_16  and  N_18
REMARK    9  A    between atoms: N_18  and  C_19
REMARK   10  A    between atoms: C_23  and  C_24
REMARK   11  A    between atoms: C_26  and  O_27
REMARK                            x       y       z     vdW  Elec       q    Type
REMARK                         _______ _______ _______ _____ _____    ______ ____
ROOT
ATOM      1  C   UNL     1       3.466   7.796  17.800  0.00  0.00    +0.000 C 
ATOM      2  N   UNL     1       2.225   7.723  18.157  0.00  0.00    +0.000 NA
ENDROOT
BRANCH   1   7
ATOM      3  C   UNL     1       5.021   4.427  18.665  0.00  0.00    +0.000 A 
ATOM      4  C   UNL     1       5.751   4.189  17.495  0.00  0.00    +0.000 A 
ATOM      5  C   UNL     1       5.737   5.120  16.448  0.00  0.00    +0.000 A 
ATOM      6  C   UNL     1       4.993   6.304  16.549  0.00  0.00    +0.000 A 
ATOM      7  C   UNL     1       4.258   6.542  17.715  0.00  0.00    +0.000 A 
ATOM      8  C   UNL     1       4.270   5.607  18.774  0.00  0.00    +0.000 A 
BRANCH   5   9
ATOM      9  N   UNL     1       6.513   4.846  15.232  0.00  0.00    +0.000 N 
ATOM     10  O   UNL     1       7.479   5.581  14.980  0.00  0.00    +0.000 OA
ATOM     11  O   UNL     1       6.156   3.886  14.534  0.00  0.00    +0.000 OA
ENDBRANCH   5   9
BRANCH   3  13
ATOM     12  C   UNL     1       4.218   2.347  19.551  0.00  0.00    +0.000 C 
ATOM     13  O   UNL     1       5.152   3.418  19.582  0.00  0.00    +0.000 OA
ENDBRANCH   3  13
BRANCH   8  14
ATOM     14  O   UNL     1       3.552   5.837  19.919  0.00  0.00    +0.000 OA
ATOM     15  H   UNL     1       2.663   5.417  19.855  0.00  0.00    +0.000 HD
ENDBRANCH   8  14
ENDBRANCH   1   7
BRANCH   2  16
ATOM     16  N   UNL     1       1.500   8.865  18.232  0.00  0.00    +0.000 N 
ATOM     17  C   UNL     1       1.145   9.334  19.494  0.00  0.00    +0.000 C 
ATOM     18  O   UNL     1       1.353   8.694  20.528  0.00  0.00    +0.000 OA
ATOM     19  H   UNL     1       1.216   9.343  17.384  0.00  0.00    +0.000 HD
BRANCH  17  20
ATOM     20  C   UNL     1       0.383  10.683  19.533  0.00  0.00    +0.000 C 
ATOM     21  C   UNL     1       1.264  11.794  20.107  0.00  0.00    +0.000 C 
BRANCH  20  22
ATOM     22  N   UNL     1      -0.104  11.009  18.172  0.00  0.00    +0.000 N 
ATOM     23  H   UNL     1       0.407  10.458  17.476  0.00  0.00    +0.000 HD
BRANCH  22  24
ATOM     24  C   UNL     1      -1.481  10.908  17.887  0.00  0.00    +0.000 A 
ATOM     25  C   UNL     1      -2.023   9.993  16.981  0.00  0.00    +0.000 A 
ATOM     26  C   UNL     1      -3.405   9.868  16.800  0.00  0.00    +0.000 A 
ATOM     27  C   UNL     1      -4.281  10.650  17.541  0.00  0.00    +0.000 A 
ATOM     28  C   UNL     1      -3.784  11.552  18.482  0.00  0.00    +0.000 A 
ATOM     29  C   UNL     1      -4.723  12.387  19.301  0.00  0.00    +0.000 C 
ATOM     30  C   UNL     1      -2.389  11.660  18.655  0.00  0.00    +0.000 A 
ENDBRANCH  22  24
ENDBRANCH  20  22
ENDBRANCH  17  20
ENDBRANCH   2  16
TORSDOF 8
ENDMDL
MODEL 5
REMARK VINA RESULT:      -7.9      1.340      1.617
REMARK  Name = 
REMARK  11 active torsions:
REMARK  status: ('A' for Active; 'I' for Inactive)
REMARK    1  A    between atoms: C_1  and  O_2
REMARK    2  A    between atoms: O_2  and  C_3
REMARK    3  A    between atoms: C_5  and  N_6
REMARK    4  A    between atoms: C_10  and  C_11
REMARK    5  A    between atoms: N_12  and  N_13
REMARK    6  A    between atoms: C_14  and  C_16
REMARK    7  A    between atoms: C_16  and  C_17
REMARK    8  A    between atoms: C_16  and  N_18
REMARK    9  A    between atoms: N_18  and  C_19
REMARK   10  A    between atoms: C_23  and  C_24
REMARK   11  A    between atoms: C_26  and  O_27
REMARK                            x       y       z     vdW  Elec       q    Type
REMARK                         _______ _______ _______ _____ _____    ______ ____
ROOT
ATOM      1  C   UNL     1       2.273   7.158  19.824  0.00  0.00    +0.000 C 
ATOM      2  N   UNL     1       2.174   6.144  20.620  0.00  0.00    +0.000 NA
ENDROOT
BRANCH   1   7
ATOM      3  C   UNL     1       0.428  10.468  19.427  0.00  0.00    +0.000 A 
ATOM      4  C   UNL     1      -0.030  10.649  20.737  0.00  0.00    +0.000 A 
ATOM      5  C   UNL     1       0.269   9.707  21.730  0.00  0.00    +0.000 A 
ATOM      6  C   UNL     1       1.028   8.566  21.433  0.00  0.00    +0.000 A 
ATOM      7  C   UNL     1       1.481   8.378  20.123  0.00  0.00    +0.000 A 
ATOM      8  C   UNL     1       1.184   9.326  19.119  0.00  0.00    +0.000 A 
BRANCH   5   9
ATOM      9  N   UNL     1      -0.221   9.922  23.097  0.00  0.00    +0.000 N 
ATOM     10  O   UNL     1       0.472   9.507  24.037  0.00  0.00    +0.000 OA
ATOM     11  O   UNL     1      -1.301  10.518  23.226  0.00  0.00    +0.000 OA
ENDBRANCH   5   9
BRANCH   3  13
ATOM     12  C   UNL     1       0.753  12.717  18.655  0.00  0.00    +0.000 C 
ATOM     13  O   UNL     1       0.048  11.484  18.591  0.00  0.00    +0.000 OA
ENDBRANCH   3  13
BRANCH   8  14
ATOM     14  O   UNL     1       1.627   9.147  17.834  0.00  0.00    +0.000 OA
ATOM     15  H   UNL     1       0.874   8.920  17.241  0.00  0.00    +0.000 HD
ENDBRANCH   8  14
ENDBRANCH   1   7
BRANCH   2  16
ATOM     16  N   UNL     1       2.898   5.030  20.351  0.00  0.00    +0.000 N 
ATOM     17  C   UNL     1       2.478   4.214  19.304  0.00  0.00    +0.000 C 
ATOM     18  O   UNL     1       1.417   4.392  18.700  0.00  0.00    +0.000 OA
ATOM     19  H   UNL     1       3.708   4.802  20.916  0.00  0.00    +0.000 HD
BRANCH  17  20
ATOM     20  C   UNL     1       3.380   2.994  18.984  0.00  0.00    +0.000 C 
ATOM     21  C   UNL     1       2.759   2.125  17.889  0.00  0.00    +0.000 C 
BRANCH  20  22
ATOM     22  N   UNL     1       4.734   3.471  18.613  0.00  0.00    +0.000 N 
ATOM     23  H   UNL     1       5.368   2.675  18.505  0.00  0.00    +0.000 HD
BRANCH  22  24
ATOM     24  C   UNL     1       4.888   4.312  17.492  0.00  0.00    +0.000 A 
ATOM     25  C   UNL     1       4.750   5.701  17.537  0.00  0.00    +0.000 A 
ATOM     26  C   UNL     1       5.003   6.502  16.418  0.00  0.00    +0.000 A 
ATOM     27  C   UNL     1       5.421   5.925  15.225  0.00  0.00    +0.000 A 
ATOM     28  C   UNL     1       5.606   4.545  15.147  0.00  0.00    +0.000 A 
ATOM     29  C   UNL     1       6.076   3.915  13.869  0.00  0.00    +0.000 C 
ATOM     30  C   UNL     1       5.352   3.755  16.286  0.00  0.00    +0.000 A 
ENDBRANCH  22  24
ENDBRANCH  20  22
ENDBRANCH  17  20
ENDBRANCH   2  16
TORSDOF 8
ENDMDL
MODEL 6
REMARK VINA RESULT:      -7.9      1.469      3.152
REMARK  Name = 
REMARK  11 active torsions:
REMARK  status: ('A' for Active; 'I' for Inactive)
REMARK    1  A    between atoms: C_1  and  O_2
REMARK    2  A    between atoms: O_2  and  C_3
REMARK    3  A    between atoms: C_5  and  N_6
REMARK    4  A    between atoms: C_10  and  C_11
REMARK    5  A    between atoms: N_12  and  N_13
REMARK    6  A    between atoms: C_14  and  C_16
REMARK    7  A    between atoms: C_16  and  C_17
REMARK    8  A    between atoms: C_16  and  N_18
REMARK    9  A    between atoms: N_18  and  C_19
REMARK   10  A    between atoms: C_23  and  C_24
REMARK   11  A    between atoms: C_26  and  O_27
REMARK                            x       y       z     vdW  Elec       q    Type
REMARK                         _______ _______ _______ _____ _____    ______ ____
ROOT
ATOM      1  C   UNL     1       1.726   8.373  20.026  0.00  0.00    +0.000 C 
ATOM      2  N   UNL     1       1.674   7.281  20.715  0.00  0.00    +0.000 NA
ENDROOT
BRANCH   1   7
ATOM      3  C   UNL     1      -0.303  10.993  21.907  0.00  0.00    +0.000 A 
ATOM      4  C   UNL     1      -1.068  11.509  20.854  0.00  0.00    +0.000 A 
ATOM      5  C   UNL     1      -0.924  11.001  19.557  0.00  0.00    +0.000 A 
ATOM      6  C   UNL     1      -0.013   9.970  19.286  0.00  0.00    +0.000 A 
ATOM      7  C   UNL     1       0.757   9.457  20.334  0.00  0.00    +0.000 A 
ATOM      8  C   UNL     1       0.615   9.964  21.645  0.00  0.00    +0.000 A 
BRANCH   5   9
ATOM      9  N   UNL     1      -1.740  11.559  18.471  0.00  0.00    +0.000 N 
ATOM     10  O   UNL     1      -2.832  11.025  18.230  0.00  0.00    +0.000 OA
ATOM     11  O   UNL     1      -1.287  12.542  17.867  0.00  0.00    +0.000 OA
ENDBRANCH   5   9
BRANCH   3  13
ATOM     12  C   UNL     1      -1.287  12.832  23.093  0.00  0.00    +0.000 C 
ATOM     13  O   UNL     1      -0.575  11.602  23.103  0.00  0.00    +0.000 OA
ENDBRANCH   3  13
BRANCH   8  14
ATOM     14  O   UNL     1       1.367   9.463  22.675  0.00  0.00    +0.000 OA
ATOM     15  H   UNL     1       1.338   8.479  22.672  0.00  0.00    +0.000 HD
ENDBRANCH   8  14
ENDBRANCH   1   7
BRANCH   2  16
ATOM     16  N   UNL     1       2.559   6.292  20.437  0.00  0.00    +0.000 N 
ATOM     17  C   UNL     1       2.075   4.992  20.327  0.00  0.00    +0.000 C 
ATOM     18  O   UNL     1       0.909   4.687  20.591  0.00  0.00    +0.000 OA
ATOM     19  H   UNL     1       3.545   6.508  20.334  0.00  0.00    +0.000 HD
BRANCH  17  20
ATOM     20  C   UNL     1       3.110   3.907  19.933  0.00  0.00    +0.000 C 
ATOM     21  C   UNL     1       2.676   2.528  20.430  0.00  0.00    +0.000 C 
BRANCH  20  22
ATOM     22  N   UNL     1       3.307   3.931  18.463  0.00  0.00    +0.000 N 
ATOM     23  H   UNL     1       2.674   4.613  18.036  0.00  0.00    +0.000 HD
BRANCH  22  24
ATOM     24  C   UNL     1       4.599   4.144  17.941  0.00  0.00    +0.000 A 
ATOM     25  C   UNL     1       4.955   3.886  16.615  0.00  0.00    +0.000 A 
ATOM     26  C   UNL     1       6.225   4.200  16.121  0.00  0.00    +0.000 A 
ATOM     27  C   UNL     1       7.169   4.800  16.945  0.00  0.00    +0.000 A 
ATOM     28  C   UNL     1       6.843   5.107  18.266  0.00  0.00    +0.000 A 
ATOM     29  C   UNL     1       7.848   5.773  19.159  0.00  0.00    +0.000 C 
ATOM     30  C   UNL     1       5.556   4.790  18.746  0.00  0.00    +0.000 A 
ENDBRANCH  22  24
ENDBRANCH  20  22
ENDBRANCH  17  20
ENDBRANCH   2  16
TORSDOF 8
ENDMDL
MODEL 7
REMARK VINA RESULT:      -7.8      0.875      1.520
REMARK  Name = 
REMARK  11 active torsions:
REMARK  status: ('A' for Active; 'I' for Inactive)
REMARK    1  A    between atoms: C_1  and  O_2
REMARK    2  A    between atoms: O_2  and  C_3
REMARK    3  A    between atoms: C_5  and  N_6
REMARK    4  A    between atoms: C_10  and  C_11
REMARK    5  A    between atoms: N_12  and  N_13
REMARK    6  A    between atoms: C_14  and  C_16
REMARK    7  A    between atoms: C_16  and  C_17
REMARK    8  A    between atoms: C_16  and  N_18
REMARK    9  A    between atoms: N_18  and  C_19
REMARK   10  A    between atoms: C_23  and  C_24
REMARK   11  A    between atoms: C_26  and  O_27
REMARK                            x       y       z     vdW  Elec       q    Type
REMARK                         _______ _______ _______ _____ _____    ______ ____
ROOT
ATOM      1  C   UNL     1       2.085   7.906  19.510  0.00  0.00    +0.000 C 
ATOM      2  N   UNL     1       2.238   6.892  20.298  0.00  0.00    +0.000 NA
ENDROOT
BRANCH   1   7
ATOM      3  C   UNL     1      -0.335  10.844  19.340  0.00  0.00    +0.000 A 
ATOM      4  C   UNL     1      -0.677  10.955  20.693  0.00  0.00    +0.000 A 
ATOM      5  C   UNL     1      -0.116  10.089  21.640  0.00  0.00    +0.000 A 
ATOM      6  C   UNL     1       0.792   9.093  21.254  0.00  0.00    +0.000 A 
ATOM      7  C   UNL     1       1.130   8.974  19.902  0.00  0.00    +0.000 A 
ATOM      8  C   UNL     1       0.570   9.847  18.943  0.00  0.00    +0.000 A 
BRANCH   5   9
ATOM      9  N   UNL     1      -0.490  10.229  23.053  0.00  0.00    +0.000 N 
ATOM     10  O   UNL     1      -1.520  10.862  23.323  0.00  0.00    +0.000 OA
ATOM     11  O   UNL     1       0.249   9.693  23.892  0.00  0.00    +0.000 OA
ENDBRANCH   5   9
BRANCH   3  13
ATOM     12  C   UNL     1      -0.475  13.103  18.545  0.00  0.00    +0.000 C 
ATOM     13  O   UNL     1      -0.971  11.771  18.558  0.00  0.00    +0.000 OA
ENDBRANCH   3  13
BRANCH   8  14
ATOM     14  O   UNL     1       0.899   9.735  17.617  0.00  0.00    +0.000 OA
ATOM     15  H   UNL     1       1.830   9.430  17.521  0.00  0.00    +0.000 HD
ENDBRANCH   8  14
ENDBRANCH   1   7
BRANCH   2  16
ATOM     16  N   UNL     1       3.111   5.917  19.943  0.00  0.00    +0.000 N 
ATOM     17  C   UNL     1       2.593   4.729  19.434  0.00  0.00    +0.000 C 
ATOM     18  O   UNL     1       1.385   4.481  19.409  0.00  0.00    +0.000 OA
ATOM     19  H   UNL     1       4.107   6.057  20.070  0.00  0.00    +0.000 HD
BRANCH  17  20
ATOM     20  C   UNL     1       3.631   3.674  18.971  0.00  0.00    +0.000 C 
ATOM     21  C   UNL     1       3.266   2.282  19.488  0.00  0.00    +0.000 C 
BRANCH  20  22
ATOM     22  N   UNL     1       3.736   3.708  17.492  0.00  0.00    +0.000 N 
ATOM     23  H   UNL     1       2.950   4.233  17.098  0.00  0.00    +0.000 HD
BRANCH  22  24
ATOM     24  C   UNL     1       4.922   4.176  16.893  0.00  0.00    +0.000 A 
ATOM     25  C   UNL     1       5.399   3.729  15.658  0.00  0.00    +0.000 A 
ATOM     26  C   UNL     1       6.533   4.290  15.061  0.00  0.00    +0.000 A 
ATOM     27  C   UNL     1       7.210   5.331  15.684  0.00  0.00    +0.000 A 
ATOM     28  C   UNL     1       6.748   5.830  16.902  0.00  0.00    +0.000 A 
ATOM     29  C   UNL     1       7.461   6.967  17.574  0.00  0.00    +0.000 C 
ATOM     30  C   UNL     1       5.600   5.258  17.486  0.00  0.00    +0.000 A 
ENDBRANCH  22  24
ENDBRANCH  20  22
ENDBRANCH  17  20
ENDBRANCH   2  16
TORSDOF 8
ENDMDL
MODEL 8
REMARK VINA RESULT:      -7.7      1.594      3.017
REMARK  Name = 
REMARK  11 active torsions:
REMARK  status: ('A' for Active; 'I' for Inactive)
REMARK    1  A    between atoms: C_1  and  O_2
REMARK    2  A    between atoms: O_2  and  C_3
REMARK    3  A    between atoms: C_5  and  N_6
REMARK    4  A    between atoms: C_10  and  C_11
REMARK    5  A    between atoms: N_12  and  N_13
REMARK    6  A    between atoms: C_14  and  C_16
REMARK    7  A    between atoms: C_16  and  C_17
REMARK    8  A    between atoms: C_16  and  N_18
REMARK    9  A    between atoms: N_18  and  C_19
REMARK   10  A    between atoms: C_23  and  C_24
REMARK   11  A    between atoms: C_26  and  O_27
REMARK                            x       y       z     vdW  Elec       q    Type
REMARK                         _______ _______ _______ _____ _____    ______ ____
ROOT
ATOM      1  C   UNL     1       0.888   8.380  21.485  0.00  0.00    +0.000 C 
ATOM      2  N   UNL     1       1.594   7.983  20.477  0.00  0.00    +0.000 NA
ENDROOT
BRANCH   1   7
ATOM      3  C   UNL     1      -1.060  11.523  22.403  0.00  0.00    +0.000 A 
ATOM      4  C   UNL     1      -1.152  12.127  21.144  0.00  0.00    +0.000 A 
ATOM      5  C   UNL     1      -0.593  11.510  20.017  0.00  0.00    +0.000 A 
ATOM      6  C   UNL     1       0.071  10.280  20.128  0.00  0.00    +0.000 A 
ATOM      7  C   UNL     1       0.170   9.676  21.385  0.00  0.00    +0.000 A 
ATOM      8  C   UNL     1      -0.394  10.294  22.524  0.00  0.00    +0.000 A 
BRANCH   5   9
ATOM      9  N   UNL     1      -0.706  12.165  18.708  0.00  0.00    +0.000 N 
ATOM     10  O   UNL     1      -1.701  11.912  18.015  0.00  0.00    +0.000 OA
ATOM     11  O   UNL     1       0.203  12.942  18.381  0.00  0.00    +0.000 OA
ENDBRANCH   5   9
BRANCH   3  13
ATOM     12  C   UNL     1      -3.070  12.458  23.322  0.00  0.00    +0.000 C 
ATOM     13  O   UNL     1      -1.664  12.260  23.386  0.00  0.00    +0.000 OA
ENDBRANCH   3  13
BRANCH   8  14
ATOM     14  O   UNL     1      -0.299   9.706  23.759  0.00  0.00    +0.000 OA
ATOM     15  H   UNL     1      -1.197   9.532  24.124  0.00  0.00    +0.000 HD
ENDBRANCH   8  14
ENDBRANCH   1   7
BRANCH   2  16
ATOM     16  N   UNL     1       2.247   6.798  20.565  0.00  0.00    +0.000 N 
ATOM     17  C   UNL     1       2.661   6.190  19.383  0.00  0.00    +0.000 C 
ATOM     18  O   UNL     1       2.353   6.616  18.267  0.00  0.00    +0.000 OA
ATOM     19  H   UNL     1       2.405   6.372  21.471  0.00  0.00    +0.000 HD
BRANCH  17  20
ATOM     20  C   UNL     1       3.471   4.877  19.538  0.00  0.00    +0.000 C 
ATOM     21  C   UNL     1       2.798   3.931  20.533  0.00  0.00    +0.000 C 
BRANCH  20  22
ATOM     22  N   UNL     1       3.643   4.250  18.205  0.00  0.00    +0.000 N 
ATOM     23  H   UNL     1       2.887   4.543  17.580  0.00  0.00    +0.000 HD
BRANCH  22  24
ATOM     24  C   UNL     1       4.865   4.404  17.520  0.00  0.00    +0.000 A 
ATOM     25  C   UNL     1       6.090   4.627  18.154  0.00  0.00    +0.000 A 
ATOM     26  C   UNL     1       7.290   4.682  17.437  0.00  0.00    +0.000 A 
ATOM     27  C   UNL     1       7.292   4.497  16.060  0.00  0.00    +0.000 A 
ATOM     28  C   UNL     1       6.095   4.238  15.392  0.00  0.00    +0.000 A 
ATOM     29  C   UNL     1       6.089   4.017  13.908  0.00  0.00    +0.000 C 
ATOM     30  C   UNL     1       4.897   4.179  16.131  0.00  0.00    +0.000 A 
ENDBRANCH  22  24
ENDBRANCH  20  22
ENDBRANCH  17  20
ENDBRANCH   2  16
TORSDOF 8
ENDMDL
MODEL 9
REMARK VINA RESULT:      -7.7      2.040      4.452
REMARK  Name = 
REMARK  11 active torsions:
REMARK  status: ('A' for Active; 'I' for Inactive)
REMARK    1  A    between atoms: C_1  and  O_2
REMARK    2  A    between atoms: O_2  and  C_3
REMARK    3  A    between atoms: C_5  and  N_6
REMARK    4  A    between atoms: C_10  and  C_11
REMARK    5  A    between atoms: N_12  and  N_13
REMARK    6  A    between atoms: C_14  and  C_16
REMARK    7  A    between atoms: C_16  and  C_17
REMARK    8  A    between atoms: C_16  and  N_18
REMARK    9  A    between atoms: N_18  and  C_19
REMARK   10  A    between atoms: C_23  and  C_24
REMARK   11  A    between atoms: C_26  and  O_27
REMARK                            x       y       z     vdW  Elec       q    Type
REMARK                         _______ _______ _______ _____ _____    ______ ____
ROOT
ATOM      1  C   UNL     1       2.084   7.833  18.148  0.00  0.00    +0.000 C 
ATOM      2  N   UNL     1       3.288   7.414  18.366  0.00  0.00    +0.000 NA
ENDROOT
BRANCH   1   7
ATOM      3  C   UNL     1       0.950   9.793  21.212  0.00  0.00    +0.000 A 
ATOM      4  C   UNL     1       0.512  10.972  20.597  0.00  0.00    +0.000 A 
ATOM      5  C   UNL     1       0.582  11.115  19.205  0.00  0.00    +0.000 A 
ATOM      6  C   UNL     1       1.091  10.085  18.402  0.00  0.00    +0.000 A 
ATOM      7  C   UNL     1       1.536   8.908  19.013  0.00  0.00    +0.000 A 
ATOM      8  C   UNL     1       1.466   8.758  20.417  0.00  0.00    +0.000 A 
BRANCH   5   9
ATOM      9  N   UNL     1       0.114  12.361  18.586  0.00  0.00    +0.000 N 
ATOM     10  O   UNL     1      -1.002  12.359  18.045  0.00  0.00    +0.000 OA
ATOM     11  O   UNL     1       0.864  13.345  18.652  0.00  0.00    +0.000 OA
ENDBRANCH   5   9
BRANCH   3  13
ATOM     12  C   UNL     1      -0.508   9.844  23.117  0.00  0.00    +0.000 C 
ATOM     13  O   UNL     1       0.806   9.824  22.573  0.00  0.00    +0.000 OA
ENDBRANCH   3  13
BRANCH   8  14
ATOM     14  O   UNL     1       1.900   7.606  21.020  0.00  0.00    +0.000 OA
ATOM     15  H   UNL     1       2.861   7.473  20.851  0.00  0.00    +0.000 HD
ENDBRANCH   8  14
ENDBRANCH   1   7
BRANCH   2  16
ATOM     16  N   UNL     1       3.791   6.435  17.575  0.00  0.00    +0.000 N 
ATOM     17  C   UNL     1       4.790   5.619  18.100  0.00  0.00    +0.000 C 
ATOM     18  O   UNL     1       5.317   5.826  19.196  0.00  0.00    +0.000 OA
ATOM     19  H   UNL     1       3.453   6.326  16.626  0.00  0.00    +0.000 HD
BRANCH  17  20
ATOM     20  C   UNL     1       5.280   4.466  17.187  0.00  0.00    +0.000 C 
ATOM     21  C   UNL     1       6.803   4.486  17.046  0.00  0.00    +0.000 C 
BRANCH  20  22
ATOM     22  N   UNL     1       4.790   3.174  17.725  0.00  0.00    +0.000 N 
ATOM     23  H   UNL     1       5.471   2.789  18.385  0.00  0.00    +0.000 HD
BRANCH  22  24
ATOM     24  C   UNL     1       3.515   3.113  18.324  0.00  0.00    +0.000 A 
ATOM     25  C   UNL     1       2.318   3.075  17.604  0.00  0.00    +0.000 A 
ATOM     26  C   UNL     1       1.082   2.921  18.241  0.00  0.00    +0.000 A 
ATOM     27  C   UNL     1       1.018   2.785  19.622  0.00  0.00    +0.000 A 
ATOM     28  C   UNL     1       2.192   2.783  20.376  0.00  0.00    +0.000 A 
ATOM     29  C   UNL     1       2.135   2.616  21.866  0.00  0.00    +0.000 C 
ATOM     30  C   UNL     1       3.429   2.932  19.717  0.00  0.00    +0.000 A 
ENDBRANCH  22  24
ENDBRANCH  20  22
ENDBRANCH  17  20
ENDBRANCH   2  16
TORSDOF 8
ENDMDL
