MODEL 1
REMARK VINA RESULT:      -7.7      0.000      0.000
REMARK  Name = 
REMARK  7 active torsions:
REMARK  status: ('A' for Active; 'I' for Inactive)
REMARK    1  A    between atoms: C_1  and  C_2
REMARK    2  A    between atoms: C_2  and  N_3
REMARK    3  A    between atoms: C_5  and  C_6
REMARK    4  A    between atoms: C_6  and  O_8
REMARK    5  A    between atoms: C_15  and  N_16
REMARK    6  A    between atoms: C_18  and  C_19
REMARK    7  A    between atoms: C_18  and  N_20
REMARK                            x       y       z     vdW  Elec       q    Type
REMARK                         _______ _______ _______ _____ _____    ______ ____
ROOT
ATOM      1  N   UNL     1       3.063   5.326  19.860  0.00  0.00    +0.000 N 
ATOM      2  C   UNL     1       3.886   4.618  18.990  0.00  0.00    +0.000 A 
ATOM      3  C   UNL     1       4.390   5.061  17.827  0.00  0.00    +0.000 A 
ATOM      4  C   UNL     1       4.025   6.435  17.432  0.00  0.00    +0.000 A 
ATOM      5  O   UNL     1       4.489   6.917  16.398  0.00  0.00    +0.000 OA
ATOM      6  C   UNL     1       3.092   7.194  18.288  0.00  0.00    +0.000 A 
ATOM      7  C   UNL     1       2.656   8.448  17.856  0.00  0.00    +0.000 A 
ATOM      8  C   UNL     1       1.762   9.168  18.639  0.00  0.00    +0.000 A 
ATOM      9  F   UNL     1       1.328  10.345  18.168  0.00  0.00    +0.000 F 
ATOM     10  C   UNL     1       1.315   8.682  19.873  0.00  0.00    +0.000 A 
ATOM     11  C   UNL     1       1.776   7.417  20.284  0.00  0.00    +0.000 A 
ATOM     12  C   UNL     1       2.645   6.631  19.500  0.00  0.00    +0.000 A 
ENDROOT
BRANCH  10  13
ATOM     13  N   UNL     1       0.415   9.408  20.676  0.00  0.00    +0.000 N 
ATOM     14  C   UNL     1       0.572  10.686  21.309  0.00  0.00    +0.000 C 
ATOM     15  C   UNL     1      -0.254  10.142  22.498  0.00  0.00    +0.000 C 
ATOM     16  C   UNL     1      -1.371  10.978  23.075  0.00  0.00    +0.000 C 
ATOM     17  C   UNL     1      -0.616   8.962  21.569  0.00  0.00    +0.000 C 
BRANCH  15  18
ATOM     18  N   UNL     1       0.669   9.646  23.546  0.00  0.00    +0.000 NA
ATOM     19  H   UNL     1       1.637   9.582  23.237  0.00  0.00    +0.000 HD
ATOM     20  H   UNL     1       0.425   8.708  23.869  0.00  0.00    +0.000 HD
ENDBRANCH  15  18
ENDBRANCH  10  13
BRANCH   1  22
ATOM     21  C   UNL     1       1.241   3.831  20.606  0.00  0.00    +0.000 C 
ATOM     22  C   UNL     1       2.453   4.655  21.024  0.00  0.00    +0.000 C 
ENDBRANCH   1  22
BRANCH   3  23
ATOM     23  C   UNL     1       5.241   4.172  17.012  0.00  0.00    +0.000 C 
ATOM     24  O   UNL     1       4.858   3.629  15.987  0.00  0.00    +0.000 OA
BRANCH  23  25
ATOM     25  O   UNL     1       6.492   4.004  17.492  0.00  0.00    +0.000 OA
ATOM     26  H   UNL     1       6.708   4.577  18.268  0.00  0.00    +0.000 HD
ENDBRANCH  23  25
ENDBRANCH   3  23
TORSDOF 5
ENDMDL
MODEL 2
REMARK VINA RESULT:      -7.4      1.390      1.621
REMARK  Name = 
REMARK  7 active torsions:
REMARK  status: ('A' for Active; 'I' for Inactive)
REMARK    1  A    between atoms: C_1  and  C_2
REMARK    2  A    between atoms: C_2  and  N_3
REMARK    3  A    between atoms: C_5  and  C_6
REMARK    4  A    between atoms: C_6  and  O_8
REMARK    5  A    between atoms: C_15  and  N_16
REMARK    6  A    between atoms: C_18  and  C_19
REMARK    7  A    between atoms: C_18  and  N_20
REMARK                            x       y       z     vdW  Elec       q    Type
REMARK                         _______ _______ _______ _____ _____    ______ ____
ROOT
ATOM      1  N   UNL     1       4.236   4.709  18.722  0.00  0.00    +0.000 N 
ATOM      2  C   UNL     1       5.079   4.240  17.720  0.00  0.00    +0.000 A 
ATOM      3  C   UNL     1       5.462   4.907  16.620  0.00  0.00    +0.000 A 
ATOM      4  C   UNL     1       4.928   6.273  16.458  0.00  0.00    +0.000 A 
ATOM      5  O   UNL     1       5.275   6.955  15.493  0.00  0.00    +0.000 OA
ATOM      6  C   UNL     1       3.970   6.781  17.460  0.00  0.00    +0.000 A 
ATOM      7  C   UNL     1       3.375   8.026  17.246  0.00  0.00    +0.000 A 
ATOM      8  C   UNL     1       2.457   8.512  18.168  0.00  0.00    +0.000 A 
ATOM      9  F   UNL     1       1.870   9.688  17.904  0.00  0.00    +0.000 F 
ATOM     10  C   UNL     1       2.138   7.799  19.330  0.00  0.00    +0.000 A 
ATOM     11  C   UNL     1       2.757   6.548  19.519  0.00  0.00    +0.000 A 
ATOM     12  C   UNL     1       3.658   5.995  18.588  0.00  0.00    +0.000 A 
ENDROOT
BRANCH  10  13
ATOM     13  N   UNL     1       1.213   8.286  20.272  0.00  0.00    +0.000 N 
ATOM     14  C   UNL     1       0.897   9.638  20.636  0.00  0.00    +0.000 C 
ATOM     15  C   UNL     1       0.714   9.149  22.092  0.00  0.00    +0.000 C 
ATOM     16  C   UNL     1      -0.498   9.585  22.879  0.00  0.00    +0.000 C 
ATOM     17  C   UNL     1       0.742   7.722  21.504  0.00  0.00    +0.000 C 
BRANCH  15  18
ATOM     18  N   UNL     1       1.973   9.371  22.841  0.00  0.00    +0.000 NA
ATOM     19  H   UNL     1       2.806   9.331  22.257  0.00  0.00    +0.000 HD
ATOM     20  H   UNL     1       2.121   8.674  23.573  0.00  0.00    +0.000 HD
ENDBRANCH  15  18
ENDBRANCH  10  13
BRANCH   1  22
ATOM     21  C   UNL     1       3.339   2.460  19.221  0.00  0.00    +0.000 C 
ATOM     22  C   UNL     1       3.773   3.805  19.792  0.00  0.00    +0.000 C 
ENDBRANCH   1  22
BRANCH   3  23
ATOM     23  C   UNL     1       6.355   4.255  15.642  0.00  0.00    +0.000 C 
ATOM     24  O   UNL     1       6.001   3.340  14.913  0.00  0.00    +0.000 OA
BRANCH  23  25
ATOM     25  O   UNL     1       7.610   4.753  15.614  0.00  0.00    +0.000 OA
ATOM     26  H   UNL     1       7.757   5.512  16.230  0.00  0.00    +0.000 HD
ENDBRANCH  23  25
ENDBRANCH   3  23
TORSDOF 5
ENDMDL
MODEL 3
REMARK VINA RESULT:      -7.1      2.515      3.784
REMARK  Name = 
REMARK  7 active torsions:
REMARK  status: ('A' for Active; 'I' for Inactive)
REMARK    1  A    between atoms: C_1  and  C_2
REMARK    2  A    between atoms: C_2  and  N_3
REMARK    3  A    between atoms: C_5  and  C_6
REMARK    4  A    between atoms: C_6  and  O_8
REMARK    5  A    between atoms: C_15  and  N_16
REMARK    6  A    between atoms: C_18  and  C_19
REMARK    7  A    between atoms: C_18  and  N_20
REMARK                            x       y       z     vdW  Elec       q    Type
REMARK                         _______ _______ _______ _____ _____    ______ ____
ROOT
ATOM      1  N   UNL     1       3.907   5.597  18.118  0.00  0.00    +0.000 N 
ATOM      2  C   UNL     1       4.307   4.297  18.410  0.00  0.00    +0.000 A 
ATOM      3  C   UNL     1       3.853   3.526  19.410  0.00  0.00    +0.000 A 
ATOM      4  C   UNL     1       2.831   4.124  20.291  0.00  0.00    +0.000 A 
ATOM      5  O   UNL     1       2.342   3.455  21.202  0.00  0.00    +0.000 OA
ATOM      6  C   UNL     1       2.435   5.528  20.063  0.00  0.00    +0.000 A 
ATOM      7  C   UNL     1       1.557   6.131  20.967  0.00  0.00    +0.000 A 
ATOM      8  C   UNL     1       1.188   7.456  20.779  0.00  0.00    +0.000 A 
ATOM      9  F   UNL     1       0.383   8.016  21.693  0.00  0.00    +0.000 F 
ATOM     10  C   UNL     1       1.647   8.196  19.683  0.00  0.00    +0.000 A 
ATOM     11  C   UNL     1       2.528   7.560  18.787  0.00  0.00    +0.000 A 
ATOM     12  C   UNL     1       2.966   6.232  18.964  0.00  0.00    +0.000 A 
ENDROOT
BRANCH  10  13
ATOM     13  N   UNL     1       1.273   9.538  19.482  0.00  0.00    +0.000 N 
ATOM     14  C   UNL     1       0.100  10.241  19.918  0.00  0.00    +0.000 C 
ATOM     15  C   UNL     1       0.134  11.022  18.583  0.00  0.00    +0.000 C 
ATOM     16  C   UNL     1      -0.036  12.522  18.591  0.00  0.00    +0.000 C 
ATOM     17  C   UNL     1       1.553  10.439  18.400  0.00  0.00    +0.000 C 
BRANCH  15  18
ATOM     18  N   UNL     1      -0.770  10.364  17.611  0.00  0.00    +0.000 NA
ATOM     19  H   UNL     1      -1.720  10.241  17.958  0.00  0.00    +0.000 HD
ATOM     20  H   UNL     1      -0.453   9.428  17.353  0.00  0.00    +0.000 HD
ENDBRANCH  15  18
ENDBRANCH  10  13
BRANCH   1  22
ATOM     21  C   UNL     1       5.168   5.471  15.994  0.00  0.00    +0.000 C 
ATOM     22  C   UNL     1       4.611   6.380  17.084  0.00  0.00    +0.000 C 
ENDBRANCH   1  22
BRANCH   3  23
ATOM     23  C   UNL     1       4.395   2.165  19.590  0.00  0.00    +0.000 C 
ATOM     24  O   UNL     1       5.051   1.826  20.564  0.00  0.00    +0.000 OA
BRANCH  23  25
ATOM     25  O   UNL     1       4.107   1.312  18.585  0.00  0.00    +0.000 OA
ATOM     26  H   UNL     1       4.469   0.401  18.712  0.00  0.00    +0.000 HD
ENDBRANCH  23  25
ENDBRANCH   3  23
TORSDOF 5
ENDMDL
MODEL 4
REMARK VINA RESULT:      -7.1      1.223      1.586
REMARK  Name = 
REMARK  7 active torsions:
REMARK  status: ('A' for Active; 'I' for Inactive)
REMARK    1  A    between atoms: C_1  and  C_2
REMARK    2  A    between atoms: C_2  and  N_3
REMARK    3  A    between atoms: C_5  and  C_6
REMARK    4  A    between atoms: C_6  and  O_8
REMARK    5  A    between atoms: C_15  and  N_16
REMARK    6  A    between atoms: C_18  and  C_19
REMARK    7  A    between atoms: C_18  and  N_20
REMARK                            x       y       z     vdW  Elec       q    Type
REMARK                         _______ _______ _______ _____ _____    ______ ____
ROOT
ATOM      1  N   UNL     1       3.788   4.799  18.898  0.00  0.00    +0.000 N 
ATOM      2  C   UNL     1       4.566   4.330  17.844  0.00  0.00    +0.000 A 
ATOM      3  C   UNL     1       4.956   5.028  16.766  0.00  0.00    +0.000 A 
ATOM      4  C   UNL     1       4.507   6.431  16.691  0.00  0.00    +0.000 A 
ATOM      5  O   UNL     1       4.866   7.138  15.749  0.00  0.00    +0.000 OA
ATOM      6  C   UNL     1       3.616   6.946  17.750  0.00  0.00    +0.000 A 
ATOM      7  C   UNL     1       3.096   8.235  17.618  0.00  0.00    +0.000 A 
ATOM      8  C   UNL     1       2.240   8.729  18.595  0.00  0.00    +0.000 A 
ATOM      9  F   UNL     1       1.722   9.952  18.410  0.00  0.00    +0.000 F 
ATOM     10  C   UNL     1       1.914   7.979  19.730  0.00  0.00    +0.000 A 
ATOM     11  C   UNL     1       2.457   6.683  19.836  0.00  0.00    +0.000 A 
ATOM     12  C   UNL     1       3.290   6.124  18.847  0.00  0.00    +0.000 A 
ENDROOT
BRANCH  10  13
ATOM     13  N   UNL     1       1.053   8.474  20.728  0.00  0.00    +0.000 N 
ATOM     14  C   UNL     1      -0.171   9.213  20.602  0.00  0.00    +0.000 C 
ATOM     15  C   UNL     1       0.237  10.004  21.867  0.00  0.00    +0.000 C 
ATOM     16  C   UNL     1      -0.773  10.222  22.969  0.00  0.00    +0.000 C 
ATOM     17  C   UNL     1       1.325   8.925  22.062  0.00  0.00    +0.000 C 
BRANCH  15  18
ATOM     18  N   UNL     1       0.898  11.266  21.460  0.00  0.00    +0.000 NA
ATOM     19  H   UNL     1       0.356  12.099  21.683  0.00  0.00    +0.000 HD
ATOM     20  H   UNL     1       1.065  11.313  20.453  0.00  0.00    +0.000 HD
ENDBRANCH  15  18
ENDBRANCH  10  13
BRANCH   1  22
ATOM     21  C   UNL     1       4.073   2.557  19.901  0.00  0.00    +0.000 C 
ATOM     22  C   UNL     1       3.302   3.871  19.938  0.00  0.00    +0.000 C 
ENDBRANCH   1  22
BRANCH   3  23
ATOM     23  C   UNL     1       5.774   4.372  15.727  0.00  0.00    +0.000 C 
ATOM     24  O   UNL     1       6.848   3.835  15.955  0.00  0.00    +0.000 OA
BRANCH  23  25
ATOM     25  O   UNL     1       5.239   4.412  14.488  0.00  0.00    +0.000 OA
ATOM     26  H   UNL     1       5.905   4.504  13.763  0.00  0.00    +0.000 HD
ENDBRANCH  23  25
ENDBRANCH   3  23
TORSDOF 5
ENDMDL
MODEL 5
REMARK VINA RESULT:      -7.0      0.834      1.090
REMARK  Name = 
REMARK  7 active torsions:
REMARK  status: ('A' for Active; 'I' for Inactive)
REMARK    1  A    between atoms: C_1  and  C_2
REMARK    2  A    between atoms: C_2  and  N_3
REMARK    3  A    between atoms: C_5  and  C_6
REMARK    4  A    between atoms: C_6  and  O_8
REMARK    5  A    between atoms: C_15  and  N_16
REMARK    6  A    between atoms: C_18  and  C_19
REMARK    7  A    between atoms: C_18  and  N_20
REMARK                            x       y       z     vdW  Elec       q    Type
REMARK                         _______ _______ _______ _____ _____    ______ ____
ROOT
ATOM      1  N   UNL     1       2.945   5.271  19.980  0.00  0.00    +0.000 N 
ATOM      2  C   UNL     1       3.778   4.539  19.140  0.00  0.00    +0.000 A 
ATOM      3  C   UNL     1       4.325   4.962  17.990  0.00  0.00    +0.000 A 
ATOM      4  C   UNL     1       4.002   6.341  17.574  0.00  0.00    +0.000 A 
ATOM      5  O   UNL     1       4.506   6.805  16.551  0.00  0.00    +0.000 OA
ATOM      6  C   UNL     1       3.060   7.125  18.398  0.00  0.00    +0.000 A 
ATOM      7  C   UNL     1       2.663   8.385  17.943  0.00  0.00    +0.000 A 
ATOM      8  C   UNL     1       1.762   9.129  18.694  0.00  0.00    +0.000 A 
ATOM      9  F   UNL     1       1.367  10.311  18.203  0.00  0.00    +0.000 F 
ATOM     10  C   UNL     1       1.268   8.662  19.919  0.00  0.00    +0.000 A 
ATOM     11  C   UNL     1       1.690   7.390  20.352  0.00  0.00    +0.000 A 
ATOM     12  C   UNL     1       2.565   6.581  19.600  0.00  0.00    +0.000 A 
ENDROOT
BRANCH  10  13
ATOM     13  N   UNL     1       0.361   9.413  20.689  0.00  0.00    +0.000 N 
ATOM     14  C   UNL     1      -0.572  10.425  20.284  0.00  0.00    +0.000 C 
ATOM     15  C   UNL     1      -0.273  11.160  21.612  0.00  0.00    +0.000 C 
ATOM     16  C   UNL     1      -1.415  11.685  22.448  0.00  0.00    +0.000 C 
ATOM     17  C   UNL     1       0.429   9.857  22.052  0.00  0.00    +0.000 C 
BRANCH  15  18
ATOM     18  N   UNL     1       0.763  12.192  21.374  0.00  0.00    +0.000 NA
ATOM     19  H   UNL     1       0.408  13.145  21.432  0.00  0.00    +0.000 HD
ATOM     20  H   UNL     1       1.185  12.116  20.447  0.00  0.00    +0.000 HD
ENDBRANCH  15  18
ENDBRANCH  10  13
BRANCH   1  22
ATOM     21  C   UNL     1       1.209   3.648  20.665  0.00  0.00    +0.000 C 
ATOM     22  C   UNL     1       2.287   4.621  21.130  0.00  0.00    +0.000 C 
ENDBRANCH   1  22
BRANCH   3  23
ATOM     23  C   UNL     1       5.181   4.050  17.207  0.00  0.00    +0.000 C 
ATOM     24  O   UNL     1       6.306   4.342  16.828  0.00  0.00    +0.000 OA
BRANCH  23  25
ATOM     25  O   UNL     1       4.621   2.852  16.938  0.00  0.00    +0.000 OA
ATOM     26  H   UNL     1       3.841   2.897  16.332  0.00  0.00    +0.000 HD
ENDBRANCH  23  25
ENDBRANCH   3  23
TORSDOF 5
ENDMDL
MODEL 6
REMARK VINA RESULT:      -6.8      1.181      1.306
REMARK  Name = 
REMARK  7 active torsions:
REMARK  status: ('A' for Active; 'I' for Inactive)
REMARK    1  A    between atoms: C_1  and  C_2
REMARK    2  A    between atoms: C_2  and  N_3
REMARK    3  A    between atoms: C_5  and  C_6
REMARK    4  A    between atoms: C_6  and  O_8
REMARK    5  A    between atoms: C_15  and  N_16
REMARK    6  A    between atoms: C_18  and  C_19
REMARK    7  A    between atoms: C_18  and  N_20
REMARK                            x       y       z     vdW  Elec       q    Type
REMARK                         _______ _______ _______ _____ _____    ______ ____
ROOT
ATOM      1  N   UNL     1       2.495   4.621  20.210  0.00  0.00    +0.000 N 
ATOM      2  C   UNL     1       3.206   3.790  19.351  0.00  0.00    +0.000 A 
ATOM      3  C   UNL     1       3.803   4.149  18.204  0.00  0.00    +0.000 A 
ATOM      4  C   UNL     1       3.685   5.568  17.815  0.00  0.00    +0.000 A 
ATOM      5  O   UNL     1       4.247   5.971  16.796  0.00  0.00    +0.000 OA
ATOM      6  C   UNL     1       2.874   6.467  18.659  0.00  0.00    +0.000 A 
ATOM      7  C   UNL     1       2.665   7.780  18.230  0.00  0.00    +0.000 A 
ATOM      8  C   UNL     1       1.889   8.635  19.002  0.00  0.00    +0.000 A 
ATOM      9  F   UNL     1       1.670   9.872  18.534  0.00  0.00    +0.000 F 
ATOM     10  C   UNL     1       1.338   8.224  20.222  0.00  0.00    +0.000 A 
ATOM     11  C   UNL     1       1.570   6.896  20.629  0.00  0.00    +0.000 A 
ATOM     12  C   UNL     1       2.311   5.980  19.856  0.00  0.00    +0.000 A 
ENDROOT
BRANCH  10  13
ATOM     13  N   UNL     1       0.556   9.086  21.012  0.00  0.00    +0.000 N 
ATOM     14  C   UNL     1      -0.426  10.057  20.620  0.00  0.00    +0.000 C 
ATOM     15  C   UNL     1       0.068  10.951  21.782  0.00  0.00    +0.000 C 
ATOM     16  C   UNL     1      -0.936  11.603  22.701  0.00  0.00    +0.000 C 
ATOM     17  C   UNL     1       0.827   9.701  22.280  0.00  0.00    +0.000 C 
BRANCH  15  18
ATOM     18  N   UNL     1       1.059  11.922  21.262  0.00  0.00    +0.000 NA
ATOM     19  H   UNL     1       0.673  12.568  20.576  0.00  0.00    +0.000 HD
ATOM     20  H   UNL     1       1.844  11.466  20.794  0.00  0.00    +0.000 HD
ENDBRANCH  15  18
ENDBRANCH  10  13
BRANCH   1  22
ATOM     21  C   UNL     1       1.977   2.550  21.458  0.00  0.00    +0.000 C 
ATOM     22  C   UNL     1       1.755   4.055  21.355  0.00  0.00    +0.000 C 
ENDBRANCH   1  22
BRANCH   3  23
ATOM     23  C   UNL     1       4.511   3.135  17.398  0.00  0.00    +0.000 C 
ATOM     24  O   UNL     1       4.153   1.969  17.320  0.00  0.00    +0.000 OA
BRANCH  23  25
ATOM     25  O   UNL     1       5.597   3.599  16.745  0.00  0.00    +0.000 OA
ATOM     26  H   UNL     1       6.248   4.065  17.325  0.00  0.00    +0.000 HD
ENDBRANCH  23  25
ENDBRANCH   3  23
TORSDOF 5
ENDMDL
MODEL 7
REMARK VINA RESULT:      -6.8      4.721      6.035
REMARK  Name = 
REMARK  7 active torsions:
REMARK  status: ('A' for Active; 'I' for Inactive)
REMARK    1  A    between atoms: C_1  and  C_2
REMARK    2  A    between atoms: C_2  and  N_3
REMARK    3  A    between atoms: C_5  and  C_6
REMARK    4  A    between atoms: C_6  and  O_8
REMARK    5  A    between atoms: C_15  and  N_16
REMARK    6  A    between atoms: C_18  and  C_19
REMARK    7  A    between atoms: C_18  and  N_20
REMARK                            x       y       z     vdW  Elec       q    Type
REMARK                         _______ _______ _______ _____ _____    ______ ____
ROOT
ATOM      1  N   UNL     1       7.020   4.989  17.034  0.00  0.00    +0.000 N 
ATOM      2  C   UNL     1       7.585   5.156  15.774  0.00  0.00    +0.000 A 
ATOM      3  C   UNL     1       6.995   4.905  14.594  0.00  0.00    +0.000 A 
ATOM      4  C   UNL     1       5.612   4.394  14.644  0.00  0.00    +0.000 A 
ATOM      5  O   UNL     1       5.000   4.184  13.596  0.00  0.00    +0.000 OA
ATOM      6  C   UNL     1       5.003   4.129  15.963  0.00  0.00    +0.000 A 
ATOM      7  C   UNL     1       3.740   3.536  16.009  0.00  0.00    +0.000 A 
ATOM      8  C   UNL     1       3.159   3.261  17.240  0.00  0.00    +0.000 A 
ATOM      9  F   UNL     1       1.968   2.647  17.246  0.00  0.00    +0.000 F 
ATOM     10  C   UNL     1       3.794   3.599  18.441  0.00  0.00    +0.000 A 
ATOM     11  C   UNL     1       5.066   4.200  18.362  0.00  0.00    +0.000 A 
ATOM     12  C   UNL     1       5.713   4.453  17.136  0.00  0.00    +0.000 A 
ENDROOT
BRANCH  10  13
ATOM     13  N   UNL     1       3.210   3.330  19.693  0.00  0.00    +0.000 N 
ATOM     14  C   UNL     1       2.658   2.110  20.208  0.00  0.00    +0.000 C 
ATOM     15  C   UNL     1       1.586   2.959  20.931  0.00  0.00    +0.000 C 
ATOM     16  C   UNL     1       1.268   2.683  22.380  0.00  0.00    +0.000 C 
ATOM     17  C   UNL     1       2.471   4.177  20.585  0.00  0.00    +0.000 C 
BRANCH  15  18
ATOM     18  N   UNL     1       0.365   3.017  20.094  0.00  0.00    +0.000 NA
ATOM     19  H   UNL     1      -0.438   2.552  20.514  0.00  0.00    +0.000 HD
ATOM     20  H   UNL     1       0.492   2.569  19.185  0.00  0.00    +0.000 HD
ENDBRANCH  15  18
ENDBRANCH  10  13
BRANCH   1  22
ATOM     21  C   UNL     1       7.951   6.621  18.642  0.00  0.00    +0.000 C 
ATOM     22  C   UNL     1       7.843   5.152  18.248  0.00  0.00    +0.000 C 
ENDBRANCH   1  22
BRANCH   3  23
ATOM     23  C   UNL     1       7.743   5.126  13.341  0.00  0.00    +0.000 C 
ATOM     24  O   UNL     1       8.648   5.940  13.231  0.00  0.00    +0.000 OA
BRANCH  23  25
ATOM     25  O   UNL     1       7.347   4.349  12.310  0.00  0.00    +0.000 OA
ATOM     26  H   UNL     1       8.086   4.028  11.738  0.00  0.00    +0.000 HD
ENDBRANCH  23  25
ENDBRANCH   3  23
TORSDOF 5
ENDMDL
MODEL 8
REMARK VINA RESULT:      -6.8      2.479      3.408
REMARK  Name = 
REMARK  7 active torsions:
REMARK  status: ('A' for Active; 'I' for Inactive)
REMARK    1  A    between atoms: C_1  and  C_2
REMARK    2  A    between atoms: C_2  and  N_3
REMARK    3  A    between atoms: C_5  and  C_6
REMARK    4  A    between atoms: C_6  and  O_8
REMARK    5  A    between atoms: C_15  and  N_16
REMARK    6  A    between atoms: C_18  and  C_19
REMARK    7  A    between atoms: C_18  and  N_20
REMARK                            x       y       z     vdW  Elec       q    Type
REMARK                         _______ _______ _______ _____ _____    ______ ____
ROOT
ATOM      1  N   UNL     1       3.720   5.782  17.879  0.00  0.00    +0.000 N 
ATOM      2  C   UNL     1       4.090   4.466  18.137  0.00  0.00    +0.000 A 
ATOM      3  C   UNL     1       3.653   3.696  19.145  0.00  0.00    +0.000 A 
ATOM      4  C   UNL     1       2.688   4.312  20.076  0.00  0.00    +0.000 A 
ATOM      5  O   UNL     1       2.215   3.646  20.997  0.00  0.00    +0.000 OA
ATOM      6  C   UNL     1       2.327   5.731  19.882  0.00  0.00    +0.000 A 
ATOM      7  C   UNL     1       1.506   6.348  20.829  0.00  0.00    +0.000 A 
ATOM      8  C   UNL     1       1.171   7.687  20.674  0.00  0.00    +0.000 A 
ATOM      9  F   UNL     1       0.422   8.257  21.628  0.00  0.00    +0.000 F 
ATOM     10  C   UNL     1       1.608   8.428  19.569  0.00  0.00    +0.000 A 
ATOM     11  C   UNL     1       2.431   7.777  18.630  0.00  0.00    +0.000 A 
ATOM     12  C   UNL     1       2.835   6.434  18.771  0.00  0.00    +0.000 A 
ENDROOT
BRANCH  10  13
ATOM     13  N   UNL     1       1.268   9.783  19.401  0.00  0.00    +0.000 N 
ATOM     14  C   UNL     1       1.395  10.883  20.315  0.00  0.00    +0.000 C 
ATOM     15  C   UNL     1       0.070  11.442  19.746  0.00  0.00    +0.000 C 
ATOM     16  C   UNL     1      -0.027  12.902  19.378  0.00  0.00    +0.000 C 
ATOM     17  C   UNL     1       0.240  10.403  18.616  0.00  0.00    +0.000 C 
BRANCH  15  18
ATOM     18  N   UNL     1      -1.052  11.010  20.613  0.00  0.00    +0.000 NA
ATOM     19  H   UNL     1      -0.923  10.082  21.013  0.00  0.00    +0.000 HD
ATOM     20  H   UNL     1      -1.940  10.968  20.111  0.00  0.00    +0.000 HD
ENDBRANCH  15  18
ENDBRANCH  10  13
BRANCH   1  22
ATOM     21  C   UNL     1       5.223   5.645  15.920  0.00  0.00    +0.000 C 
ATOM     22  C   UNL     1       4.405   6.558  16.827  0.00  0.00    +0.000 C 
ENDBRANCH   1  22
BRANCH   3  23
ATOM     23  C   UNL     1       4.159   2.316  19.285  0.00  0.00    +0.000 C 
ATOM     24  O   UNL     1       3.771   1.384  18.596  0.00  0.00    +0.000 OA
BRANCH  23  25
ATOM     25  O   UNL     1       5.096   2.160  20.245  0.00  0.00    +0.000 OA
ATOM     26  H   UNL     1       5.212   1.226  20.548  0.00  0.00    +0.000 HD
ENDBRANCH  23  25
ENDBRANCH   3  23
TORSDOF 5
ENDMDL
MODEL 9
REMARK VINA RESULT:      -6.7      1.216      1.661
REMARK  Name = 
REMARK  7 active torsions:
REMARK  status: ('A' for Active; 'I' for Inactive)
REMARK    1  A    between atoms: C_1  and  C_2
REMARK    2  A    between atoms: C_2  and  N_3
REMARK    3  A    between atoms: C_5  and  C_6
REMARK    4  A    between atoms: C_6  and  O_8
REMARK    5  A    between atoms: C_15  and  N_16
REMARK    6  A    between atoms: C_18  and  C_19
REMARK    7  A    between atoms: C_18  and  N_20
REMARK                            x       y       z     vdW  Elec       q    Type
REMARK                         _______ _______ _______ _____ _____    ______ ____
ROOT
ATOM      1  N   UNL     1       2.629   5.094  20.062  0.00  0.00    +0.000 N 
ATOM      2  C   UNL     1       3.286   4.126  19.311  0.00  0.00    +0.000 A 
ATOM      3  C   UNL     1       3.872   4.303  18.116  0.00  0.00    +0.000 A 
ATOM      4  C   UNL     1       3.805   5.661  17.543  0.00  0.00    +0.000 A 
ATOM      5  O   UNL     1       4.360   5.900  16.471  0.00  0.00    +0.000 OA
ATOM      6  C   UNL     1       3.050   6.700  18.273  0.00  0.00    +0.000 A 
ATOM      7  C   UNL     1       2.887   7.951  17.676  0.00  0.00    +0.000 A 
ATOM      8  C   UNL     1       2.164   8.935  18.338  0.00  0.00    +0.000 A 
ATOM      9  F   UNL     1       1.987  10.107  17.713  0.00  0.00    +0.000 F 
ATOM     10  C   UNL     1       1.624   8.714  19.611  0.00  0.00    +0.000 A 
ATOM     11  C   UNL     1       1.809   7.443  20.188  0.00  0.00    +0.000 A 
ATOM     12  C   UNL     1       2.494   6.401  19.533  0.00  0.00    +0.000 A 
ENDROOT
BRANCH  10  13
ATOM     13  N   UNL     1       0.895   9.707  20.292  0.00  0.00    +0.000 N 
ATOM     14  C   UNL     1      -0.417   9.651  20.871  0.00  0.00    +0.000 C 
ATOM     15  C   UNL     1      -0.620  11.119  20.427  0.00  0.00    +0.000 C 
ATOM     16  C   UNL     1      -1.192  12.121  21.401  0.00  0.00    +0.000 C 
ATOM     17  C   UNL     1       0.900  11.136  20.154  0.00  0.00    +0.000 C 
BRANCH  15  18
ATOM     18  N   UNL     1      -1.329  11.139  19.126  0.00  0.00    +0.000 NA
ATOM     19  H   UNL     1      -1.749  12.041  18.906  0.00  0.00    +0.000 HD
ATOM     20  H   UNL     1      -2.095  10.466  19.088  0.00  0.00    +0.000 HD
ENDBRANCH  15  18
ENDBRANCH  10  13
BRANCH   1  22
ATOM     21  C   UNL     1       1.963   3.215  21.524  0.00  0.00    +0.000 C 
ATOM     22  C   UNL     1       1.891   4.718  21.284  0.00  0.00    +0.000 C 
ENDBRANCH   1  22
BRANCH   3  23
ATOM     23  C   UNL     1       4.519   3.160  17.442  0.00  0.00    +0.000 C 
ATOM     24  O   UNL     1       4.099   2.014  17.509  0.00  0.00    +0.000 OA
BRANCH  23  25
ATOM     25  O   UNL     1       5.623   3.481  16.735  0.00  0.00    +0.000 OA
ATOM     26  H   UNL     1       5.464   3.594  15.766  0.00  0.00    +0.000 HD
ENDBRANCH  23  25
ENDBRANCH   3  23
TORSDOF 5
ENDMDL
