MODEL 1
REMARK VINA RESULT:      -8.4      0.000      0.000
REMARK  Name = 
REMARK  9 active torsions:
REMARK  status: ('A' for Active; 'I' for Inactive)
REMARK    1  A    between atoms: C_1  and  C_2
REMARK    2  A    between atoms: C_2  and  C_3
REMARK    3  A    between atoms: C_3  and  S_4
REMARK    4  A    between atoms: S_4  and  N_7
REMARK    5  A    between atoms: N_7  and  C_8
REMARK    6  A    between atoms: C_13  and  C_14
REMARK    7  A    between atoms: N_16  and  C_17
REMARK    8  A    between atoms: C_22  and  O_23
REMARK    9  A    between atoms: O_23  and  C_24
REMARK                            x       y       z     vdW  Elec       q    Type
REMARK                         _______ _______ _______ _____ _____    ______ ____
ROOT
ATOM      1  C   UNL     1       4.893   4.015  18.733  0.00  0.00    +0.000 A 
ATOM      2  C   UNL     1       4.226   2.907  18.220  0.00  0.00    +0.000 A 
ATOM      3  C   UNL     1       2.831   2.874  18.248  0.00  0.00    +0.000 A 
ATOM      4  C   UNL     1       2.109   3.954  18.767  0.00  0.00    +0.000 A 
ATOM      5  F   UNL     1       0.770   3.860  18.787  0.00  0.00    +0.000 F 
ATOM      6  C   UNL     1       2.751   5.090  19.258  0.00  0.00    +0.000 A 
ATOM      7  C   UNL     1       4.157   5.105  19.226  0.00  0.00    +0.000 A 
ATOM      8  F   UNL     1       4.857   6.149  19.701  0.00  0.00    +0.000 F 
ENDROOT
BRANCH   6   9
ATOM      9  C   UNL     1       2.011   6.259  19.821  0.00  0.00    +0.000 C 
ATOM     10  O   UNL     1       1.317   6.071  20.813  0.00  0.00    +0.000 OA
ATOM     11  N   UNL     1       2.123   7.495  19.189  0.00  0.00    +0.000 N 
ATOM     12  H   UNL     1       2.696   7.542  18.350  0.00  0.00    +0.000 HD
BRANCH  11  13
ATOM     13  C   UNL     1       1.503   8.678  19.569  0.00  0.00    +0.000 A 
ATOM     14  C   UNL     1       1.288   9.854  18.644  0.00  0.00    +0.000 A 
ATOM     15  N   UNL     1       0.736  10.995  18.946  0.00  0.00    +0.000 NA
ATOM     16  C   UNL     1       0.314  11.129  20.233  0.00  0.00    +0.000 A 
ATOM     17  C   UNL     1      -0.277  12.182  20.883  0.00  0.00    +0.000 A 
ATOM     18  C   UNL     1      -0.466  11.724  22.193  0.00  0.00    +0.000 A 
ATOM     19  N   UNL     1      -0.051  10.472  22.379  0.00  0.00    +0.000 NA
ATOM     20  N   UNL     1       0.442  10.100  21.169  0.00  0.00    +0.000 N 
ATOM     21  C   UNL     1       1.033   8.884  20.813  0.00  0.00    +0.000 A 
BRANCH  18  22
ATOM     22  O   UNL     1      -0.990  12.337  23.278  0.00  0.00    +0.000 OA
ATOM     23  C   UNL     1      -2.400  12.191  23.393  0.00  0.00    +0.000 C 
ENDBRANCH  18  22
ENDBRANCH  11  13
ENDBRANCH   6   9
BRANCH   1  24
ATOM     24  N   UNL     1       6.333   4.051  18.708  0.00  0.00    +0.000 N 
ATOM     25  H   UNL     1       6.713   4.458  19.572  0.00  0.00    +0.000 HD
BRANCH  24  26
ATOM     26  S   UNL     1       7.033   4.957  17.443  0.00  0.00    +0.000 S 
ATOM     27  O   UNL     1       5.920   5.406  16.637  0.00  0.00    +0.000 OA
ATOM     28  O   UNL     1       8.144   4.217  16.881  0.00  0.00    +0.000 OA
BRANCH  26  29
ATOM     29  C   UNL     1       7.680   6.374  18.341  0.00  0.00    +0.000 C 
BRANCH  29  31
ATOM     30  C   UNL     1       8.272   8.827  18.101  0.00  0.00    +0.000 C 
ATOM     31  C   UNL     1       7.472   7.661  17.543  0.00  0.00    +0.000 C 
ENDBRANCH  29  31
ENDBRANCH  26  29
ENDBRANCH  24  26
ENDBRANCH   1  24
TORSDOF 7
ENDMDL
MODEL 2
REMARK VINA RESULT:      -8.2      2.346      2.899
REMARK  Name = 
REMARK  9 active torsions:
REMARK  status: ('A' for Active; 'I' for Inactive)
REMARK    1  A    between atoms: C_1  and  C_2
REMARK    2  A    between atoms: C_2  and  C_3
REMARK    3  A    between atoms: C_3  and  S_4
REMARK    4  A    between atoms: S_4  and  N_7
REMARK    5  A    between atoms: N_7  and  C_8
REMARK    6  A    between atoms: C_13  and  C_14
REMARK    7  A    between atoms: N_16  and  C_17
REMARK    8  A    between atoms: C_22  and  O_23
REMARK    9  A    between atoms: O_23  and  C_24
REMARK                            x       y       z     vdW  Elec       q    Type
REMARK                         _______ _______ _______ _____ _____    ______ ____
ROOT
ATOM      1  C   UNL     1       4.423   4.888  17.373  0.00  0.00    +0.000 A 
ATOM      2  C   UNL     1       3.786   3.702  17.721  0.00  0.00    +0.000 A 
ATOM      3  C   UNL     1       2.639   3.748  18.515  0.00  0.00    +0.000 A 
ATOM      4  C   UNL     1       2.123   4.977  18.940  0.00  0.00    +0.000 A 
ATOM      5  F   UNL     1       1.030   4.961  19.718  0.00  0.00    +0.000 F 
ATOM      6  C   UNL     1       2.724   6.183  18.580  0.00  0.00    +0.000 A 
ATOM      7  C   UNL     1       3.881   6.118  17.783  0.00  0.00    +0.000 A 
ATOM      8  F   UNL     1       4.539   7.228  17.411  0.00  0.00    +0.000 F 
ENDROOT
BRANCH   6   9
ATOM      9  C   UNL     1       2.201   7.511  19.020  0.00  0.00    +0.000 C 
ATOM     10  O   UNL     1       2.071   7.704  20.222  0.00  0.00    +0.000 OA
ATOM     11  N   UNL     1       1.867   8.457  18.052  0.00  0.00    +0.000 N 
ATOM     12  H   UNL     1       1.979   8.189  17.078  0.00  0.00    +0.000 HD
BRANCH  11  13
ATOM     13  C   UNL     1       1.364   9.730  18.280  0.00  0.00    +0.000 A 
ATOM     14  C   UNL     1      -0.091  10.025  18.564  0.00  0.00    +0.000 A 
ATOM     15  N   UNL     1      -0.627  11.196  18.762  0.00  0.00    +0.000 NA
ATOM     16  C   UNL     1       0.224  12.257  18.704  0.00  0.00    +0.000 A 
ATOM     17  C   UNL     1      -0.002  13.602  18.839  0.00  0.00    +0.000 A 
ATOM     18  C   UNL     1       1.259  14.189  18.668  0.00  0.00    +0.000 A 
ATOM     19  N   UNL     1       2.229  13.301  18.456  0.00  0.00    +0.000 NA
ATOM     20  N   UNL     1       1.592  12.101  18.469  0.00  0.00    +0.000 N 
ATOM     21  C   UNL     1       2.140  10.830  18.266  0.00  0.00    +0.000 A 
BRANCH  18  22
ATOM     22  O   UNL     1       1.641  15.485  18.679  0.00  0.00    +0.000 OA
ATOM     23  C   UNL     1       3.000  15.684  18.307  0.00  0.00    +0.000 C 
ENDBRANCH  18  22
ENDBRANCH  11  13
ENDBRANCH   6   9
BRANCH   1  24
ATOM     24  N   UNL     1       5.610   4.844  16.556  0.00  0.00    +0.000 N 
ATOM     25  H   UNL     1       5.683   3.953  16.050  0.00  0.00    +0.000 HD
BRANCH  24  26
ATOM     26  S   UNL     1       7.091   5.009  17.387  0.00  0.00    +0.000 S 
ATOM     27  O   UNL     1       8.025   4.175  16.665  0.00  0.00    +0.000 OA
ATOM     28  O   UNL     1       6.862   4.859  18.809  0.00  0.00    +0.000 OA
BRANCH  26  29
ATOM     29  C   UNL     1       7.497   6.727  17.046  0.00  0.00    +0.000 C 
BRANCH  29  31
ATOM     30  C   UNL     1       8.254   8.907  18.093  0.00  0.00    +0.000 C 
ATOM     31  C   UNL     1       8.020   7.419  18.303  0.00  0.00    +0.000 C 
ENDBRANCH  29  31
ENDBRANCH  26  29
ENDBRANCH  24  26
ENDBRANCH   1  24
TORSDOF 7
ENDMDL
MODEL 3
REMARK VINA RESULT:      -8.2      1.338      1.766
REMARK  Name = 
REMARK  9 active torsions:
REMARK  status: ('A' for Active; 'I' for Inactive)
REMARK    1  A    between atoms: C_1  and  C_2
REMARK    2  A    between atoms: C_2  and  C_3
REMARK    3  A    between atoms: C_3  and  S_4
REMARK    4  A    between atoms: S_4  and  N_7
REMARK    5  A    between atoms: N_7  and  C_8
REMARK    6  A    between atoms: C_13  and  C_14
REMARK    7  A    between atoms: N_16  and  C_17
REMARK    8  A    between atoms: C_22  and  O_23
REMARK    9  A    between atoms: O_23  and  C_24
REMARK                            x       y       z     vdW  Elec       q    Type
REMARK                         _______ _______ _______ _____ _____    ______ ____
ROOT
ATOM      1  C   UNL     1       4.609   5.134  17.421  0.00  0.00    +0.000 A 
ATOM      2  C   UNL     1       4.011   4.004  16.872  0.00  0.00    +0.000 A 
ATOM      3  C   UNL     1       2.729   3.638  17.288  0.00  0.00    +0.000 A 
ATOM      4  C   UNL     1       2.045   4.412  18.233  0.00  0.00    +0.000 A 
ATOM      5  F   UNL     1       0.824   4.002  18.611  0.00  0.00    +0.000 F 
ATOM      6  C   UNL     1       2.610   5.566  18.775  0.00  0.00    +0.000 A 
ATOM      7  C   UNL     1       3.903   5.918  18.348  0.00  0.00    +0.000 A 
ATOM      8  F   UNL     1       4.532   6.999  18.837  0.00  0.00    +0.000 F 
ENDROOT
BRANCH   6   9
ATOM      9  C   UNL     1       1.908   6.411  19.786  0.00  0.00    +0.000 C 
ATOM     10  O   UNL     1       1.446   5.854  20.775  0.00  0.00    +0.000 OA
ATOM     11  N   UNL     1       1.792   7.781  19.555  0.00  0.00    +0.000 N 
ATOM     12  H   UNL     1       2.178   8.144  18.688  0.00  0.00    +0.000 HD
BRANCH  11  13
ATOM     13  C   UNL     1       1.170   8.709  20.379  0.00  0.00    +0.000 A 
ATOM     14  C   UNL     1       1.406   8.807  21.869  0.00  0.00    +0.000 A 
ATOM     15  N   UNL     1       0.838   9.638  22.697  0.00  0.00    +0.000 NA
ATOM     16  C   UNL     1      -0.061  10.501  22.150  0.00  0.00    +0.000 A 
ATOM     17  C   UNL     1      -0.842  11.472  22.723  0.00  0.00    +0.000 A 
ATOM     18  C   UNL     1      -1.566  12.015  21.654  0.00  0.00    +0.000 A 
ATOM     19  N   UNL     1      -1.270  11.460  20.479  0.00  0.00    +0.000 NA
ATOM     20  N   UNL     1      -0.343  10.513  20.782  0.00  0.00    +0.000 N 
ATOM     21  C   UNL     1       0.287   9.614  19.917  0.00  0.00    +0.000 A 
BRANCH  18  22
ATOM     22  O   UNL     1      -2.500  12.992  21.623  0.00  0.00    +0.000 OA
ATOM     23  C   UNL     1      -2.066  14.218  22.200  0.00  0.00    +0.000 C 
ENDBRANCH  18  22
ENDBRANCH  11  13
ENDBRANCH   6   9
BRANCH   1  24
ATOM     24  N   UNL     1       5.933   5.512  16.996  0.00  0.00    +0.000 N 
ATOM     25  H   UNL     1       6.157   5.121  16.073  0.00  0.00    +0.000 HD
BRANCH  24  26
ATOM     26  S   UNL     1       7.210   5.017  18.013  0.00  0.00    +0.000 S 
ATOM     27  O   UNL     1       8.110   4.275  17.158  0.00  0.00    +0.000 OA
ATOM     28  O   UNL     1       6.664   4.455  19.231  0.00  0.00    +0.000 OA
BRANCH  26  29
ATOM     29  C   UNL     1       7.983   6.593  18.402  0.00  0.00    +0.000 C 
BRANCH  29  31
ATOM     30  C   UNL     1       8.066   9.052  17.791  0.00  0.00    +0.000 C 
ATOM     31  C   UNL     1       7.504   7.681  17.443  0.00  0.00    +0.000 C 
ENDBRANCH  29  31
ENDBRANCH  26  29
ENDBRANCH  24  26
ENDBRANCH   1  24
TORSDOF 7
ENDMDL
MODEL 4
REMARK VINA RESULT:      -8.2      1.193      1.599
REMARK  Name = 
REMARK  9 active torsions:
REMARK  status: ('A' for Active; 'I' for Inactive)
REMARK    1  A    between atoms: C_1  and  C_2
REMARK    2  A    between atoms: C_2  and  C_3
REMARK    3  A    between atoms: C_3  and  S_4
REMARK    4  A    between atoms: S_4  and  N_7
REMARK    5  A    between atoms: N_7  and  C_8
REMARK    6  A    between atoms: C_13  and  C_14
REMARK    7  A    between atoms: N_16  and  C_17
REMARK    8  A    between atoms: C_22  and  O_23
REMARK    9  A    between atoms: O_23  and  C_24
REMARK                            x       y       z     vdW  Elec       q    Type
REMARK                         _______ _______ _______ _____ _____    ______ ____
ROOT
ATOM      1  C   UNL     1       4.865   4.477  17.943  0.00  0.00    +0.000 A 
ATOM      2  C   UNL     1       4.186   3.547  17.162  0.00  0.00    +0.000 A 
ATOM      3  C   UNL     1       2.799   3.437  17.280  0.00  0.00    +0.000 A 
ATOM      4  C   UNL     1       2.096   4.267  18.161  0.00  0.00    +0.000 A 
ATOM      5  F   UNL     1       0.767   4.103  18.248  0.00  0.00    +0.000 F 
ATOM      6  C   UNL     1       2.749   5.228  18.932  0.00  0.00    +0.000 A 
ATOM      7  C   UNL     1       4.146   5.323  18.804  0.00  0.00    +0.000 A 
ATOM      8  F   UNL     1       4.858   6.203  19.527  0.00  0.00    +0.000 F 
ENDROOT
BRANCH   6   9
ATOM      9  C   UNL     1       2.030   6.127  19.883  0.00  0.00    +0.000 C 
ATOM     10  O   UNL     1       1.486   5.613  20.853  0.00  0.00    +0.000 OA
ATOM     11  N   UNL     1       1.991   7.494  19.619  0.00  0.00    +0.000 N 
ATOM     12  H   UNL     1       2.444   7.820  18.768  0.00  0.00    +0.000 HD
BRANCH  11  13
ATOM     13  C   UNL     1       1.366   8.468  20.386  0.00  0.00    +0.000 A 
ATOM     14  C   UNL     1       1.568   8.628  21.875  0.00  0.00    +0.000 A 
ATOM     15  N   UNL     1       0.995   9.503  22.652  0.00  0.00    +0.000 NA
ATOM     16  C   UNL     1       0.124  10.356  22.046  0.00  0.00    +0.000 A 
ATOM     17  C   UNL     1      -0.653  11.364  22.556  0.00  0.00    +0.000 A 
ATOM     18  C   UNL     1      -1.341  11.872  21.447  0.00  0.00    +0.000 A 
ATOM     19  N   UNL     1      -1.027  11.261  20.305  0.00  0.00    +0.000 NA
ATOM     20  N   UNL     1      -0.124  10.313  20.672  0.00  0.00    +0.000 N 
ATOM     21  C   UNL     1       0.511   9.366  19.862  0.00  0.00    +0.000 A 
BRANCH  18  22
ATOM     22  O   UNL     1      -2.257  12.862  21.350  0.00  0.00    +0.000 OA
ATOM     23  C   UNL     1      -3.174  12.689  20.276  0.00  0.00    +0.000 C 
ENDBRANCH  18  22
ENDBRANCH  11  13
ENDBRANCH   6   9
BRANCH   1  24
ATOM     24  N   UNL     1       6.296   4.591  17.826  0.00  0.00    +0.000 N 
ATOM     25  H   UNL     1       6.732   4.793  18.734  0.00  0.00    +0.000 HD
BRANCH  24  26
ATOM     26  S   UNL     1       6.861   5.815  16.779  0.00  0.00    +0.000 S 
ATOM     27  O   UNL     1       5.677   6.531  16.360  0.00  0.00    +0.000 OA
ATOM     28  O   UNL     1       7.793   5.242  15.830  0.00  0.00    +0.000 OA
BRANCH  26  29
ATOM     29  C   UNL     1       7.772   6.863  17.921  0.00  0.00    +0.000 C 
BRANCH  29  31
ATOM     30  C   UNL     1       8.541   9.237  18.366  0.00  0.00    +0.000 C 
ATOM     31  C   UNL     1       7.675   8.329  17.505  0.00  0.00    +0.000 C 
ENDBRANCH  29  31
ENDBRANCH  26  29
ENDBRANCH  24  26
ENDBRANCH   1  24
TORSDOF 7
ENDMDL
MODEL 5
REMARK VINA RESULT:      -8.1      2.446      3.036
REMARK  Name = 
REMARK  9 active torsions:
REMARK  status: ('A' for Active; 'I' for Inactive)
REMARK    1  A    between atoms: C_1  and  C_2
REMARK    2  A    between atoms: C_2  and  C_3
REMARK    3  A    between atoms: C_3  and  S_4
REMARK    4  A    between atoms: S_4  and  N_7
REMARK    5  A    between atoms: N_7  and  C_8
REMARK    6  A    between atoms: C_13  and  C_14
REMARK    7  A    between atoms: N_16  and  C_17
REMARK    8  A    between atoms: C_22  and  O_23
REMARK    9  A    between atoms: O_23  and  C_24
REMARK                            x       y       z     vdW  Elec       q    Type
REMARK                         _______ _______ _______ _____ _____    ______ ____
ROOT
ATOM      1  C   UNL     1       4.890   4.306  18.374  0.00  0.00    +0.000 A 
ATOM      2  C   UNL     1       4.172   3.370  17.636  0.00  0.00    +0.000 A 
ATOM      3  C   UNL     1       2.838   3.630  17.315  0.00  0.00    +0.000 A 
ATOM      4  C   UNL     1       2.236   4.829  17.713  0.00  0.00    +0.000 A 
ATOM      5  F   UNL     1       0.946   5.017  17.394  0.00  0.00    +0.000 F 
ATOM      6  C   UNL     1       2.944   5.797  18.426  0.00  0.00    +0.000 A 
ATOM      7  C   UNL     1       4.284   5.517  18.745  0.00  0.00    +0.000 A 
ATOM      8  F   UNL     1       5.031   6.382  19.450  0.00  0.00    +0.000 F 
ENDROOT
BRANCH   6   9
ATOM      9  C   UNL     1       2.330   7.085  18.869  0.00  0.00    +0.000 C 
ATOM     10  O   UNL     1       2.038   7.201  20.053  0.00  0.00    +0.000 OA
ATOM     11  N   UNL     1       2.098   8.080  17.922  0.00  0.00    +0.000 N 
ATOM     12  H   UNL     1       2.344   7.875  16.956  0.00  0.00    +0.000 HD
BRANCH  11  13
ATOM     13  C   UNL     1       1.534   9.327  18.154  0.00  0.00    +0.000 A 
ATOM     14  C   UNL     1       0.053   9.560  18.351  0.00  0.00    +0.000 A 
ATOM     15  N   UNL     1      -0.538  10.704  18.549  0.00  0.00    +0.000 NA
ATOM     16  C   UNL     1       0.274  11.796  18.577  0.00  0.00    +0.000 A 
ATOM     17  C   UNL     1      -0.011  13.128  18.738  0.00  0.00    +0.000 A 
ATOM     18  C   UNL     1       1.234  13.764  18.667  0.00  0.00    +0.000 A 
ATOM     19  N   UNL     1       2.250  12.919  18.492  0.00  0.00    +0.000 NA
ATOM     20  N   UNL     1       1.659  11.697  18.428  0.00  0.00    +0.000 N 
ATOM     21  C   UNL     1       2.266  10.454  18.223  0.00  0.00    +0.000 A 
BRANCH  18  22
ATOM     22  O   UNL     1       1.566  15.073  18.742  0.00  0.00    +0.000 OA
ATOM     23  C   UNL     1       2.956  15.300  18.938  0.00  0.00    +0.000 C 
ENDBRANCH  18  22
ENDBRANCH  11  13
ENDBRANCH   6   9
BRANCH   1  24
ATOM     24  N   UNL     1       6.266   4.039  18.710  0.00  0.00    +0.000 N 
ATOM     25  H   UNL     1       6.449   4.212  19.706  0.00  0.00    +0.000 HD
BRANCH  24  26
ATOM     26  S   UNL     1       7.429   4.967  17.874  0.00  0.00    +0.000 S 
ATOM     27  O   UNL     1       8.400   4.012  17.390  0.00  0.00    +0.000 OA
ATOM     28  O   UNL     1       7.805   6.107  18.684  0.00  0.00    +0.000 OA
BRANCH  26  29
ATOM     29  C   UNL     1       6.470   5.550  16.468  0.00  0.00    +0.000 C 
BRANCH  29  31
ATOM     30  C   UNL     1       6.047   3.906  14.587  0.00  0.00    +0.000 C 
ATOM     31  C   UNL     1       6.994   4.944  15.168  0.00  0.00    +0.000 C 
ENDBRANCH  29  31
ENDBRANCH  26  29
ENDBRANCH  24  26
ENDBRANCH   1  24
TORSDOF 7
ENDMDL
MODEL 6
REMARK VINA RESULT:      -8.1      1.694      2.131
REMARK  Name = 
REMARK  9 active torsions:
REMARK  status: ('A' for Active; 'I' for Inactive)
REMARK    1  A    between atoms: C_1  and  C_2
REMARK    2  A    between atoms: C_2  and  C_3
REMARK    3  A    between atoms: C_3  and  S_4
REMARK    4  A    between atoms: S_4  and  N_7
REMARK    5  A    between atoms: N_7  and  C_8
REMARK    6  A    between atoms: C_13  and  C_14
REMARK    7  A    between atoms: N_16  and  C_17
REMARK    8  A    between atoms: C_22  and  O_23
REMARK    9  A    between atoms: O_23  and  C_24
REMARK                            x       y       z     vdW  Elec       q    Type
REMARK                         _______ _______ _______ _____ _____    ______ ____
ROOT
ATOM      1  C   UNL     1       4.613   4.747  18.056  0.00  0.00    +0.000 A 
ATOM      2  C   UNL     1       4.388   3.617  18.837  0.00  0.00    +0.000 A 
ATOM      3  C   UNL     1       3.489   3.689  19.902  0.00  0.00    +0.000 A 
ATOM      4  C   UNL     1       2.804   4.880  20.170  0.00  0.00    +0.000 A 
ATOM      5  F   UNL     1       1.968   4.898  21.219  0.00  0.00    +0.000 F 
ATOM      6  C   UNL     1       2.988   6.017  19.384  0.00  0.00    +0.000 A 
ATOM      7  C   UNL     1       3.900   5.929  18.317  0.00  0.00    +0.000 A 
ATOM      8  F   UNL     1       4.156   6.983  17.525  0.00  0.00    +0.000 F 
ENDROOT
BRANCH   6   9
ATOM      9  C   UNL     1       2.275   7.304  19.644  0.00  0.00    +0.000 C 
ATOM     10  O   UNL     1       2.260   8.140  18.749  0.00  0.00    +0.000 OA
ATOM     11  N   UNL     1       1.683   7.505  20.890  0.00  0.00    +0.000 N 
ATOM     12  H   UNL     1       1.780   6.764  21.579  0.00  0.00    +0.000 HD
BRANCH  11  13
ATOM     13  C   UNL     1       0.992   8.635  21.304  0.00  0.00    +0.000 A 
ATOM     14  C   UNL     1       0.958   9.129  22.733  0.00  0.00    +0.000 A 
ATOM     15  N   UNL     1       0.312  10.165  23.186  0.00  0.00    +0.000 NA
ATOM     16  C   UNL     1      -0.405  10.868  22.267  0.00  0.00    +0.000 A 
ATOM     17  C   UNL     1      -1.204  11.975  22.401  0.00  0.00    +0.000 A 
ATOM     18  C   UNL     1      -1.677  12.225  21.107  0.00  0.00    +0.000 A 
ATOM     19  N   UNL     1      -1.213  11.365  20.200  0.00  0.00    +0.000 NA
ATOM     20  N   UNL     1      -0.430  10.516  20.916  0.00  0.00    +0.000 N 
ATOM     21  C   UNL     1       0.279   9.401  20.457  0.00  0.00    +0.000 A 
BRANCH  18  22
ATOM     22  O   UNL     1      -2.514  13.177  20.639  0.00  0.00    +0.000 OA
ATOM     23  C   UNL     1      -3.280  13.815  21.654  0.00  0.00    +0.000 C 
ENDBRANCH  18  22
ENDBRANCH  11  13
ENDBRANCH   6   9
BRANCH   1  24
ATOM     24  N   UNL     1       5.542   4.677  16.958  0.00  0.00    +0.000 N 
ATOM     25  H   UNL     1       5.546   3.743  16.528  0.00  0.00    +0.000 HD
BRANCH  24  26
ATOM     26  S   UNL     1       7.174   4.997  17.343  0.00  0.00    +0.000 S 
ATOM     27  O   UNL     1       7.941   4.378  16.286  0.00  0.00    +0.000 OA
ATOM     28  O   UNL     1       7.404   4.698  18.741  0.00  0.00    +0.000 OA
BRANCH  26  29
ATOM     29  C   UNL     1       7.246   6.779  17.115  0.00  0.00    +0.000 C 
BRANCH  29  31
ATOM     30  C   UNL     1       8.272   8.919  18.006  0.00  0.00    +0.000 C 
ATOM     31  C   UNL     1       8.024   7.439  18.253  0.00  0.00    +0.000 C 
ENDBRANCH  29  31
ENDBRANCH  26  29
ENDBRANCH  24  26
ENDBRANCH   1  24
TORSDOF 7
ENDMDL
MODEL 7
REMARK VINA RESULT:      -8.1      1.851      2.542
REMARK  Name = 
REMARK  9 active torsions:
REMARK  status: ('A' for Active; 'I' for Inactive)
REMARK    1  A    between atoms: C_1  and  C_2
REMARK    2  A    between atoms: C_2  and  C_3
REMARK    3  A    between atoms: C_3  and  S_4
REMARK    4  A    between atoms: S_4  and  N_7
REMARK    5  A    between atoms: N_7  and  C_8
REMARK    6  A    between atoms: C_13  and  C_14
REMARK    7  A    between atoms: N_16  and  C_17
REMARK    8  A    between atoms: C_22  and  O_23
REMARK    9  A    between atoms: O_23  and  C_24
REMARK                            x       y       z     vdW  Elec       q    Type
REMARK                         _______ _______ _______ _____ _____    ______ ____
ROOT
ATOM      1  C   UNL     1       4.738   3.926  18.297  0.00  0.00    +0.000 A 
ATOM      2  C   UNL     1       4.008   3.043  17.508  0.00  0.00    +0.000 A 
ATOM      3  C   UNL     1       2.614   3.117  17.508  0.00  0.00    +0.000 A 
ATOM      4  C   UNL     1       1.958   4.083  18.279  0.00  0.00    +0.000 A 
ATOM      5  F   UNL     1       0.616   4.095  18.256  0.00  0.00    +0.000 F 
ATOM      6  C   UNL     1       2.667   5.000  19.054  0.00  0.00    +0.000 A 
ATOM      7  C   UNL     1       4.070   4.909  19.046  0.00  0.00    +0.000 A 
ATOM      8  F   UNL     1       4.829   5.736  19.783  0.00  0.00    +0.000 F 
ENDROOT
BRANCH   6   9
ATOM      9  C   UNL     1       1.997   6.040  19.890  0.00  0.00    +0.000 C 
ATOM     10  O   UNL     1       1.362   5.666  20.869  0.00  0.00    +0.000 OA
ATOM     11  N   UNL     1       2.103   7.378  19.514  0.00  0.00    +0.000 N 
ATOM     12  H   UNL     1       2.624   7.585  18.665  0.00  0.00    +0.000 HD
BRANCH  11  13
ATOM     13  C   UNL     1       1.543   8.468  20.166  0.00  0.00    +0.000 A 
ATOM     14  C   UNL     1       1.394   8.570  21.667  0.00  0.00    +0.000 A 
ATOM     15  N   UNL     1       0.858   9.552  22.334  0.00  0.00    +0.000 NA
ATOM     16  C   UNL     1       0.385  10.588  21.589  0.00  0.00    +0.000 A 
ATOM     17  C   UNL     1      -0.246  11.749  21.957  0.00  0.00    +0.000 A 
ATOM     18  C   UNL     1      -0.499  12.410  20.748  0.00  0.00    +0.000 A 
ATOM     19  N   UNL     1      -0.054  11.746  19.681  0.00  0.00    +0.000 NA
ATOM     20  N   UNL     1       0.488  10.611  20.196  0.00  0.00    +0.000 N 
ATOM     21  C   UNL     1       1.074   9.545  19.508  0.00  0.00    +0.000 A 
BRANCH  18  22
ATOM     22  O   UNL     1      -1.111  13.587  20.493  0.00  0.00    +0.000 OA
ATOM     23  C   UNL     1      -0.654  14.225  19.306  0.00  0.00    +0.000 C 
ENDBRANCH  18  22
ENDBRANCH  11  13
ENDBRANCH   6   9
BRANCH   1  24
ATOM     24  N   UNL     1       6.177   3.851  18.302  0.00  0.00    +0.000 N 
ATOM     25  H   UNL     1       6.574   4.299  19.138  0.00  0.00    +0.000 HD
BRANCH  24  26
ATOM     26  S   UNL     1       6.965   4.591  16.982  0.00  0.00    +0.000 S 
ATOM     27  O   UNL     1       8.362   4.256  17.137  0.00  0.00    +0.000 OA
ATOM     28  O   UNL     1       6.509   5.960  16.858  0.00  0.00    +0.000 OA
BRANCH  26  29
ATOM     29  C   UNL     1       6.312   3.639  15.603  0.00  0.00    +0.000 C 
BRANCH  29  31
ATOM     30  C   UNL     1       6.046   3.740  13.085  0.00  0.00    +0.000 C 
ATOM     31  C   UNL     1       6.099   4.532  14.382  0.00  0.00    +0.000 C 
ENDBRANCH  29  31
ENDBRANCH  26  29
ENDBRANCH  24  26
ENDBRANCH   1  24
TORSDOF 7
ENDMDL
MODEL 8
REMARK VINA RESULT:      -8.0      1.330      1.494
REMARK  Name = 
REMARK  9 active torsions:
REMARK  status: ('A' for Active; 'I' for Inactive)
REMARK    1  A    between atoms: C_1  and  C_2
REMARK    2  A    between atoms: C_2  and  C_3
REMARK    3  A    between atoms: C_3  and  S_4
REMARK    4  A    between atoms: S_4  and  N_7
REMARK    5  A    between atoms: N_7  and  C_8
REMARK    6  A    between atoms: C_13  and  C_14
REMARK    7  A    between atoms: N_16  and  C_17
REMARK    8  A    between atoms: C_22  and  O_23
REMARK    9  A    between atoms: O_23  and  C_24
REMARK                            x       y       z     vdW  Elec       q    Type
REMARK                         _______ _______ _______ _____ _____    ______ ____
ROOT
ATOM      1  C   UNL     1       4.929   4.021  18.407  0.00  0.00    +0.000 A 
ATOM      2  C   UNL     1       4.322   3.172  17.488  0.00  0.00    +0.000 A 
ATOM      3  C   UNL     1       2.972   3.348  17.181  0.00  0.00    +0.000 A 
ATOM      4  C   UNL     1       2.241   4.382  17.776  0.00  0.00    +0.000 A 
ATOM      5  F   UNL     1       0.941   4.491  17.459  0.00  0.00    +0.000 F 
ATOM      6  C   UNL     1       2.833   5.267  18.676  0.00  0.00    +0.000 A 
ATOM      7  C   UNL     1       4.192   5.073  18.978  0.00  0.00    +0.000 A 
ATOM      8  F   UNL     1       4.835   5.863  19.854  0.00  0.00    +0.000 F 
ENDROOT
BRANCH   6   9
ATOM      9  C   UNL     1       2.080   6.378  19.331  0.00  0.00    +0.000 C 
ATOM     10  O   UNL     1       1.440   6.116  20.343  0.00  0.00    +0.000 OA
ATOM     11  N   UNL     1       2.120   7.648  18.758  0.00  0.00    +0.000 N 
ATOM     12  H   UNL     1       2.652   7.757  17.898  0.00  0.00    +0.000 HD
BRANCH  11  13
ATOM     13  C   UNL     1       1.479   8.787  19.226  0.00  0.00    +0.000 A 
ATOM     14  C   UNL     1       1.058   9.941  18.344  0.00  0.00    +0.000 A 
ATOM     15  N   UNL     1       0.476  11.042  18.724  0.00  0.00    +0.000 NA
ATOM     16  C   UNL     1       0.228  11.154  20.058  0.00  0.00    +0.000 A 
ATOM     17  C   UNL     1      -0.338  12.167  20.788  0.00  0.00    +0.000 A 
ATOM     18  C   UNL     1      -0.313  11.705  22.110  0.00  0.00    +0.000 A 
ATOM     19  N   UNL     1       0.210  10.485  22.232  0.00  0.00    +0.000 NA
ATOM     20  N   UNL     1       0.554  10.141  20.963  0.00  0.00    +0.000 N 
ATOM     21  C   UNL     1       1.173   8.966  20.524  0.00  0.00    +0.000 A 
BRANCH  18  22
ATOM     22  O   UNL     1      -0.721  12.286  23.260  0.00  0.00    +0.000 OA
ATOM     23  C   UNL     1      -1.790  13.209  23.086  0.00  0.00    +0.000 C 
ENDBRANCH  18  22
ENDBRANCH  11  13
ENDBRANCH   6   9
BRANCH   1  24
ATOM     24  N   UNL     1       6.322   3.841  18.729  0.00  0.00    +0.000 N 
ATOM     25  H   UNL     1       6.519   4.104  19.703  0.00  0.00    +0.000 HD
BRANCH  24  26
ATOM     26  S   UNL     1       7.425   4.743  17.791  0.00  0.00    +0.000 S 
ATOM     27  O   UNL     1       8.665   4.002  17.846  0.00  0.00    +0.000 OA
ATOM     28  O   UNL     1       7.343   6.140  18.165  0.00  0.00    +0.000 OA
BRANCH  26  29
ATOM     29  C   UNL     1       6.730   4.546  16.144  0.00  0.00    +0.000 C 
BRANCH  29  31
ATOM     30  C   UNL     1       5.177   6.489  15.655  0.00  0.00    +0.000 C 
ATOM     31  C   UNL     1       6.567   5.902  15.460  0.00  0.00    +0.000 C 
ENDBRANCH  29  31
ENDBRANCH  26  29
ENDBRANCH  24  26
ENDBRANCH   1  24
TORSDOF 7
ENDMDL
MODEL 9
REMARK VINA RESULT:      -8.0      1.546      1.718
REMARK  Name = 
REMARK  9 active torsions:
REMARK  status: ('A' for Active; 'I' for Inactive)
REMARK    1  A    between atoms: C_1  and  C_2
REMARK    2  A    between atoms: C_2  and  C_3
REMARK    3  A    between atoms: C_3  and  S_4
REMARK    4  A    between atoms: S_4  and  N_7
REMARK    5  A    between atoms: N_7  and  C_8
REMARK    6  A    between atoms: C_13  and  C_14
REMARK    7  A    between atoms: N_16  and  C_17
REMARK    8  A    between atoms: C_22  and  O_23
REMARK    9  A    between atoms: O_23  and  C_24
REMARK                            x       y       z     vdW  Elec       q    Type
REMARK                         _______ _______ _______ _____ _____    ______ ____
ROOT
ATOM      1  C   UNL     1       4.472   4.910  18.084  0.00  0.00    +0.000 A 
ATOM      2  C   UNL     1       4.017   3.834  18.839  0.00  0.00    +0.000 A 
ATOM      3  C   UNL     1       2.922   4.007  19.688  0.00  0.00    +0.000 A 
ATOM      4  C   UNL     1       2.276   5.246  19.763  0.00  0.00    +0.000 A 
ATOM      5  F   UNL     1       1.242   5.361  20.611  0.00  0.00    +0.000 F 
ATOM      6  C   UNL     1       2.692   6.332  18.994  0.00  0.00    +0.000 A 
ATOM      7  C   UNL     1       3.799   6.142  18.147  0.00  0.00    +0.000 A 
ATOM      8  F   UNL     1       4.282   7.140  17.390  0.00  0.00    +0.000 F 
ENDROOT
BRANCH   6   9
ATOM      9  C   UNL     1       2.026   7.668  19.053  0.00  0.00    +0.000 C 
ATOM     10  O   UNL     1       1.795   8.238  17.994  0.00  0.00    +0.000 OA
ATOM     11  N   UNL     1       1.719   8.212  20.299  0.00  0.00    +0.000 N 
ATOM     12  H   UNL     1       1.983   7.676  21.122  0.00  0.00    +0.000 HD
BRANCH  11  13
ATOM     13  C   UNL     1       1.111   9.436  20.539  0.00  0.00    +0.000 A 
ATOM     14  C   UNL     1       1.126  10.592  19.566  0.00  0.00    +0.000 A 
ATOM     15  N   UNL     1       0.596  11.769  19.742  0.00  0.00    +0.000 NA
ATOM     16  C   UNL     1      -0.034  11.966  20.933  0.00  0.00    +0.000 A 
ATOM     17  C   UNL     1      -0.667  13.068  21.447  0.00  0.00    +0.000 A 
ATOM     18  C   UNL     1      -1.104  12.662  22.714  0.00  0.00    +0.000 A 
ATOM     19  N   UNL     1      -0.799  11.396  22.997  0.00  0.00    +0.000 NA
ATOM     20  N   UNL     1      -0.127  10.961  21.899  0.00  0.00    +0.000 N 
ATOM     21  C   UNL     1       0.446   9.705  21.679  0.00  0.00    +0.000 A 
BRANCH  18  22
ATOM     22  O   UNL     1      -1.771  13.335  23.678  0.00  0.00    +0.000 OA
ATOM     23  C   UNL     1      -1.214  14.610  23.976  0.00  0.00    +0.000 C 
ENDBRANCH  18  22
ENDBRANCH  11  13
ENDBRANCH   6   9
BRANCH   1  24
ATOM     24  N   UNL     1       5.603   4.736  17.209  0.00  0.00    +0.000 N 
ATOM     25  H   UNL     1       5.681   3.763  16.885  0.00  0.00    +0.000 HD
BRANCH  24  26
ATOM     26  S   UNL     1       7.127   5.104  17.882  0.00  0.00    +0.000 S 
ATOM     27  O   UNL     1       8.071   4.286  17.154  0.00  0.00    +0.000 OA
ATOM     28  O   UNL     1       7.033   5.074  19.327  0.00  0.00    +0.000 OA
BRANCH  26  29
ATOM     29  C   UNL     1       7.343   6.810  17.354  0.00  0.00    +0.000 C 
BRANCH  29  31
ATOM     30  C   UNL     1       8.298   9.064  18.009  0.00  0.00    +0.000 C 
ATOM     31  C   UNL     1       8.151   7.597  18.384  0.00  0.00    +0.000 C 
ENDBRANCH  29  31
ENDBRANCH  26  29
ENDBRANCH  24  26
ENDBRANCH   1  24
TORSDOF 7
ENDMDL
