MODEL 1
REMARK VINA RESULT:      -9.0      0.000      0.000
REMARK  Name = 
REMARK  7 active torsions:
REMARK  status: ('A' for Active; 'I' for Inactive)
REMARK    1  A    between atoms: C_2  and  C_12
REMARK    2  A    between atoms: N_3  and  C_4
REMARK    3  A    between atoms: C_12  and  N_13
REMARK    4  A    between atoms: C_12  and  C_26
REMARK    5  A    between atoms: N_13  and  C_14
REMARK    6  A    between atoms: C_14  and  C_15
REMARK    7  A    between atoms: C_15  and  C_16
REMARK                            x       y       z     vdW  Elec       q    Type
REMARK                         _______ _______ _______ _____ _____    ______ ____
ROOT
ATOM      1  C   UNL     1       1.987   6.462  19.608  0.00  0.00    +0.000 C 
ENDROOT
BRANCH   1   2
ATOM      2  C   UNL     1       1.782   5.044  20.139  0.00  0.00    +0.000 A 
ATOM      3  C   UNL     1       2.374   4.661  21.353  0.00  0.00    +0.000 A 
ATOM      4  C   UNL     1       2.198   3.369  21.858  0.00  0.00    +0.000 A 
ATOM      5  C   UNL     1       1.440   2.438  21.152  0.00  0.00    +0.000 A 
ATOM      6  C   UNL     1       0.865   2.792  19.936  0.00  0.00    +0.000 A 
ATOM      7  C   UNL     1       1.036   4.081  19.430  0.00  0.00    +0.000 A 
ENDBRANCH   1   2
BRANCH   1   9
ATOM      8  O   UNL     1       3.029   7.627  17.739  0.00  0.00    +0.000 OA
ATOM      9  C   UNL     1       3.008   6.609  18.435  0.00  0.00    +0.000 C 
ATOM     10  N   UNL     1       3.796   5.495  18.210  0.00  0.00    +0.000 N 
ATOM     11  H   UNL     1       3.556   4.639  18.704  0.00  0.00    +0.000 HD
BRANCH  10  12
ATOM     12  C   UNL     1       4.881   5.388  17.316  0.00  0.00    +0.000 A 
ATOM     13  C   UNL     1       6.029   6.181  17.381  0.00  0.00    +0.000 A 
ATOM     14  C   UNL     1       7.050   6.009  16.440  0.00  0.00    +0.000 A 
ATOM     15  C   UNL     1       6.919   5.049  15.443  0.00  0.00    +0.000 A 
ATOM     16  F   UNL     1       7.892   4.905  14.535  0.00  0.00    +0.000 F 
ATOM     17  C   UNL     1       5.798   4.234  15.375  0.00  0.00    +0.000 A 
ATOM     18  C   UNL     1       4.794   4.406  16.318  0.00  0.00    +0.000 A 
ATOM     19  F   UNL     1       3.707   3.620  16.263  0.00  0.00    +0.000 F 
ENDBRANCH  10  12
ENDBRANCH   1   9
BRANCH   1  20
ATOM     20  N   UNL     1       2.282   7.457  20.680  0.00  0.00    +0.000 NA
ATOM     21  H   UNL     1       2.340   6.924  21.552  0.00  0.00    +0.000 HD
BRANCH  20  22
ATOM     22  C   UNL     1       1.203   8.442  20.836  0.00  0.00    +0.000 C 
BRANCH  22  23
ATOM     23  C   UNL     1       1.015   9.320  19.594  0.00  0.00    +0.000 C 
BRANCH  23  24
ATOM     24  C   UNL     1      -0.050  10.366  19.878  0.00  0.00    +0.000 A 
ATOM     25  C   UNL     1      -0.017  11.011  21.127  0.00  0.00    +0.000 A 
ATOM     26  C   UNL     1      -1.009  11.916  21.485  0.00  0.00    +0.000 A 
ATOM     27  C   UNL     1      -2.051  12.189  20.603  0.00  0.00    +0.000 A 
ATOM     28  C   UNL     1      -2.119  11.560  19.351  0.00  0.00    +0.000 A 
ATOM     29  C   UNL     1      -3.185  11.841  18.480  0.00  0.00    +0.000 A 
ATOM     30  C   UNL     1      -3.281  11.219  17.236  0.00  0.00    +0.000 A 
ATOM     31  C   UNL     1      -2.313  10.301  16.851  0.00  0.00    +0.000 A 
ATOM     32  C   UNL     1      -1.249  10.011  17.706  0.00  0.00    +0.000 A 
ATOM     33  C   UNL     1      -1.117  10.632  18.970  0.00  0.00    +0.000 A 
ENDBRANCH  23  24
ENDBRANCH  22  23
ENDBRANCH  20  22
ENDBRANCH   1  20
TORSDOF 7
ENDMDL
MODEL 2
REMARK VINA RESULT:      -8.9      4.455      8.754
REMARK  Name = 
REMARK  7 active torsions:
REMARK  status: ('A' for Active; 'I' for Inactive)
REMARK    1  A    between atoms: C_2  and  C_12
REMARK    2  A    between atoms: N_3  and  C_4
REMARK    3  A    between atoms: C_12  and  N_13
REMARK    4  A    between atoms: C_12  and  C_26
REMARK    5  A    between atoms: N_13  and  C_14
REMARK    6  A    between atoms: C_14  and  C_15
REMARK    7  A    between atoms: C_15  and  C_16
REMARK                            x       y       z     vdW  Elec       q    Type
REMARK                         _______ _______ _______ _____ _____    ______ ____
ROOT
ATOM      1  C   UNL     1       0.027  10.295  18.617  0.00  0.00    +0.000 C 
ENDROOT
BRANCH   1   2
ATOM      2  C   UNL     1      -1.404  10.529  18.137  0.00  0.00    +0.000 A 
ATOM      3  C   UNL     1      -2.248  11.394  18.852  0.00  0.00    +0.000 A 
ATOM      4  C   UNL     1      -3.560  11.624  18.430  0.00  0.00    +0.000 A 
ATOM      5  C   UNL     1      -4.054  10.983  17.295  0.00  0.00    +0.000 A 
ATOM      6  C   UNL     1      -3.240  10.105  16.587  0.00  0.00    +0.000 A 
ATOM      7  C   UNL     1      -1.929   9.875  17.004  0.00  0.00    +0.000 A 
ENDBRANCH   1   2
BRANCH   1   9
ATOM      8  O   UNL     1       1.003  11.634  20.404  0.00  0.00    +0.000 OA
ATOM      9  C   UNL     1       0.763  11.544  19.197  0.00  0.00    +0.000 C 
ATOM     10  N   UNL     1       1.032  12.539  18.274  0.00  0.00    +0.000 N 
ATOM     11  H   UNL     1       0.609  12.455  17.353  0.00  0.00    +0.000 HD
BRANCH  10  12
ATOM     12  C   UNL     1       1.793  13.708  18.481  0.00  0.00    +0.000 A 
ATOM     13  C   UNL     1       3.181  13.772  18.340  0.00  0.00    +0.000 A 
ATOM     14  C   UNL     1       3.851  14.977  18.580  0.00  0.00    +0.000 A 
ATOM     15  C   UNL     1       3.134  16.107  18.955  0.00  0.00    +0.000 A 
ATOM     16  F   UNL     1       3.786  17.250  19.201  0.00  0.00    +0.000 F 
ATOM     17  C   UNL     1       1.752  16.071  19.077  0.00  0.00    +0.000 A 
ATOM     18  C   UNL     1       1.095  14.874  18.830  0.00  0.00    +0.000 A 
ATOM     19  F   UNL     1      -0.242  14.829  18.941  0.00  0.00    +0.000 F 
ENDBRANCH  10  12
ENDBRANCH   1   9
BRANCH   1  20
ATOM     20  N   UNL     1       0.886   9.611  17.606  0.00  0.00    +0.000 NA
ATOM     21  H   UNL     1       0.356   8.794  17.292  0.00  0.00    +0.000 HD
BRANCH  20  22
ATOM     22  C   UNL     1       2.146   9.124  18.185  0.00  0.00    +0.000 C 
BRANCH  22  23
ATOM     23  C   UNL     1       1.935   7.993  19.198  0.00  0.00    +0.000 C 
BRANCH  23  24
ATOM     24  C   UNL     1       2.728   6.773  18.757  0.00  0.00    +0.000 A 
ATOM     25  C   UNL     1       3.630   6.930  17.690  0.00  0.00    +0.000 A 
ATOM     26  C   UNL     1       4.324   5.839  17.181  0.00  0.00    +0.000 A 
ATOM     27  C   UNL     1       4.127   4.575  17.727  0.00  0.00    +0.000 A 
ATOM     28  C   UNL     1       3.230   4.380  18.789  0.00  0.00    +0.000 A 
ATOM     29  C   UNL     1       3.037   3.094  19.320  0.00  0.00    +0.000 A 
ATOM     30  C   UNL     1       2.143   2.874  20.365  0.00  0.00    +0.000 A 
ATOM     31  C   UNL     1       1.424   3.939  20.891  0.00  0.00    +0.000 A 
ATOM     32  C   UNL     1       1.605   5.223  20.373  0.00  0.00    +0.000 A 
ATOM     33  C   UNL     1       2.512   5.481  19.319  0.00  0.00    +0.000 A 
ENDBRANCH  23  24
ENDBRANCH  22  23
ENDBRANCH  20  22
ENDBRANCH   1  20
TORSDOF 7
ENDMDL
MODEL 3
REMARK VINA RESULT:      -8.8      4.271      8.716
REMARK  Name = 
REMARK  7 active torsions:
REMARK  status: ('A' for Active; 'I' for Inactive)
REMARK    1  A    between atoms: C_2  and  C_12
REMARK    2  A    between atoms: N_3  and  C_4
REMARK    3  A    between atoms: C_12  and  N_13
REMARK    4  A    between atoms: C_12  and  C_26
REMARK    5  A    between atoms: N_13  and  C_14
REMARK    6  A    between atoms: C_14  and  C_15
REMARK    7  A    between atoms: C_15  and  C_16
REMARK                            x       y       z     vdW  Elec       q    Type
REMARK                         _______ _______ _______ _____ _____    ______ ____
ROOT
ATOM      1  C   UNL     1       0.130  10.376  18.597  0.00  0.00    +0.000 C 
ENDROOT
BRANCH   1   2
ATOM      2  C   UNL     1      -1.341  10.539  18.218  0.00  0.00    +0.000 A 
ATOM      3  C   UNL     1      -1.858   9.844  17.113  0.00  0.00    +0.000 A 
ATOM      4  C   UNL     1      -3.201   9.977  16.748  0.00  0.00    +0.000 A 
ATOM      5  C   UNL     1      -4.045  10.815  17.475  0.00  0.00    +0.000 A 
ATOM      6  C   UNL     1      -3.545  11.528  18.559  0.00  0.00    +0.000 A 
ATOM      7  C   UNL     1      -2.206  11.397  18.927  0.00  0.00    +0.000 A 
ENDBRANCH   1   2
BRANCH   1   9
ATOM      8  O   UNL     1       1.084  11.737  20.380  0.00  0.00    +0.000 OA
ATOM      9  C   UNL     1       0.828  11.648  19.176  0.00  0.00    +0.000 C 
ATOM     10  N   UNL     1       1.045  12.659  18.258  0.00  0.00    +0.000 N 
ATOM     11  H   UNL     1       0.610  12.567  17.343  0.00  0.00    +0.000 HD
BRANCH  10  12
ATOM     12  C   UNL     1       1.765  13.853  18.463  0.00  0.00    +0.000 A 
ATOM     13  C   UNL     1       1.182  15.061  18.855  0.00  0.00    +0.000 A 
ATOM     14  C   UNL     1       1.978  16.199  19.022  0.00  0.00    +0.000 A 
ATOM     15  C   UNL     1       3.348  16.125  18.799  0.00  0.00    +0.000 A 
ATOM     16  F   UNL     1       4.099  17.224  18.941  0.00  0.00    +0.000 F 
ATOM     17  C   UNL     1       3.952  14.930  18.433  0.00  0.00    +0.000 A 
ATOM     18  C   UNL     1       3.155  13.805  18.277  0.00  0.00    +0.000 A 
ATOM     19  F   UNL     1       3.729  12.643  17.927  0.00  0.00    +0.000 F 
ENDBRANCH  10  12
ENDBRANCH   1   9
BRANCH   1  20
ATOM     20  N   UNL     1       0.959   9.781  17.508  0.00  0.00    +0.000 NA
ATOM     21  H   UNL     1       0.380   9.052  17.080  0.00  0.00    +0.000 HD
BRANCH  20  22
ATOM     22  C   UNL     1       2.172   9.133  18.026  0.00  0.00    +0.000 C 
BRANCH  22  23
ATOM     23  C   UNL     1       1.923   7.698  18.504  0.00  0.00    +0.000 C 
BRANCH  23  24
ATOM     24  C   UNL     1       2.982   6.783  17.913  0.00  0.00    +0.000 A 
ATOM     25  C   UNL     1       4.093   7.383  17.293  0.00  0.00    +0.000 A 
ATOM     26  C   UNL     1       5.056   6.608  16.659  0.00  0.00    +0.000 A 
ATOM     27  C   UNL     1       4.924   5.223  16.630  0.00  0.00    +0.000 A 
ATOM     28  C   UNL     1       3.826   4.591  17.233  0.00  0.00    +0.000 A 
ATOM     29  C   UNL     1       3.706   3.192  17.183  0.00  0.00    +0.000 A 
ATOM     30  C   UNL     1       2.617   2.543  17.763  0.00  0.00    +0.000 A 
ATOM     31  C   UNL     1       1.631   3.286  18.396  0.00  0.00    +0.000 A 
ATOM     32  C   UNL     1       1.736   4.677  18.452  0.00  0.00    +0.000 A 
ATOM     33  C   UNL     1       2.833   5.366  17.882  0.00  0.00    +0.000 A 
ENDBRANCH  23  24
ENDBRANCH  22  23
ENDBRANCH  20  22
ENDBRANCH   1  20
TORSDOF 7
ENDMDL
MODEL 4
REMARK VINA RESULT:      -8.8      0.839      1.193
REMARK  Name = 
REMARK  7 active torsions:
REMARK  status: ('A' for Active; 'I' for Inactive)
REMARK    1  A    between atoms: C_2  and  C_12
REMARK    2  A    between atoms: N_3  and  C_4
REMARK    3  A    between atoms: C_12  and  N_13
REMARK    4  A    between atoms: C_12  and  C_26
REMARK    5  A    between atoms: N_13  and  C_14
REMARK    6  A    between atoms: C_14  and  C_15
REMARK    7  A    between atoms: C_15  and  C_16
REMARK                            x       y       z     vdW  Elec       q    Type
REMARK                         _______ _______ _______ _____ _____    ______ ____
ROOT
ATOM      1  C   UNL     1       2.083   6.371  19.417  0.00  0.00    +0.000 C 
ENDROOT
BRANCH   1   2
ATOM      2  C   UNL     1       1.853   4.965  19.966  0.00  0.00    +0.000 A 
ATOM      3  C   UNL     1       2.368   4.614  21.225  0.00  0.00    +0.000 A 
ATOM      4  C   UNL     1       2.168   3.333  21.748  0.00  0.00    +0.000 A 
ATOM      5  C   UNL     1       1.462   2.380  21.017  0.00  0.00    +0.000 A 
ATOM      6  C   UNL     1       0.964   2.702  19.759  0.00  0.00    +0.000 A 
ATOM      7  C   UNL     1       1.160   3.980  19.235  0.00  0.00    +0.000 A 
ENDBRANCH   1   2
BRANCH   1   9
ATOM      8  O   UNL     1       3.100   7.502  17.513  0.00  0.00    +0.000 OA
ATOM      9  C   UNL     1       3.049   6.475  18.194  0.00  0.00    +0.000 C 
ATOM     10  N   UNL     1       3.752   5.318  17.911  0.00  0.00    +0.000 N 
ATOM     11  H   UNL     1       3.482   4.470  18.404  0.00  0.00    +0.000 HD
BRANCH  10  12
ATOM     12  C   UNL     1       4.779   5.159  16.959  0.00  0.00    +0.000 A 
ATOM     13  C   UNL     1       4.624   4.484  15.746  0.00  0.00    +0.000 A 
ATOM     14  C   UNL     1       5.708   4.367  14.869  0.00  0.00    +0.000 A 
ATOM     15  C   UNL     1       6.937   4.923  15.207  0.00  0.00    +0.000 A 
ATOM     16  F   UNL     1       7.973   4.788  14.371  0.00  0.00    +0.000 F 
ATOM     17  C   UNL     1       7.106   5.619  16.396  0.00  0.00    +0.000 A 
ATOM     18  C   UNL     1       6.023   5.737  17.256  0.00  0.00    +0.000 A 
ATOM     19  F   UNL     1       6.175   6.411  18.407  0.00  0.00    +0.000 F 
ENDBRANCH  10  12
ENDBRANCH   1   9
BRANCH   1  20
ATOM     20  N   UNL     1       2.467   7.361  20.466  0.00  0.00    +0.000 NA
ATOM     21  H   UNL     1       2.616   6.820  21.322  0.00  0.00    +0.000 HD
BRANCH  20  22
ATOM     22  C   UNL     1       1.393   8.327  20.737  0.00  0.00    +0.000 C 
BRANCH  22  23
ATOM     23  C   UNL     1       1.111   9.252  19.548  0.00  0.00    +0.000 C 
BRANCH  23  24
ATOM     24  C   UNL     1       0.114  10.319  19.969  0.00  0.00    +0.000 A 
ATOM     25  C   UNL     1       0.273  10.895  21.242  0.00  0.00    +0.000 A 
ATOM     26  C   UNL     1      -0.651  11.815  21.725  0.00  0.00    +0.000 A 
ATOM     27  C   UNL     1      -1.748  12.170  20.946  0.00  0.00    +0.000 A 
ATOM     28  C   UNL     1      -1.941  11.610  19.674  0.00  0.00    +0.000 A 
ATOM     29  C   UNL     1      -3.062  11.973  18.908  0.00  0.00    +0.000 A 
ATOM     30  C   UNL     1      -3.282  11.420  17.648  0.00  0.00    +0.000 A 
ATOM     31  C   UNL     1      -2.385  10.491  17.139  0.00  0.00    +0.000 A 
ATOM     32  C   UNL     1      -1.268  10.119  17.889  0.00  0.00    +0.000 A 
ATOM     33  C   UNL     1      -1.010  10.669  19.167  0.00  0.00    +0.000 A 
ENDBRANCH  23  24
ENDBRANCH  22  23
ENDBRANCH  20  22
ENDBRANCH   1  20
TORSDOF 7
ENDMDL
MODEL 5
REMARK VINA RESULT:      -8.8      4.142      8.762
REMARK  Name = 
REMARK  7 active torsions:
REMARK  status: ('A' for Active; 'I' for Inactive)
REMARK    1  A    between atoms: C_2  and  C_12
REMARK    2  A    between atoms: N_3  and  C_4
REMARK    3  A    between atoms: C_12  and  N_13
REMARK    4  A    between atoms: C_12  and  C_26
REMARK    5  A    between atoms: N_13  and  C_14
REMARK    6  A    between atoms: C_14  and  C_15
REMARK    7  A    between atoms: C_15  and  C_16
REMARK                            x       y       z     vdW  Elec       q    Type
REMARK                         _______ _______ _______ _____ _____    ______ ____
ROOT
ATOM      1  C   UNL     1      -0.597  10.352  18.566  0.00  0.00    +0.000 C 
ENDROOT
BRANCH   1   2
ATOM      2  C   UNL     1      -1.915  10.599  17.834  0.00  0.00    +0.000 A 
ATOM      3  C   UNL     1      -2.924  11.358  18.449  0.00  0.00    +0.000 A 
ATOM      4  C   UNL     1      -4.137  11.598  17.798  0.00  0.00    +0.000 A 
ATOM      5  C   UNL     1      -4.365  11.074  16.527  0.00  0.00    +0.000 A 
ATOM      6  C   UNL     1      -3.386  10.302  15.911  0.00  0.00    +0.000 A 
ATOM      7  C   UNL     1      -2.174  10.061  16.557  0.00  0.00    +0.000 A 
ENDBRANCH   1   2
BRANCH   1   9
ATOM      8  O   UNL     1       0.173  11.773  20.389  0.00  0.00    +0.000 OA
ATOM      9  C   UNL     1       0.095  11.616  19.168  0.00  0.00    +0.000 C 
ATOM     10  N   UNL     1       0.518  12.545  18.235  0.00  0.00    +0.000 N 
ATOM     11  H   UNL     1       0.220  12.415  17.271  0.00  0.00    +0.000 HD
BRANCH  10  12
ATOM     12  C   UNL     1       1.282  13.705  18.476  0.00  0.00    +0.000 A 
ATOM     13  C   UNL     1       0.743  14.922  18.900  0.00  0.00    +0.000 A 
ATOM     14  C   UNL     1       1.581  16.024  19.102  0.00  0.00    +0.000 A 
ATOM     15  C   UNL     1       2.949  15.904  18.881  0.00  0.00    +0.000 A 
ATOM     16  F   UNL     1       3.740  16.970  19.057  0.00  0.00    +0.000 F 
ATOM     17  C   UNL     1       3.508  14.698  18.483  0.00  0.00    +0.000 A 
ATOM     18  C   UNL     1       2.670  13.608  18.293  0.00  0.00    +0.000 A 
ATOM     19  F   UNL     1       3.201  12.436  17.912  0.00  0.00    +0.000 F 
ENDBRANCH  10  12
ENDBRANCH   1   9
BRANCH   1  20
ATOM     20  N   UNL     1       0.382   9.556  17.769  0.00  0.00    +0.000 NA
ATOM     21  H   UNL     1      -0.115   8.709  17.477  0.00  0.00    +0.000 HD
BRANCH  20  22
ATOM     22  C   UNL     1       1.539   9.134  18.571  0.00  0.00    +0.000 C 
BRANCH  22  23
ATOM     23  C   UNL     1       2.659   8.522  17.723  0.00  0.00    +0.000 C 
BRANCH  23  24
ATOM     24  C   UNL     1       2.978   7.131  18.245  0.00  0.00    +0.000 A 
ATOM     25  C   UNL     1       2.353   6.720  19.436  0.00  0.00    +0.000 A 
ATOM     26  C   UNL     1       2.663   5.495  20.014  0.00  0.00    +0.000 A 
ATOM     27  C   UNL     1       3.604   4.663  19.415  0.00  0.00    +0.000 A 
ATOM     28  C   UNL     1       4.252   5.044  18.230  0.00  0.00    +0.000 A 
ATOM     29  C   UNL     1       5.207   4.194  17.646  0.00  0.00    +0.000 A 
ATOM     30  C   UNL     1       5.873   4.556  16.477  0.00  0.00    +0.000 A 
ATOM     31  C   UNL     1       5.596   5.777  15.878  0.00  0.00    +0.000 A 
ATOM     32  C   UNL     1       4.650   6.632  16.447  0.00  0.00    +0.000 A 
ATOM     33  C   UNL     1       3.950   6.290  17.627  0.00  0.00    +0.000 A 
ENDBRANCH  23  24
ENDBRANCH  22  23
ENDBRANCH  20  22
ENDBRANCH   1  20
TORSDOF 7
ENDMDL
MODEL 6
REMARK VINA RESULT:      -8.8      4.595      8.825
REMARK  Name = 
REMARK  7 active torsions:
REMARK  status: ('A' for Active; 'I' for Inactive)
REMARK    1  A    between atoms: C_2  and  C_12
REMARK    2  A    between atoms: N_3  and  C_4
REMARK    3  A    between atoms: C_12  and  N_13
REMARK    4  A    between atoms: C_12  and  C_26
REMARK    5  A    between atoms: N_13  and  C_14
REMARK    6  A    between atoms: C_14  and  C_15
REMARK    7  A    between atoms: C_15  and  C_16
REMARK                            x       y       z     vdW  Elec       q    Type
REMARK                         _______ _______ _______ _____ _____    ______ ____
ROOT
ATOM      1  C   UNL     1       0.599  10.418  18.539  0.00  0.00    +0.000 C 
ENDROOT
BRANCH   1   2
ATOM      2  C   UNL     1      -0.867  10.559  18.133  0.00  0.00    +0.000 A 
ATOM      3  C   UNL     1      -1.718  11.398  18.870  0.00  0.00    +0.000 A 
ATOM      4  C   UNL     1      -3.062  11.544  18.516  0.00  0.00    +0.000 A 
ATOM      5  C   UNL     1      -3.579  10.844  17.428  0.00  0.00    +0.000 A 
ATOM      6  C   UNL     1      -2.757   9.991  16.699  0.00  0.00    +0.000 A 
ATOM      7  C   UNL     1      -1.415   9.845  17.049  0.00  0.00    +0.000 A 
ENDBRANCH   1   2
BRANCH   1   9
ATOM      8  O   UNL     1       1.411  11.901  20.293  0.00  0.00    +0.000 OA
ATOM      9  C   UNL     1       1.283  11.713  19.081  0.00  0.00    +0.000 C 
ATOM     10  N   UNL     1       1.640  12.630  18.109  0.00  0.00    +0.000 N 
ATOM     11  H   UNL     1       1.304  12.470  17.163  0.00  0.00    +0.000 HD
BRANCH  10  12
ATOM     12  C   UNL     1       2.383  13.814  18.290  0.00  0.00    +0.000 A 
ATOM     13  C   UNL     1       3.749  13.930  18.018  0.00  0.00    +0.000 A 
ATOM     14  C   UNL     1       4.404  15.146  18.241  0.00  0.00    +0.000 A 
ATOM     15  C   UNL     1       3.694  16.236  18.731  0.00  0.00    +0.000 A 
ATOM     16  F   UNL     1       4.334  17.390  18.961  0.00  0.00    +0.000 F 
ATOM     17  C   UNL     1       2.332  16.150  18.985  0.00  0.00    +0.000 A 
ATOM     18  C   UNL     1       1.689  14.942  18.753  0.00  0.00    +0.000 A 
ATOM     19  F   UNL     1       0.371  14.850  18.991  0.00  0.00    +0.000 F 
ENDBRANCH  10  12
ENDBRANCH   1   9
BRANCH   1  20
ATOM     20  N   UNL     1       1.446   9.787  17.484  0.00  0.00    +0.000 NA
ATOM     21  H   UNL     1       0.802   9.281  16.870  0.00  0.00    +0.000 HD
BRANCH  20  22
ATOM     22  C   UNL     1       2.386   8.804  18.042  0.00  0.00    +0.000 C 
BRANCH  22  23
ATOM     23  C   UNL     1       1.842   7.372  18.002  0.00  0.00    +0.000 C 
BRANCH  23  24
ATOM     24  C   UNL     1       2.991   6.408  17.753  0.00  0.00    +0.000 A 
ATOM     25  C   UNL     1       4.215   6.947  17.321  0.00  0.00    +0.000 A 
ATOM     26  C   UNL     1       5.281   6.117  16.994  0.00  0.00    +0.000 A 
ATOM     27  C   UNL     1       5.139   4.736  17.091  0.00  0.00    +0.000 A 
ATOM     28  C   UNL     1       3.930   4.163  17.512  0.00  0.00    +0.000 A 
ATOM     29  C   UNL     1       3.804   2.765  17.592  0.00  0.00    +0.000 A 
ATOM     30  C   UNL     1       2.608   2.173  17.996  0.00  0.00    +0.000 A 
ATOM     31  C   UNL     1       1.520   2.972  18.319  0.00  0.00    +0.000 A 
ATOM     32  C   UNL     1       1.630   4.361  18.244  0.00  0.00    +0.000 A 
ATOM     33  C   UNL     1       2.832   4.994  17.847  0.00  0.00    +0.000 A 
ENDBRANCH  23  24
ENDBRANCH  22  23
ENDBRANCH  20  22
ENDBRANCH   1  20
TORSDOF 7
ENDMDL
MODEL 7
REMARK VINA RESULT:      -8.8      0.703      1.311
REMARK  Name = 
REMARK  7 active torsions:
REMARK  status: ('A' for Active; 'I' for Inactive)
REMARK    1  A    between atoms: C_2  and  C_12
REMARK    2  A    between atoms: N_3  and  C_4
REMARK    3  A    between atoms: C_12  and  N_13
REMARK    4  A    between atoms: C_12  and  C_26
REMARK    5  A    between atoms: N_13  and  C_14
REMARK    6  A    between atoms: C_14  and  C_15
REMARK    7  A    between atoms: C_15  and  C_16
REMARK                            x       y       z     vdW  Elec       q    Type
REMARK                         _______ _______ _______ _____ _____    ______ ____
ROOT
ATOM      1  C   UNL     1       1.984   6.379  19.633  0.00  0.00    +0.000 C 
ENDROOT
BRANCH   1   2
ATOM      2  C   UNL     1       1.800   4.955  20.154  0.00  0.00    +0.000 A 
ATOM      3  C   UNL     1       1.051   4.030  19.409  0.00  0.00    +0.000 A 
ATOM      4  C   UNL     1       0.870   2.722  19.866  0.00  0.00    +0.000 A 
ATOM      5  C   UNL     1       1.425   2.321  21.080  0.00  0.00    +0.000 A 
ATOM      6  C   UNL     1       2.151   3.229  21.843  0.00  0.00    +0.000 A 
ATOM      7  C   UNL     1       2.334   4.535  21.389  0.00  0.00    +0.000 A 
ENDBRANCH   1   2
BRANCH   1   9
ATOM      8  O   UNL     1       2.955   7.551  17.730  0.00  0.00    +0.000 OA
ATOM      9  C   UNL     1       2.981   6.544  18.443  0.00  0.00    +0.000 C 
ATOM     10  N   UNL     1       3.806   5.456  18.222  0.00  0.00    +0.000 N 
ATOM     11  H   UNL     1       3.605   4.600  18.733  0.00  0.00    +0.000 HD
BRANCH  10  12
ATOM     12  C   UNL     1       4.881   5.374  17.314  0.00  0.00    +0.000 A 
ATOM     13  C   UNL     1       6.017   6.184  17.371  0.00  0.00    +0.000 A 
ATOM     14  C   UNL     1       7.028   6.037  16.415  0.00  0.00    +0.000 A 
ATOM     15  C   UNL     1       6.900   5.084  15.411  0.00  0.00    +0.000 A 
ATOM     16  F   UNL     1       7.863   4.964  14.489  0.00  0.00    +0.000 F 
ATOM     17  C   UNL     1       5.790   4.252  15.350  0.00  0.00    +0.000 A 
ATOM     18  C   UNL     1       4.796   4.400  16.307  0.00  0.00    +0.000 A 
ATOM     19  F   UNL     1       3.721   3.598  16.259  0.00  0.00    +0.000 F 
ENDBRANCH  10  12
ENDBRANCH   1   9
BRANCH   1  20
ATOM     20  N   UNL     1       2.292   7.367  20.708  0.00  0.00    +0.000 NA
ATOM     21  H   UNL     1       2.045   6.910  21.590  0.00  0.00    +0.000 HD
BRANCH  20  22
ATOM     22  C   UNL     1       1.474   8.583  20.596  0.00  0.00    +0.000 C 
BRANCH  22  23
ATOM     23  C   UNL     1       0.192   8.516  21.433  0.00  0.00    +0.000 C 
BRANCH  23  24
ATOM     24  C   UNL     1      -0.416   9.906  21.527  0.00  0.00    +0.000 A 
ATOM     25  C   UNL     1      -0.569  10.468  22.807  0.00  0.00    +0.000 A 
ATOM     26  C   UNL     1      -1.195  11.698  22.972  0.00  0.00    +0.000 A 
ATOM     27  C   UNL     1      -1.680  12.384  21.862  0.00  0.00    +0.000 A 
ATOM     28  C   UNL     1      -1.550  11.850  20.572  0.00  0.00    +0.000 A 
ATOM     29  C   UNL     1      -2.056  12.554  19.465  0.00  0.00    +0.000 A 
ATOM     30  C   UNL     1      -1.951  12.038  18.175  0.00  0.00    +0.000 A 
ATOM     31  C   UNL     1      -1.342  10.807  17.975  0.00  0.00    +0.000 A 
ATOM     32  C   UNL     1      -0.835  10.096  19.064  0.00  0.00    +0.000 A 
ATOM     33  C   UNL     1      -0.917  10.596  20.385  0.00  0.00    +0.000 A 
ENDBRANCH  23  24
ENDBRANCH  22  23
ENDBRANCH  20  22
ENDBRANCH   1  20
TORSDOF 7
ENDMDL
MODEL 8
REMARK VINA RESULT:      -8.7      0.851      1.345
REMARK  Name = 
REMARK  7 active torsions:
REMARK  status: ('A' for Active; 'I' for Inactive)
REMARK    1  A    between atoms: C_2  and  C_12
REMARK    2  A    between atoms: N_3  and  C_4
REMARK    3  A    between atoms: C_12  and  N_13
REMARK    4  A    between atoms: C_12  and  C_26
REMARK    5  A    between atoms: N_13  and  C_14
REMARK    6  A    between atoms: C_14  and  C_15
REMARK    7  A    between atoms: C_15  and  C_16
REMARK                            x       y       z     vdW  Elec       q    Type
REMARK                         _______ _______ _______ _____ _____    ______ ____
ROOT
ATOM      1  C   UNL     1       2.073   6.431  19.491  0.00  0.00    +0.000 C 
ENDROOT
BRANCH   1   2
ATOM      2  C   UNL     1       1.879   5.025  20.056  0.00  0.00    +0.000 A 
ATOM      3  C   UNL     1       1.128   4.081  19.337  0.00  0.00    +0.000 A 
ATOM      4  C   UNL     1       0.940   2.788  19.834  0.00  0.00    +0.000 A 
ATOM      5  C   UNL     1       1.488   2.423  21.062  0.00  0.00    +0.000 A 
ATOM      6  C   UNL     1       2.215   3.351  21.799  0.00  0.00    +0.000 A 
ATOM      7  C   UNL     1       2.407   4.641  21.305  0.00  0.00    +0.000 A 
ENDBRANCH   1   2
BRANCH   1   9
ATOM      8  O   UNL     1       3.396   7.668  17.861  0.00  0.00    +0.000 OA
ATOM      9  C   UNL     1       3.157   6.573  18.376  0.00  0.00    +0.000 C 
ATOM     10  N   UNL     1       3.741   5.383  17.979  0.00  0.00    +0.000 N 
ATOM     11  H   UNL     1       3.326   4.519  18.318  0.00  0.00    +0.000 HD
BRANCH  10  12
ATOM     12  C   UNL     1       4.829   5.222  17.098  0.00  0.00    +0.000 A 
ATOM     13  C   UNL     1       4.759   5.445  15.721  0.00  0.00    +0.000 A 
ATOM     14  C   UNL     1       5.891   5.246  14.923  0.00  0.00    +0.000 A 
ATOM     15  C   UNL     1       7.083   4.829  15.504  0.00  0.00    +0.000 A 
ATOM     16  F   UNL     1       8.156   4.622  14.730  0.00  0.00    +0.000 F 
ATOM     17  C   UNL     1       7.182   4.626  16.873  0.00  0.00    +0.000 A 
ATOM     18  C   UNL     1       6.055   4.834  17.657  0.00  0.00    +0.000 A 
ATOM     19  F   UNL     1       6.141   4.644  18.984  0.00  0.00    +0.000 F 
ENDBRANCH  10  12
ENDBRANCH   1   9
BRANCH   1  20
ATOM     20  N   UNL     1       2.273   7.469  20.544  0.00  0.00    +0.000 NA
ATOM     21  H   UNL     1       2.309   6.964  21.434  0.00  0.00    +0.000 HD
BRANCH  20  22
ATOM     22  C   UNL     1       1.147   8.411  20.616  0.00  0.00    +0.000 C 
BRANCH  22  23
ATOM     23  C   UNL     1       1.267   9.559  19.608  0.00  0.00    +0.000 C 
BRANCH  23  24
ATOM     24  C   UNL     1       0.125  10.538  19.828  0.00  0.00    +0.000 A 
ATOM     25  C   UNL     1       0.123  11.284  21.019  0.00  0.00    +0.000 A 
ATOM     26  C   UNL     1      -0.933  12.135  21.323  0.00  0.00    +0.000 A 
ATOM     27  C   UNL     1      -2.005  12.251  20.443  0.00  0.00    +0.000 A 
ATOM     28  C   UNL     1      -2.039  11.517  19.248  0.00  0.00    +0.000 A 
ATOM     29  C   UNL     1      -3.136  11.641  18.377  0.00  0.00    +0.000 A 
ATOM     30  C   UNL     1      -3.198  10.912  17.191  0.00  0.00    +0.000 A 
ATOM     31  C   UNL     1      -2.166  10.045  16.862  0.00  0.00    +0.000 A 
ATOM     32  C   UNL     1      -1.070   9.911  17.717  0.00  0.00    +0.000 A 
ATOM     33  C   UNL     1      -0.971  10.643  18.923  0.00  0.00    +0.000 A 
ENDBRANCH  23  24
ENDBRANCH  22  23
ENDBRANCH  20  22
ENDBRANCH   1  20
TORSDOF 7
ENDMDL
MODEL 9
REMARK VINA RESULT:      -8.7      1.411      1.631
REMARK  Name = 
REMARK  7 active torsions:
REMARK  status: ('A' for Active; 'I' for Inactive)
REMARK    1  A    between atoms: C_2  and  C_12
REMARK    2  A    between atoms: N_3  and  C_4
REMARK    3  A    between atoms: C_12  and  N_13
REMARK    4  A    between atoms: C_12  and  C_26
REMARK    5  A    between atoms: N_13  and  C_14
REMARK    6  A    between atoms: C_14  and  C_15
REMARK    7  A    between atoms: C_15  and  C_16
REMARK                            x       y       z     vdW  Elec       q    Type
REMARK                         _______ _______ _______ _____ _____    ______ ____
ROOT
ATOM      1  C   UNL     1       1.953   6.415  19.614  0.00  0.00    +0.000 C 
ENDROOT
BRANCH   1   2
ATOM      2  C   UNL     1       1.774   4.995  20.146  0.00  0.00    +0.000 A 
ATOM      3  C   UNL     1       2.376   4.622  21.359  0.00  0.00    +0.000 A 
ATOM      4  C   UNL     1       2.225   3.328  21.865  0.00  0.00    +0.000 A 
ATOM      5  C   UNL     1       1.480   2.383  21.161  0.00  0.00    +0.000 A 
ATOM      6  C   UNL     1       0.896   2.727  19.947  0.00  0.00    +0.000 A 
ATOM      7  C   UNL     1       1.044   4.018  19.440  0.00  0.00    +0.000 A 
ENDBRANCH   1   2
BRANCH   1   9
ATOM      8  O   UNL     1       2.925   7.576  17.704  0.00  0.00    +0.000 OA
ATOM      9  C   UNL     1       2.955   6.577  18.427  0.00  0.00    +0.000 C 
ATOM     10  N   UNL     1       3.789   5.493  18.220  0.00  0.00    +0.000 N 
ATOM     11  H   UNL     1       3.591   4.640  18.738  0.00  0.00    +0.000 HD
BRANCH  10  12
ATOM     12  C   UNL     1       4.868   5.410  17.317  0.00  0.00    +0.000 A 
ATOM     13  C   UNL     1       6.007   6.216  17.383  0.00  0.00    +0.000 A 
ATOM     14  C   UNL     1       7.022   6.068  16.432  0.00  0.00    +0.000 A 
ATOM     15  C   UNL     1       6.895   5.119  15.424  0.00  0.00    +0.000 A 
ATOM     16  F   UNL     1       7.863   4.999  14.507  0.00  0.00    +0.000 F 
ATOM     17  C   UNL     1       5.784   4.291  15.354  0.00  0.00    +0.000 A 
ATOM     18  C   UNL     1       4.785   4.439  16.307  0.00  0.00    +0.000 A 
ATOM     19  F   UNL     1       3.707   3.641  16.250  0.00  0.00    +0.000 F 
ENDBRANCH  10  12
ENDBRANCH   1   9
BRANCH   1  20
ATOM     20  N   UNL     1       2.252   7.414  20.683  0.00  0.00    +0.000 NA
ATOM     21  H   UNL     1       2.619   6.878  21.474  0.00  0.00    +0.000 HD
BRANCH  20  22
ATOM     22  C   UNL     1       1.043   8.111  21.145  0.00  0.00    +0.000 C 
BRANCH  22  23
ATOM     23  C   UNL     1       1.343   9.197  22.184  0.00  0.00    +0.000 C 
BRANCH  23  24
ATOM     24  C   UNL     1       0.268  10.269  22.110  0.00  0.00    +0.000 A 
ATOM     25  C   UNL     1      -0.671  10.326  23.155  0.00  0.00    +0.000 A 
ATOM     26  C   UNL     1      -1.730  11.225  23.110  0.00  0.00    +0.000 A 
ATOM     27  C   UNL     1      -1.868  12.080  22.020  0.00  0.00    +0.000 A 
ATOM     28  C   UNL     1      -0.953  12.046  20.957  0.00  0.00    +0.000 A 
ATOM     29  C   UNL     1      -1.116  12.910  19.861  0.00  0.00    +0.000 A 
ATOM     30  C   UNL     1      -0.227  12.886  18.787  0.00  0.00    +0.000 A 
ATOM     31  C   UNL     1       0.835  11.993  18.794  0.00  0.00    +0.000 A 
ATOM     32  C   UNL     1       1.010  11.128  19.876  0.00  0.00    +0.000 A 
ATOM     33  C   UNL     1       0.131  11.134  20.986  0.00  0.00    +0.000 A 
ENDBRANCH  23  24
ENDBRANCH  22  23
ENDBRANCH  20  22
ENDBRANCH   1  20
TORSDOF 7
ENDMDL
