MODEL 1
REMARK VINA RESULT:      -8.3      0.000      0.000
REMARK  Name = 
REMARK  6 active torsions:
REMARK  status: ('A' for Active; 'I' for Inactive)
REMARK    1  A    between atoms: C_2  and  O_3
REMARK    2  A    between atoms: C_2  and  C_25
REMARK    3  A    between atoms: O_3  and  C_4
REMARK    4  A    between atoms: C_4  and  C_5
REMARK    5  A    between atoms: C_5  and  N_6
REMARK    6  A    between atoms: N_6  and  C_18
REMARK                            x       y       z     vdW  Elec       q    Type
REMARK                         _______ _______ _______ _____ _____    ______ ____
ROOT
ATOM      1  N   UNL     1       2.874   6.701  19.072  0.00  0.00    +0.000 N 
ATOM      2  C   UNL     1       2.070   7.866  19.018  0.00  0.00    +0.000 C 
ATOM      3  N   UNL     1       1.773   8.458  17.886  0.00  0.00    +0.000 NA
ATOM      4  S   UNL     1       0.974   9.860  18.078  0.00  0.00    +0.000 S 
ATOM      5  O   UNL     1      -0.368   9.764  17.548  0.00  0.00    +0.000 OA
ATOM      6  O   UNL     1       1.852  10.974  17.787  0.00  0.00    +0.000 OA
ATOM      7  C   UNL     1       0.858   9.748  19.802  0.00  0.00    +0.000 A 
ATOM      8  C   UNL     1       0.255  10.670  20.646  0.00  0.00    +0.000 A 
ATOM      9  C   UNL     1       0.250  10.380  22.005  0.00  0.00    +0.000 A 
ATOM     10  C   UNL     1       0.828   9.194  22.466  0.00  0.00    +0.000 A 
ATOM     11  C   UNL     1       1.439   8.295  21.578  0.00  0.00    +0.000 A 
ATOM     12  C   UNL     1       1.472   8.578  20.219  0.00  0.00    +0.000 A 
ENDROOT
BRANCH   1  13
ATOM     13  C   UNL     1       3.725   6.281  17.985  0.00  0.00    +0.000 A 
ATOM     14  C   UNL     1       4.710   7.120  17.417  0.00  0.00    +0.000 A 
ATOM     15  C   UNL     1       5.533   6.713  16.356  0.00  0.00    +0.000 A 
ATOM     16  C   UNL     1       5.413   5.435  15.838  0.00  0.00    +0.000 A 
ATOM     17 CL   UNL     1       6.434   4.927  14.553  0.00  0.00    +0.000 Cl
ATOM     18  C   UNL     1       4.463   4.573  16.361  0.00  0.00    +0.000 A 
ATOM     19  C   UNL     1       3.625   5.000  17.404  0.00  0.00    +0.000 A 
ENDBRANCH   1  13
BRANCH   1  20
ATOM     20  C   UNL     1       3.052   5.923  20.308  0.00  0.00    +0.000 C 
BRANCH  20  21
ATOM     21  C   UNL     1       1.846   5.009  20.580  0.00  0.00    +0.000 C 
BRANCH  21  22
ATOM     22  O   UNL     1       2.097   4.134  21.696  0.00  0.00    +0.000 OA
BRANCH  22  24
ATOM     23  O   UNL     1       1.211   2.116  22.295  0.00  0.00    +0.000 OA
ATOM     24  C   UNL     1       1.764   2.828  21.467  0.00  0.00    +0.000 C 
BRANCH  24  25
ATOM     25  C   UNL     1       2.165   2.399  20.148  0.00  0.00    +0.000 A 
ATOM     26  C   UNL     1       1.394   2.208  19.015  0.00  0.00    +0.000 A 
ATOM     27  C   UNL     1       2.264   1.764  17.995  0.00  0.00    +0.000 A 
ATOM     28  C   UNL     1       3.517   1.713  18.558  0.00  0.00    +0.000 A 
ATOM     29  O   UNL     1       3.470   2.095  19.864  0.00  0.00    +0.000 OA
ENDBRANCH  24  25
ENDBRANCH  22  24
ENDBRANCH  21  22
ENDBRANCH  20  21
ENDBRANCH   1  20
TORSDOF 6
ENDMDL
MODEL 2
REMARK VINA RESULT:      -8.2      1.152      1.402
REMARK  Name = 
REMARK  6 active torsions:
REMARK  status: ('A' for Active; 'I' for Inactive)
REMARK    1  A    between atoms: C_2  and  O_3
REMARK    2  A    between atoms: C_2  and  C_25
REMARK    3  A    between atoms: O_3  and  C_4
REMARK    4  A    between atoms: C_4  and  C_5
REMARK    5  A    between atoms: C_5  and  N_6
REMARK    6  A    between atoms: N_6  and  C_18
REMARK                            x       y       z     vdW  Elec       q    Type
REMARK                         _______ _______ _______ _____ _____    ______ ____
ROOT
ATOM      1  N   UNL     1       2.536   6.382  19.650  0.00  0.00    +0.000 N 
ATOM      2  C   UNL     1       1.937   7.648  19.445  0.00  0.00    +0.000 C 
ATOM      3  N   UNL     1       2.104   8.329  18.337  0.00  0.00    +0.000 NA
ATOM      4  S   UNL     1       1.456   9.819  18.387  0.00  0.00    +0.000 S 
ATOM      5  O   UNL     1       0.363   9.937  17.446  0.00  0.00    +0.000 OA
ATOM      6  O   UNL     1       2.503  10.811  18.498  0.00  0.00    +0.000 OA
ATOM      7  C   UNL     1       0.762   9.643  19.964  0.00  0.00    +0.000 A 
ATOM      8  C   UNL     1       0.024  10.599  20.648  0.00  0.00    +0.000 A 
ATOM      9  C   UNL     1      -0.465  10.248  21.901  0.00  0.00    +0.000 A 
ATOM     10  C   UNL     1      -0.215   8.972  22.414  0.00  0.00    +0.000 A 
ATOM     11  C   UNL     1       0.546   8.040  21.693  0.00  0.00    +0.000 A 
ATOM     12  C   UNL     1       1.062   8.379  20.448  0.00  0.00    +0.000 A 
ENDROOT
BRANCH   1  13
ATOM     13  C   UNL     1       3.644   5.899  18.862  0.00  0.00    +0.000 A 
ATOM     14  C   UNL     1       3.556   5.687  17.468  0.00  0.00    +0.000 A 
ATOM     15  C   UNL     1       4.632   5.211  16.704  0.00  0.00    +0.000 A 
ATOM     16  C   UNL     1       5.850   4.951  17.309  0.00  0.00    +0.000 A 
ATOM     17 CL   UNL     1       7.176   4.389  16.371  0.00  0.00    +0.000 Cl
ATOM     18  C   UNL     1       5.989   5.145  18.674  0.00  0.00    +0.000 A 
ATOM     19  C   UNL     1       4.897   5.594  19.435  0.00  0.00    +0.000 A 
ENDBRANCH   1  13
BRANCH   1  20
ATOM     20  C   UNL     1       2.202   5.528  20.801  0.00  0.00    +0.000 C 
BRANCH  20  21
ATOM     21  C   UNL     1       1.039   4.575  20.480  0.00  0.00    +0.000 C 
BRANCH  21  22
ATOM     22  O   UNL     1       1.115   3.376  21.273  0.00  0.00    +0.000 OA
BRANCH  22  24
ATOM     23  O   UNL     1       3.009   2.432  22.132  0.00  0.00    +0.000 OA
ATOM     24  C   UNL     1       2.306   2.713  21.170  0.00  0.00    +0.000 C 
BRANCH  24  25
ATOM     25  C   UNL     1       2.631   2.412  19.796  0.00  0.00    +0.000 A 
ATOM     26  C   UNL     1       3.860   2.128  19.227  0.00  0.00    +0.000 A 
ATOM     27  C   UNL     1       3.638   1.928  17.846  0.00  0.00    +0.000 A 
ATOM     28  C   UNL     1       2.288   2.096  17.649  0.00  0.00    +0.000 A 
ATOM     29  O   UNL     1       1.667   2.391  18.824  0.00  0.00    +0.000 OA
ENDBRANCH  24  25
ENDBRANCH  22  24
ENDBRANCH  21  22
ENDBRANCH  20  21
ENDBRANCH   1  20
TORSDOF 6
ENDMDL
MODEL 3
REMARK VINA RESULT:      -8.1      3.282      6.213
REMARK  Name = 
REMARK  6 active torsions:
REMARK  status: ('A' for Active; 'I' for Inactive)
REMARK    1  A    between atoms: C_2  and  O_3
REMARK    2  A    between atoms: C_2  and  C_25
REMARK    3  A    between atoms: O_3  and  C_4
REMARK    4  A    between atoms: C_4  and  C_5
REMARK    5  A    between atoms: C_5  and  N_6
REMARK    6  A    between atoms: N_6  and  C_18
REMARK                            x       y       z     vdW  Elec       q    Type
REMARK                         _______ _______ _______ _____ _____    ______ ____
ROOT
ATOM      1  N   UNL     1       3.105   5.844  17.752  0.00  0.00    +0.000 N 
ATOM      2  C   UNL     1       4.491   5.832  17.467  0.00  0.00    +0.000 C 
ATOM      3  N   UNL     1       5.367   6.440  18.230  0.00  0.00    +0.000 NA
ATOM      4  S   UNL     1       6.875   6.425  17.624  0.00  0.00    +0.000 S 
ATOM      5  O   UNL     1       7.759   5.647  18.464  0.00  0.00    +0.000 OA
ATOM      6  O   UNL     1       7.223   7.741  17.130  0.00  0.00    +0.000 OA
ATOM      7  C   UNL     1       6.488   5.456  16.243  0.00  0.00    +0.000 A 
ATOM      8  C   UNL     1       7.372   5.043  15.256  0.00  0.00    +0.000 A 
ATOM      9  C   UNL     1       6.862   4.246  14.238  0.00  0.00    +0.000 A 
ATOM     10  C   UNL     1       5.511   3.886  14.246  0.00  0.00    +0.000 A 
ATOM     11  C   UNL     1       4.650   4.336  15.258  0.00  0.00    +0.000 A 
ATOM     12  C   UNL     1       5.137   5.151  16.273  0.00  0.00    +0.000 A 
ENDROOT
BRANCH   1  13
ATOM     13  C   UNL     1       2.494   6.795  18.650  0.00  0.00    +0.000 A 
ATOM     14  C   UNL     1       2.212   6.497  20.002  0.00  0.00    +0.000 A 
ATOM     15  C   UNL     1       1.613   7.420  20.873  0.00  0.00    +0.000 A 
ATOM     16  C   UNL     1       1.294   8.690  20.423  0.00  0.00    +0.000 A 
ATOM     17 CL   UNL     1       0.580   9.829  21.493  0.00  0.00    +0.000 Cl
ATOM     18  C   UNL     1       1.552   9.033  19.106  0.00  0.00    +0.000 A 
ATOM     19  C   UNL     1       2.126   8.092  18.234  0.00  0.00    +0.000 A 
ENDBRANCH   1  13
BRANCH   1  20
ATOM     20  C   UNL     1       2.140   5.009  17.018  0.00  0.00    +0.000 C 
BRANCH  20  21
ATOM     21  C   UNL     1       1.653   3.827  17.870  0.00  0.00    +0.000 C 
BRANCH  21  22
ATOM     22  O   UNL     1       2.268   2.594  17.449  0.00  0.00    +0.000 OA
BRANCH  22  24
ATOM     23  O   UNL     1       3.787   1.076  18.227  0.00  0.00    +0.000 OA
ATOM     24  C   UNL     1       2.951   1.945  18.440  0.00  0.00    +0.000 C 
BRANCH  24  25
ATOM     25  C   UNL     1       2.546   2.396  19.750  0.00  0.00    +0.000 A 
ATOM     26  C   UNL     1       3.283   3.056  20.717  0.00  0.00    +0.000 A 
ATOM     27  C   UNL     1       2.428   3.251  21.825  0.00  0.00    +0.000 A 
ATOM     28  C   UNL     1       1.217   2.703  21.472  0.00  0.00    +0.000 A 
ATOM     29  O   UNL     1       1.277   2.181  20.217  0.00  0.00    +0.000 OA
ENDBRANCH  24  25
ENDBRANCH  22  24
ENDBRANCH  21  22
ENDBRANCH  20  21
ENDBRANCH   1  20
TORSDOF 6
ENDMDL
MODEL 4
REMARK VINA RESULT:      -8.0      1.263      1.508
REMARK  Name = 
REMARK  6 active torsions:
REMARK  status: ('A' for Active; 'I' for Inactive)
REMARK    1  A    between atoms: C_2  and  O_3
REMARK    2  A    between atoms: C_2  and  C_25
REMARK    3  A    between atoms: O_3  and  C_4
REMARK    4  A    between atoms: C_4  and  C_5
REMARK    5  A    between atoms: C_5  and  N_6
REMARK    6  A    between atoms: N_6  and  C_18
REMARK                            x       y       z     vdW  Elec       q    Type
REMARK                         _______ _______ _______ _____ _____    ______ ____
ROOT
ATOM      1  N   UNL     1       2.683   6.410  19.671  0.00  0.00    +0.000 N 
ATOM      2  C   UNL     1       2.031   7.641  19.420  0.00  0.00    +0.000 C 
ATOM      3  N   UNL     1       2.077   8.231  18.250  0.00  0.00    +0.000 NA
ATOM      4  S   UNL     1       1.391   9.704  18.240  0.00  0.00    +0.000 S 
ATOM      5  O   UNL     1       0.216   9.719  17.396  0.00  0.00    +0.000 OA
ATOM      6  O   UNL     1       2.414  10.727  18.173  0.00  0.00    +0.000 OA
ATOM      7  C   UNL     1       0.847   9.644  19.882  0.00  0.00    +0.000 A 
ATOM      8  C   UNL     1       0.145  10.637  20.551  0.00  0.00    +0.000 A 
ATOM      9  C   UNL     1      -0.220  10.381  21.868  0.00  0.00    +0.000 A 
ATOM     10  C   UNL     1       0.113   9.158  22.457  0.00  0.00    +0.000 A 
ATOM     11  C   UNL     1       0.835   8.186  21.747  0.00  0.00    +0.000 A 
ATOM     12  C   UNL     1       1.227   8.433  20.437  0.00  0.00    +0.000 A 
ENDROOT
BRANCH   1  13
ATOM     13  C   UNL     1       3.731   5.889  18.827  0.00  0.00    +0.000 A 
ATOM     14  C   UNL     1       3.590   5.756  17.427  0.00  0.00    +0.000 A 
ATOM     15  C   UNL     1       4.606   5.243  16.607  0.00  0.00    +0.000 A 
ATOM     16  C   UNL     1       5.817   4.863  17.161  0.00  0.00    +0.000 A 
ATOM     17 CL   UNL     1       7.072   4.255  16.157  0.00  0.00    +0.000 Cl
ATOM     18  C   UNL     1       6.007   4.975  18.529  0.00  0.00    +0.000 A 
ATOM     19  C   UNL     1       4.972   5.463  19.345  0.00  0.00    +0.000 A 
ENDBRANCH   1  13
BRANCH   1  20
ATOM     20  C   UNL     1       2.479   5.647  20.913  0.00  0.00    +0.000 C 
BRANCH  20  21
ATOM     21  C   UNL     1       1.324   4.643  20.777  0.00  0.00    +0.000 C 
BRANCH  21  22
ATOM     22  O   UNL     1       1.059   4.340  19.394  0.00  0.00    +0.000 OA
BRANCH  22  24
ATOM     23  O   UNL     1      -0.012   2.347  19.084  0.00  0.00    +0.000 OA
ATOM     24  C   UNL     1       1.021   3.003  19.113  0.00  0.00    +0.000 C 
BRANCH  24  25
ATOM     25  C   UNL     1       2.342   2.469  18.882  0.00  0.00    +0.000 A 
ATOM     26  C   UNL     1       2.926   2.054  17.698  0.00  0.00    +0.000 A 
ATOM     27  C   UNL     1       4.224   1.597  18.016  0.00  0.00    +0.000 A 
ATOM     28  C   UNL     1       4.363   1.761  19.374  0.00  0.00    +0.000 A 
ATOM     29  O   UNL     1       3.228   2.288  19.911  0.00  0.00    +0.000 OA
ENDBRANCH  24  25
ENDBRANCH  22  24
ENDBRANCH  21  22
ENDBRANCH  20  21
ENDBRANCH   1  20
TORSDOF 6
ENDMDL
MODEL 5
REMARK VINA RESULT:      -8.0      3.019      4.647
REMARK  Name = 
REMARK  6 active torsions:
REMARK  status: ('A' for Active; 'I' for Inactive)
REMARK    1  A    between atoms: C_2  and  O_3
REMARK    2  A    between atoms: C_2  and  C_25
REMARK    3  A    between atoms: O_3  and  C_4
REMARK    4  A    between atoms: C_4  and  C_5
REMARK    5  A    between atoms: C_5  and  N_6
REMARK    6  A    between atoms: N_6  and  C_18
REMARK                            x       y       z     vdW  Elec       q    Type
REMARK                         _______ _______ _______ _____ _____    ______ ____
ROOT
ATOM      1  N   UNL     1       2.726   7.328  18.660  0.00  0.00    +0.000 N 
ATOM      2  C   UNL     1       1.947   8.060  19.587  0.00  0.00    +0.000 C 
ATOM      3  N   UNL     1       1.570   7.555  20.737  0.00  0.00    +0.000 NA
ATOM      4  S   UNL     1       0.555   8.516  21.566  0.00  0.00    +0.000 S 
ATOM      5  O   UNL     1       1.170   8.979  22.791  0.00  0.00    +0.000 OA
ATOM      6  O   UNL     1      -0.787   7.975  21.521  0.00  0.00    +0.000 OA
ATOM      7  C   UNL     1       0.607   9.825  20.435  0.00  0.00    +0.000 A 
ATOM      8  C   UNL     1      -0.070  11.032  20.543  0.00  0.00    +0.000 A 
ATOM      9  C   UNL     1       0.126  11.964  19.532  0.00  0.00    +0.000 A 
ATOM     10  C   UNL     1       0.987  11.670  18.470  0.00  0.00    +0.000 A 
ATOM     11  C   UNL     1       1.643  10.432  18.395  0.00  0.00    +0.000 A 
ATOM     12  C   UNL     1       1.443   9.479  19.385  0.00  0.00    +0.000 A 
ENDROOT
BRANCH   1  13
ATOM     13  C   UNL     1       2.860   5.892  18.706  0.00  0.00    +0.000 A 
ATOM     14  C   UNL     1       3.828   5.239  19.502  0.00  0.00    +0.000 A 
ATOM     15  C   UNL     1       3.962   3.843  19.542  0.00  0.00    +0.000 A 
ATOM     16  C   UNL     1       3.110   3.045  18.797  0.00  0.00    +0.000 A 
ATOM     17 CL   UNL     1       3.258   1.334  18.861  0.00  0.00    +0.000 Cl
ATOM     18  C   UNL     1       2.143   3.635  18.001  0.00  0.00    +0.000 A 
ATOM     19  C   UNL     1       2.036   5.035  17.946  0.00  0.00    +0.000 A 
ENDBRANCH   1  13
BRANCH   1  20
ATOM     20  C   UNL     1       3.315   7.946  17.461  0.00  0.00    +0.000 C 
BRANCH  20  21
ATOM     21  C   UNL     1       4.410   7.059  16.847  0.00  0.00    +0.000 C 
BRANCH  21  22
ATOM     22  O   UNL     1       5.710   7.410  17.357  0.00  0.00    +0.000 OA
BRANCH  22  24
ATOM     23  O   UNL     1       7.292   6.186  18.459  0.00  0.00    +0.000 OA
ATOM     24  C   UNL     1       6.562   6.349  17.490  0.00  0.00    +0.000 C 
BRANCH  24  25
ATOM     25  C   UNL     1       6.505   5.473  16.345  0.00  0.00    +0.000 A 
ATOM     26  C   UNL     1       5.778   4.310  16.164  0.00  0.00    +0.000 A 
ATOM     27  C   UNL     1       6.091   3.823  14.876  0.00  0.00    +0.000 A 
ATOM     28  C   UNL     1       6.989   4.716  14.339  0.00  0.00    +0.000 A 
ATOM     29  O   UNL     1       7.249   5.720  15.221  0.00  0.00    +0.000 OA
ENDBRANCH  24  25
ENDBRANCH  22  24
ENDBRANCH  21  22
ENDBRANCH  20  21
ENDBRANCH   1  20
TORSDOF 6
ENDMDL
MODEL 6
REMARK VINA RESULT:      -7.9      3.086      4.783
REMARK  Name = 
REMARK  6 active torsions:
REMARK  status: ('A' for Active; 'I' for Inactive)
REMARK    1  A    between atoms: C_2  and  O_3
REMARK    2  A    between atoms: C_2  and  C_25
REMARK    3  A    between atoms: O_3  and  C_4
REMARK    4  A    between atoms: C_4  and  C_5
REMARK    5  A    between atoms: C_5  and  N_6
REMARK    6  A    between atoms: N_6  and  C_18
REMARK                            x       y       z     vdW  Elec       q    Type
REMARK                         _______ _______ _______ _____ _____    ______ ____
ROOT
ATOM      1  N   UNL     1       2.537   7.389  18.690  0.00  0.00    +0.000 N 
ATOM      2  C   UNL     1       1.825   8.147  19.651  0.00  0.00    +0.000 C 
ATOM      3  N   UNL     1       1.509   7.664  20.828  0.00  0.00    +0.000 NA
ATOM      4  S   UNL     1       0.558   8.652  21.700  0.00  0.00    +0.000 S 
ATOM      5  O   UNL     1       1.251   9.123  22.880  0.00  0.00    +0.000 OA
ATOM      6  O   UNL     1      -0.792   8.131  21.742  0.00  0.00    +0.000 OA
ATOM      7  C   UNL     1       0.562   9.944  20.548  0.00  0.00    +0.000 A 
ATOM      8  C   UNL     1      -0.090  11.162  20.678  0.00  0.00    +0.000 A 
ATOM      9  C   UNL     1       0.059  12.077  19.642  0.00  0.00    +0.000 A 
ATOM     10  C   UNL     1       0.852  11.754  18.537  0.00  0.00    +0.000 A 
ATOM     11  C   UNL     1       1.485  10.505  18.442  0.00  0.00    +0.000 A 
ATOM     12  C   UNL     1       1.329   9.570  19.456  0.00  0.00    +0.000 A 
ENDROOT
BRANCH   1  13
ATOM     13  C   UNL     1       2.653   5.952  18.750  0.00  0.00    +0.000 A 
ATOM     14  C   UNL     1       1.891   5.089  17.931  0.00  0.00    +0.000 A 
ATOM     15  C   UNL     1       1.999   3.691  17.995  0.00  0.00    +0.000 A 
ATOM     16  C   UNL     1       2.898   3.106  18.870  0.00  0.00    +0.000 A 
ATOM     17 CL   UNL     1       3.049   1.395  18.934  0.00  0.00    +0.000 Cl
ATOM     18  C   UNL     1       3.671   3.908  19.694  0.00  0.00    +0.000 A 
ATOM     19  C   UNL     1       3.534   5.306  19.643  0.00  0.00    +0.000 A 
ENDBRANCH   1  13
BRANCH   1  20
ATOM     20  C   UNL     1       3.063   7.982  17.450  0.00  0.00    +0.000 C 
BRANCH  20  21
ATOM     21  C   UNL     1       4.237   7.165  16.887  0.00  0.00    +0.000 C 
BRANCH  21  22
ATOM     22  O   UNL     1       5.435   7.376  17.659  0.00  0.00    +0.000 OA
BRANCH  22  24
ATOM     23  O   UNL     1       7.633   7.594  17.079  0.00  0.00    +0.000 OA
ATOM     24  C   UNL     1       6.581   6.970  17.033  0.00  0.00    +0.000 C 
BRANCH  24  25
ATOM     25  C   UNL     1       6.384   5.740  16.306  0.00  0.00    +0.000 A 
ATOM     26  C   UNL     1       5.961   4.505  16.766  0.00  0.00    +0.000 A 
ATOM     27  C   UNL     1       5.955   3.631  15.657  0.00  0.00    +0.000 A 
ATOM     28  C   UNL     1       6.371   4.379  14.580  0.00  0.00    +0.000 A 
ATOM     29  O   UNL     1       6.635   5.659  14.961  0.00  0.00    +0.000 OA
ENDBRANCH  24  25
ENDBRANCH  22  24
ENDBRANCH  21  22
ENDBRANCH  20  21
ENDBRANCH   1  20
TORSDOF 6
ENDMDL
MODEL 7
REMARK VINA RESULT:      -7.9      3.110      4.901
REMARK  Name = 
REMARK  6 active torsions:
REMARK  status: ('A' for Active; 'I' for Inactive)
REMARK    1  A    between atoms: C_2  and  O_3
REMARK    2  A    between atoms: C_2  and  C_25
REMARK    3  A    between atoms: O_3  and  C_4
REMARK    4  A    between atoms: C_4  and  C_5
REMARK    5  A    between atoms: C_5  and  N_6
REMARK    6  A    between atoms: N_6  and  C_18
REMARK                            x       y       z     vdW  Elec       q    Type
REMARK                         _______ _______ _______ _____ _____    ______ ____
ROOT
ATOM      1  N   UNL     1       2.599   7.241  18.705  0.00  0.00    +0.000 N 
ATOM      2  C   UNL     1       1.903   8.065  19.622  0.00  0.00    +0.000 C 
ATOM      3  N   UNL     1       1.512   7.630  20.796  0.00  0.00    +0.000 NA
ATOM      4  S   UNL     1       0.598   8.697  21.612  0.00  0.00    +0.000 S 
ATOM      5  O   UNL     1       1.276   9.148  22.807  0.00  0.00    +0.000 OA
ATOM      6  O   UNL     1      -0.785   8.267  21.612  0.00  0.00    +0.000 OA
ATOM      7  C   UNL     1       0.731   9.961  20.436  0.00  0.00    +0.000 A 
ATOM      8  C   UNL     1       0.156  11.221  20.516  0.00  0.00    +0.000 A 
ATOM      9  C   UNL     1       0.405  12.102  19.469  0.00  0.00    +0.000 A 
ATOM     10  C   UNL     1       1.215  11.703  18.402  0.00  0.00    +0.000 A 
ATOM     11  C   UNL     1       1.766  10.414  18.356  0.00  0.00    +0.000 A 
ATOM     12  C   UNL     1       1.511   9.513  19.382  0.00  0.00    +0.000 A 
ENDROOT
BRANCH   1  13
ATOM     13  C   UNL     1       2.616   5.801  18.798  0.00  0.00    +0.000 A 
ATOM     14  C   UNL     1       1.912   4.969  17.899  0.00  0.00    +0.000 A 
ATOM     15  C   UNL     1       1.924   3.569  17.994  0.00  0.00    +0.000 A 
ATOM     16  C   UNL     1       2.666   2.948  18.984  0.00  0.00    +0.000 A 
ATOM     17 CL   UNL     1       2.701   1.234  19.088  0.00  0.00    +0.000 Cl
ATOM     18  C   UNL     1       3.377   3.720  19.889  0.00  0.00    +0.000 A 
ATOM     19  C   UNL     1       3.335   5.121  19.803  0.00  0.00    +0.000 A 
ENDBRANCH   1  13
BRANCH   1  20
ATOM     20  C   UNL     1       3.208   7.770  17.474  0.00  0.00    +0.000 C 
BRANCH  20  21
ATOM     21  C   UNL     1       4.651   7.270  17.299  0.00  0.00    +0.000 C 
BRANCH  21  22
ATOM     22  O   UNL     1       4.819   6.600  16.035  0.00  0.00    +0.000 OA
BRANCH  22  24
ATOM     23  O   UNL     1       5.425   4.711  17.168  0.00  0.00    +0.000 OA
ATOM     24  C   UNL     1       5.393   5.363  16.131  0.00  0.00    +0.000 C 
BRANCH  24  25
ATOM     25  C   UNL     1       5.966   4.942  14.876  0.00  0.00    +0.000 A 
ATOM     26  C   UNL     1       5.564   3.929  14.023  0.00  0.00    +0.000 A 
ATOM     27  C   UNL     1       6.473   3.915  12.942  0.00  0.00    +0.000 A 
ATOM     28  C   UNL     1       7.377   4.921  13.191  0.00  0.00    +0.000 A 
ATOM     29  O   UNL     1       7.081   5.550  14.362  0.00  0.00    +0.000 OA
ENDBRANCH  24  25
ENDBRANCH  22  24
ENDBRANCH  21  22
ENDBRANCH  20  21
ENDBRANCH   1  20
TORSDOF 6
ENDMDL
MODEL 8
REMARK VINA RESULT:      -7.8      3.306      6.163
REMARK  Name = 
REMARK  6 active torsions:
REMARK  status: ('A' for Active; 'I' for Inactive)
REMARK    1  A    between atoms: C_2  and  O_3
REMARK    2  A    between atoms: C_2  and  C_25
REMARK    3  A    between atoms: O_3  and  C_4
REMARK    4  A    between atoms: C_4  and  C_5
REMARK    5  A    between atoms: C_5  and  N_6
REMARK    6  A    between atoms: N_6  and  C_18
REMARK                            x       y       z     vdW  Elec       q    Type
REMARK                         _______ _______ _______ _____ _____    ______ ____
ROOT
ATOM      1  N   UNL     1       3.227   5.720  17.726  0.00  0.00    +0.000 N 
ATOM      2  C   UNL     1       4.609   5.777  17.427  0.00  0.00    +0.000 C 
ATOM      3  N   UNL     1       5.470   6.381  18.210  0.00  0.00    +0.000 NA
ATOM      4  S   UNL     1       6.970   6.456  17.588  0.00  0.00    +0.000 S 
ATOM      5  O   UNL     1       7.894   5.672  18.379  0.00  0.00    +0.000 OA
ATOM      6  O   UNL     1       7.260   7.806  17.156  0.00  0.00    +0.000 OA
ATOM      7  C   UNL     1       6.604   5.541  16.165  0.00  0.00    +0.000 A 
ATOM      8  C   UNL     1       7.491   5.212  15.149  0.00  0.00    +0.000 A 
ATOM      9  C   UNL     1       6.999   4.447  14.098  0.00  0.00    +0.000 A 
ATOM     10  C   UNL     1       5.664   4.034  14.103  0.00  0.00    +0.000 A 
ATOM     11  C   UNL     1       4.798   4.399  15.145  0.00  0.00    +0.000 A 
ATOM     12  C   UNL     1       5.266   5.181  16.193  0.00  0.00    +0.000 A 
ENDROOT
BRANCH   1  13
ATOM     13  C   UNL     1       2.591   6.601  18.677  0.00  0.00    +0.000 A 
ATOM     14  C   UNL     1       2.253   7.939  18.371  0.00  0.00    +0.000 A 
ATOM     15  C   UNL     1       1.641   8.797  19.298  0.00  0.00    +0.000 A 
ATOM     16  C   UNL     1       1.323   8.335  20.564  0.00  0.00    +0.000 A 
ATOM     17 CL   UNL     1       0.553   9.377  21.693  0.00  0.00    +0.000 Cl
ATOM     18  C   UNL     1       1.632   7.031  20.912  0.00  0.00    +0.000 A 
ATOM     19  C   UNL     1       2.271   6.189  19.987  0.00  0.00    +0.000 A 
ENDBRANCH   1  13
BRANCH   1  20
ATOM     20  C   UNL     1       2.286   4.885  16.961  0.00  0.00    +0.000 C 
BRANCH  20  21
ATOM     21  C   UNL     1       2.091   3.509  17.617  0.00  0.00    +0.000 C 
BRANCH  21  22
ATOM     22  O   UNL     1       3.341   2.801  17.722  0.00  0.00    +0.000 OA
BRANCH  22  24
ATOM     23  O   UNL     1       3.920   0.777  18.607  0.00  0.00    +0.000 OA
ATOM     24  C   UNL     1       3.370   1.865  18.718  0.00  0.00    +0.000 C 
BRANCH  24  25
ATOM     25  C   UNL     1       2.660   2.314  19.892  0.00  0.00    +0.000 A 
ATOM     26  C   UNL     1       1.305   2.266  20.169  0.00  0.00    +0.000 A 
ATOM     27  C   UNL     1       1.124   2.852  21.442  0.00  0.00    +0.000 A 
ATOM     28  C   UNL     1       2.377   3.222  21.873  0.00  0.00    +0.000 A 
ATOM     29  O   UNL     1       3.316   2.902  20.941  0.00  0.00    +0.000 OA
ENDBRANCH  24  25
ENDBRANCH  22  24
ENDBRANCH  21  22
ENDBRANCH  20  21
ENDBRANCH   1  20
TORSDOF 6
ENDMDL
MODEL 9
REMARK VINA RESULT:      -7.8      3.269      4.937
REMARK  Name = 
REMARK  6 active torsions:
REMARK  status: ('A' for Active; 'I' for Inactive)
REMARK    1  A    between atoms: C_2  and  O_3
REMARK    2  A    between atoms: C_2  and  C_25
REMARK    3  A    between atoms: O_3  and  C_4
REMARK    4  A    between atoms: C_4  and  C_5
REMARK    5  A    between atoms: C_5  and  N_6
REMARK    6  A    between atoms: N_6  and  C_18
REMARK                            x       y       z     vdW  Elec       q    Type
REMARK                         _______ _______ _______ _____ _____    ______ ____
ROOT
ATOM      1  N   UNL     1       2.341   7.425  18.744  0.00  0.00    +0.000 N 
ATOM      2  C   UNL     1       1.696   8.205  19.734  0.00  0.00    +0.000 C 
ATOM      3  N   UNL     1       1.462   7.749  20.941  0.00  0.00    +0.000 NA
ATOM      4  S   UNL     1       0.573   8.758  21.854  0.00  0.00    +0.000 S 
ATOM      5  O   UNL     1       1.345   9.256  22.971  0.00  0.00    +0.000 OA
ATOM      6  O   UNL     1      -0.770   8.240  22.001  0.00  0.00    +0.000 OA
ATOM      7  C   UNL     1       0.497  10.023  20.675  0.00  0.00    +0.000 A 
ATOM      8  C   UNL     1      -0.146  11.244  20.820  0.00  0.00    +0.000 A 
ATOM      9  C   UNL     1      -0.069  12.135  19.756  0.00  0.00    +0.000 A 
ATOM     10  C   UNL     1       0.645  11.786  18.606  0.00  0.00    +0.000 A 
ATOM     11  C   UNL     1       1.271  10.535  18.497  0.00  0.00    +0.000 A 
ATOM     12  C   UNL     1       1.187   9.624  19.541  0.00  0.00    +0.000 A 
ENDROOT
BRANCH   1  13
ATOM     13  C   UNL     1       2.462   5.989  18.830  0.00  0.00    +0.000 A 
ATOM     14  C   UNL     1       3.368   5.349  19.704  0.00  0.00    +0.000 A 
ATOM     15  C   UNL     1       3.490   3.953  19.782  0.00  0.00    +0.000 A 
ATOM     16  C   UNL     1       2.687   3.144  18.998  0.00  0.00    +0.000 A 
ATOM     17 CL   UNL     1       2.818   1.434  19.108  0.00  0.00    +0.000 Cl
ATOM     18  C   UNL     1       1.780   3.722  18.125  0.00  0.00    +0.000 A 
ATOM     19  C   UNL     1       1.686   5.121  18.034  0.00  0.00    +0.000 A 
ENDBRANCH   1  13
BRANCH   1  20
ATOM     20  C   UNL     1       2.779   7.988  17.457  0.00  0.00    +0.000 C 
BRANCH  20  21
ATOM     21  C   UNL     1       4.268   7.707  17.196  0.00  0.00    +0.000 C 
BRANCH  21  22
ATOM     22  O   UNL     1       4.450   6.440  16.537  0.00  0.00    +0.000 OA
BRANCH  22  24
ATOM     23  O   UNL     1       6.081   5.960  15.011  0.00  0.00    +0.000 OA
ATOM     24  C   UNL     1       5.741   6.184  16.166  0.00  0.00    +0.000 C 
BRANCH  24  25
ATOM     25  C   UNL     1       6.634   6.192  17.300  0.00  0.00    +0.000 A 
ATOM     26  C   UNL     1       6.782   5.254  18.307  0.00  0.00    +0.000 A 
ATOM     27  C   UNL     1       7.773   5.746  19.185  0.00  0.00    +0.000 A 
ATOM     28  C   UNL     1       8.178   6.953  18.666  0.00  0.00    +0.000 A 
ATOM     29  O   UNL     1       7.493   7.235  17.524  0.00  0.00    +0.000 OA
ENDBRANCH  24  25
ENDBRANCH  22  24
ENDBRANCH  21  22
ENDBRANCH  20  21
ENDBRANCH   1  20
TORSDOF 6
ENDMDL
