MODEL 1
REMARK VINA RESULT:      -9.5      0.000      0.000
REMARK  Name = 
REMARK  3 active torsions:
REMARK  status: ('A' for Active; 'I' for Inactive)
REMARK    1  A    between atoms: C_5  and  O_6
REMARK    2  A    between atoms: N_16  and  C_17
REMARK    3  A    between atoms: C_21  and  C_22
REMARK                            x       y       z     vdW  Elec       q    Type
REMARK                         _______ _______ _______ _____ _____    ______ ____
ROOT
ATOM      1  O   UNL     1       4.602   6.017  16.923  0.00  0.00    +0.000 OA
ATOM      2  C   UNL     1       3.835   6.176  17.861  0.00  0.00    +0.000 C 
ATOM      3  C   UNL     1       3.646   5.093  18.888  0.00  0.00    +0.000 A 
ATOM      4  C   UNL     1       4.351   3.888  18.764  0.00  0.00    +0.000 A 
ATOM      5  C   UNL     1       4.152   2.881  19.709  0.00  0.00    +0.000 A 
ATOM      6  C   UNL     1       3.277   3.048  20.778  0.00  0.00    +0.000 A 
ATOM      7  C   UNL     1       2.576   4.236  20.909  0.00  0.00    +0.000 A 
ATOM      8  C   UNL     1       2.749   5.251  19.961  0.00  0.00    +0.000 A 
ATOM      9  C   UNL     1       1.936   6.482  20.106  0.00  0.00    +0.000 C 
ATOM     10  O   UNL     1       1.049   6.496  20.950  0.00  0.00    +0.000 OA
ATOM     11  C   UNL     1       2.213   7.519  19.167  0.00  0.00    +0.000 A 
ATOM     12  C   UNL     1       3.055   7.377  18.090  0.00  0.00    +0.000 A 
ATOM     13  N   UNL     1       2.945   8.470  17.285  0.00  0.00    +0.000 NA
ATOM     14  N   UNL     1       2.041   9.286  17.828  0.00  0.00    +0.000 NA
ATOM     15  N   UNL     1       1.663   8.771  19.028  0.00  0.00    +0.000 N 
ENDROOT
BRANCH  15  16
ATOM     16  C   UNL     1       0.782   9.449  19.899  0.00  0.00    +0.000 A 
ATOM     17  C   UNL     1       0.888   9.302  21.278  0.00  0.00    +0.000 A 
ATOM     18  C   UNL     1       0.157  10.161  22.112  0.00  0.00    +0.000 A 
ATOM     19  F   UNL     1       0.330  10.009  23.434  0.00  0.00    +0.000 F 
ATOM     20  C   UNL     1      -0.694  11.171  21.617  0.00  0.00    +0.000 A 
ATOM     21  C   UNL     1      -0.813  11.232  20.223  0.00  0.00    +0.000 A 
ATOM     22  F   UNL     1      -1.536  12.192  19.628  0.00  0.00    +0.000 F 
ATOM     23  C   UNL     1      -0.139  10.355  19.380  0.00  0.00    +0.000 A 
BRANCH  20  24
ATOM     24  C   UNL     1      -1.408  12.124  22.500  0.00  0.00    +0.000 A 
ATOM     25  C   UNL     1      -2.660  11.811  23.062  0.00  0.00    +0.000 A 
ATOM     26  C   UNL     1      -3.345  12.718  23.880  0.00  0.00    +0.000 A 
ATOM     27  C   UNL     1      -2.778  13.949  24.189  0.00  0.00    +0.000 A 
ATOM     28  C   UNL     1      -1.533  14.278  23.672  0.00  0.00    +0.000 A 
ATOM     29  C   UNL     1      -0.874  13.386  22.827  0.00  0.00    +0.000 A 
ATOM     30  F   UNL     1       0.290  13.798  22.301  0.00  0.00    +0.000 F 
ENDBRANCH  20  24
ENDBRANCH  15  16
BRANCH   5  31
ATOM     31  O   UNL     1       4.798   1.681  19.632  0.00  0.00    +0.000 OA
ATOM     32  H   UNL     1       4.739   1.230  20.496  0.00  0.00    +0.000 HD
ENDBRANCH   5  31
TORSDOF 3
ENDMDL
MODEL 2
REMARK VINA RESULT:      -9.3      4.569      9.210
REMARK  Name = 
REMARK  3 active torsions:
REMARK  status: ('A' for Active; 'I' for Inactive)
REMARK    1  A    between atoms: C_5  and  O_6
REMARK    2  A    between atoms: N_16  and  C_17
REMARK    3  A    between atoms: C_21  and  C_22
REMARK                            x       y       z     vdW  Elec       q    Type
REMARK                         _______ _______ _______ _____ _____    ______ ____
ROOT
ATOM      1  O   UNL     1      -1.511  14.860  19.860  0.00  0.00    +0.000 OA
ATOM      2  C   UNL     1      -0.542  14.191  19.533  0.00  0.00    +0.000 C 
ATOM      3  C   UNL     1       0.686  14.848  18.965  0.00  0.00    +0.000 A 
ATOM      4  C   UNL     1       0.717  16.240  18.804  0.00  0.00    +0.000 A 
ATOM      5  C   UNL     1       1.852  16.838  18.255  0.00  0.00    +0.000 A 
ATOM      6  C   UNL     1       2.959  16.085  17.873  0.00  0.00    +0.000 A 
ATOM      7  C   UNL     1       2.938  14.709  18.030  0.00  0.00    +0.000 A 
ATOM      8  C   UNL     1       1.800  14.089  18.562  0.00  0.00    +0.000 A 
ATOM      9  C   UNL     1       1.797  12.610  18.658  0.00  0.00    +0.000 C 
ATOM     10  O   UNL     1       2.715  11.992  18.133  0.00  0.00    +0.000 OA
ATOM     11  C   UNL     1       0.654  12.035  19.287  0.00  0.00    +0.000 A 
ATOM     12  C   UNL     1      -0.462  12.748  19.655  0.00  0.00    +0.000 A 
ATOM     13  N   UNL     1      -1.443  11.884  20.036  0.00  0.00    +0.000 NA
ATOM     14  N   UNL     1      -0.970  10.645  19.900  0.00  0.00    +0.000 NA
ATOM     15  N   UNL     1       0.340  10.721  19.546  0.00  0.00    +0.000 N 
ENDROOT
BRANCH  15  16
ATOM     16  C   UNL     1       1.158   9.578  19.414  0.00  0.00    +0.000 A 
ATOM     17  C   UNL     1       1.205   8.615  20.416  0.00  0.00    +0.000 A 
ATOM     18  C   UNL     1       1.840   7.391  20.154  0.00  0.00    +0.000 A 
ATOM     19  F   UNL     1       1.818   6.478  21.137  0.00  0.00    +0.000 F 
ATOM     20  C   UNL     1       2.445   7.090  18.916  0.00  0.00    +0.000 A 
ATOM     21  C   UNL     1       2.424   8.119  17.967  0.00  0.00    +0.000 A 
ATOM     22  F   UNL     1       2.905   7.933  16.728  0.00  0.00    +0.000 F 
ATOM     23  C   UNL     1       1.848   9.358  18.225  0.00  0.00    +0.000 A 
BRANCH  20  24
ATOM     24  C   UNL     1       3.050   5.770  18.618  0.00  0.00    +0.000 A 
ATOM     25  C   UNL     1       4.341   5.434  19.067  0.00  0.00    +0.000 A 
ATOM     26  C   UNL     1       4.923   4.195  18.769  0.00  0.00    +0.000 A 
ATOM     27  C   UNL     1       4.213   3.243  18.046  0.00  0.00    +0.000 A 
ATOM     28  C   UNL     1       2.927   3.534  17.610  0.00  0.00    +0.000 A 
ATOM     29  C   UNL     1       2.369   4.784  17.878  0.00  0.00    +0.000 A 
ATOM     30  F   UNL     1       1.154   5.026  17.363  0.00  0.00    +0.000 F 
ENDBRANCH  20  24
ENDBRANCH  15  16
BRANCH   5  31
ATOM     31  O   UNL     1       1.934  18.186  18.058  0.00  0.00    +0.000 OA
ATOM     32  H   UNL     1       1.040  18.537  17.881  0.00  0.00    +0.000 HD
ENDBRANCH   5  31
TORSDOF 3
ENDMDL
MODEL 3
REMARK VINA RESULT:      -9.2      2.245      3.719
REMARK  Name = 
REMARK  3 active torsions:
REMARK  status: ('A' for Active; 'I' for Inactive)
REMARK    1  A    between atoms: C_5  and  O_6
REMARK    2  A    between atoms: N_16  and  C_17
REMARK    3  A    between atoms: C_21  and  C_22
REMARK                            x       y       z     vdW  Elec       q    Type
REMARK                         _______ _______ _______ _____ _____    ______ ____
ROOT
ATOM      1  O   UNL     1       3.556   2.390  18.146  0.00  0.00    +0.000 OA
ATOM      2  C   UNL     1       3.579   3.609  18.061  0.00  0.00    +0.000 C 
ATOM      3  C   UNL     1       4.356   4.286  16.965  0.00  0.00    +0.000 A 
ATOM      4  C   UNL     1       5.064   3.511  16.036  0.00  0.00    +0.000 A 
ATOM      5  C   UNL     1       5.799   4.149  15.036  0.00  0.00    +0.000 A 
ATOM      6  C   UNL     1       5.839   5.537  14.934  0.00  0.00    +0.000 A 
ATOM      7  C   UNL     1       5.141   6.310  15.848  0.00  0.00    +0.000 A 
ATOM      8  C   UNL     1       4.412   5.689  16.869  0.00  0.00    +0.000 A 
ATOM      9  C   UNL     1       3.729   6.554  17.859  0.00  0.00    +0.000 C 
ATOM     10  O   UNL     1       3.955   7.758  17.832  0.00  0.00    +0.000 OA
ATOM     11  C   UNL     1       2.929   5.875  18.825  0.00  0.00    +0.000 A 
ATOM     12  C   UNL     1       2.887   4.508  18.964  0.00  0.00    +0.000 A 
ATOM     13  N   UNL     1       2.196   4.192  20.094  0.00  0.00    +0.000 NA
ATOM     14  N   UNL     1       1.819   5.333  20.674  0.00  0.00    +0.000 NA
ATOM     15  N   UNL     1       2.166   6.364  19.859  0.00  0.00    +0.000 N 
ENDROOT
BRANCH  15  16
ATOM     16  C   UNL     1       1.820   7.704  20.142  0.00  0.00    +0.000 A 
ATOM     17  C   UNL     1       1.505   8.591  19.119  0.00  0.00    +0.000 A 
ATOM     18  C   UNL     1       0.945   9.835  19.447  0.00  0.00    +0.000 A 
ATOM     19  F   UNL     1       0.615  10.637  18.423  0.00  0.00    +0.000 F 
ATOM     20  C   UNL     1       0.691  10.237  20.775  0.00  0.00    +0.000 A 
ATOM     21  C   UNL     1       1.088   9.332  21.767  0.00  0.00    +0.000 A 
ATOM     22  F   UNL     1       0.838   9.567  23.064  0.00  0.00    +0.000 F 
ATOM     23  C   UNL     1       1.693   8.117  21.466  0.00  0.00    +0.000 A 
BRANCH  20  24
ATOM     24  C   UNL     1       0.033  11.521  21.114  0.00  0.00    +0.000 A 
ATOM     25  C   UNL     1      -1.320  11.577  21.496  0.00  0.00    +0.000 A 
ATOM     26  C   UNL     1      -1.949  12.792  21.796  0.00  0.00    +0.000 A 
ATOM     27  C   UNL     1      -1.230  13.982  21.759  0.00  0.00    +0.000 A 
ATOM     28  C   UNL     1       0.114  13.958  21.411  0.00  0.00    +0.000 A 
ATOM     29  C   UNL     1       0.723  12.749  21.076  0.00  0.00    +0.000 A 
ATOM     30  F   UNL     1       2.002  12.807  20.674  0.00  0.00    +0.000 F 
ENDBRANCH  20  24
ENDBRANCH  15  16
BRANCH   5  31
ATOM     31  O   UNL     1       6.521   3.449  14.114  0.00  0.00    +0.000 OA
ATOM     32  H   UNL     1       7.473   3.603  14.269  0.00  0.00    +0.000 HD
ENDBRANCH   5  31
TORSDOF 3
ENDMDL
MODEL 4
REMARK VINA RESULT:      -9.1      2.125      3.709
REMARK  Name = 
REMARK  3 active torsions:
REMARK  status: ('A' for Active; 'I' for Inactive)
REMARK    1  A    between atoms: C_5  and  O_6
REMARK    2  A    between atoms: N_16  and  C_17
REMARK    3  A    between atoms: C_21  and  C_22
REMARK                            x       y       z     vdW  Elec       q    Type
REMARK                         _______ _______ _______ _____ _____    ______ ____
ROOT
ATOM      1  O   UNL     1       3.226   2.448  18.161  0.00  0.00    +0.000 OA
ATOM      2  C   UNL     1       3.289   3.668  18.142  0.00  0.00    +0.000 C 
ATOM      3  C   UNL     1       4.123   4.377  17.110  0.00  0.00    +0.000 A 
ATOM      4  C   UNL     1       4.840   3.630  16.166  0.00  0.00    +0.000 A 
ATOM      5  C   UNL     1       5.629   4.296  15.227  0.00  0.00    +0.000 A 
ATOM      6  C   UNL     1       5.713   5.685  15.200  0.00  0.00    +0.000 A 
ATOM      7  C   UNL     1       5.007   6.431  16.129  0.00  0.00    +0.000 A 
ATOM      8  C   UNL     1       4.224   5.780  17.091  0.00  0.00    +0.000 A 
ATOM      9  C   UNL     1       3.533   6.614  18.102  0.00  0.00    +0.000 C 
ATOM     10  O   UNL     1       3.794   7.810  18.147  0.00  0.00    +0.000 OA
ATOM     11  C   UNL     1       2.679   5.911  19.003  0.00  0.00    +0.000 A 
ATOM     12  C   UNL     1       2.592   4.541  19.068  0.00  0.00    +0.000 A 
ATOM     13  N   UNL     1       1.853   4.188  20.156  0.00  0.00    +0.000 NA
ATOM     14  N   UNL     1       1.489   5.308  20.782  0.00  0.00    +0.000 NA
ATOM     15  N   UNL     1       1.895   6.368  20.035  0.00  0.00    +0.000 N 
ENDROOT
BRANCH  15  16
ATOM     16  C   UNL     1       1.579   7.702  20.378  0.00  0.00    +0.000 A 
ATOM     17  C   UNL     1       1.014   8.564  19.445  0.00  0.00    +0.000 A 
ATOM     18  C   UNL     1       0.503   9.796  19.879  0.00  0.00    +0.000 A 
ATOM     19  F   UNL     1      -0.073  10.572  18.949  0.00  0.00    +0.000 F 
ATOM     20  C   UNL     1       0.541  10.210  21.228  0.00  0.00    +0.000 A 
ATOM     21  C   UNL     1       1.178   9.332  22.112  0.00  0.00    +0.000 A 
ATOM     22  F   UNL     1       1.219   9.580  23.431  0.00  0.00    +0.000 F 
ATOM     23  C   UNL     1       1.739   8.131  21.693  0.00  0.00    +0.000 A 
BRANCH  20  24
ATOM     24  C   UNL     1      -0.065  11.480  21.695  0.00  0.00    +0.000 A 
ATOM     25  C   UNL     1       0.363  12.726  21.200  0.00  0.00    +0.000 A 
ATOM     26  C   UNL     1      -0.194  13.928  21.656  0.00  0.00    +0.000 A 
ATOM     27  C   UNL     1      -1.222  13.914  22.591  0.00  0.00    +0.000 A 
ATOM     28  C   UNL     1      -1.685  12.699  23.080  0.00  0.00    +0.000 A 
ATOM     29  C   UNL     1      -1.099  11.509  22.651  0.00  0.00    +0.000 A 
ATOM     30  F   UNL     1      -1.542  10.378  23.220  0.00  0.00    +0.000 F 
ENDBRANCH  20  24
ENDBRANCH  15  16
BRANCH   5  31
ATOM     31  O   UNL     1       6.362   3.623  14.293  0.00  0.00    +0.000 OA
ATOM     32  H   UNL     1       6.142   3.966  13.406  0.00  0.00    +0.000 HD
ENDBRANCH   5  31
TORSDOF 3
ENDMDL
MODEL 5
REMARK VINA RESULT:      -9.1      2.266      3.952
REMARK  Name = 
REMARK  3 active torsions:
REMARK  status: ('A' for Active; 'I' for Inactive)
REMARK    1  A    between atoms: C_5  and  O_6
REMARK    2  A    between atoms: N_16  and  C_17
REMARK    3  A    between atoms: C_21  and  C_22
REMARK                            x       y       z     vdW  Elec       q    Type
REMARK                         _______ _______ _______ _____ _____    ______ ____
ROOT
ATOM      1  O   UNL     1       3.991   2.341  18.335  0.00  0.00    +0.000 OA
ATOM      2  C   UNL     1       3.884   3.548  18.180  0.00  0.00    +0.000 C 
ATOM      3  C   UNL     1       4.547   4.232  17.016  0.00  0.00    +0.000 A 
ATOM      4  C   UNL     1       5.298   3.479  16.104  0.00  0.00    +0.000 A 
ATOM      5  C   UNL     1       5.928   4.126  15.040  0.00  0.00    +0.000 A 
ATOM      6  C   UNL     1       5.819   5.501  14.857  0.00  0.00    +0.000 A 
ATOM      7  C   UNL     1       5.077   6.254  15.753  0.00  0.00    +0.000 A 
ATOM      8  C   UNL     1       4.453   5.625  16.837  0.00  0.00    +0.000 A 
ATOM      9  C   UNL     1       3.719   6.476  17.803  0.00  0.00    +0.000 C 
ATOM     10  O   UNL     1       3.816   7.692  17.698  0.00  0.00    +0.000 OA
ATOM     11  C   UNL     1       3.028   5.779  18.839  0.00  0.00    +0.000 A 
ATOM     12  C   UNL     1       3.134   4.426  19.057  0.00  0.00    +0.000 A 
ATOM     13  N   UNL     1       2.520   4.111  20.231  0.00  0.00    +0.000 NA
ATOM     14  N   UNL     1       2.046   5.240  20.759  0.00  0.00    +0.000 NA
ATOM     15  N   UNL     1       2.255   6.250  19.873  0.00  0.00    +0.000 N 
ENDROOT
BRANCH  15  16
ATOM     16  C   UNL     1       1.782   7.562  20.094  0.00  0.00    +0.000 A 
ATOM     17  C   UNL     1       1.796   8.506  19.073  0.00  0.00    +0.000 A 
ATOM     18  C   UNL     1       1.110   9.717  19.257  0.00  0.00    +0.000 A 
ATOM     19  F   UNL     1       1.115  10.576  18.226  0.00  0.00    +0.000 F 
ATOM     20  C   UNL     1       0.407  10.028  20.439  0.00  0.00    +0.000 A 
ATOM     21  C   UNL     1       0.480   9.070  21.457  0.00  0.00    +0.000 A 
ATOM     22  F   UNL     1      -0.203   9.217  22.603  0.00  0.00    +0.000 F 
ATOM     23  C   UNL     1       1.199   7.888  21.315  0.00  0.00    +0.000 A 
BRANCH  20  24
ATOM     24  C   UNL     1      -0.377  11.276  20.602  0.00  0.00    +0.000 A 
ATOM     25  C   UNL     1      -0.002  12.265  21.531  0.00  0.00    +0.000 A 
ATOM     26  C   UNL     1      -0.753  13.435  21.701  0.00  0.00    +0.000 A 
ATOM     27  C   UNL     1      -1.879  13.665  20.918  0.00  0.00    +0.000 A 
ATOM     28  C   UNL     1      -2.260  12.721  19.974  0.00  0.00    +0.000 A 
ATOM     29  C   UNL     1      -1.530  11.541  19.838  0.00  0.00    +0.000 A 
ATOM     30  F   UNL     1      -1.997  10.639  18.962  0.00  0.00    +0.000 F 
ENDBRANCH  20  24
ENDBRANCH  15  16
BRANCH   5  31
ATOM     31  O   UNL     1       6.686   3.448  14.130  0.00  0.00    +0.000 OA
ATOM     32  H   UNL     1       6.097   3.021  13.479  0.00  0.00    +0.000 HD
ENDBRANCH   5  31
TORSDOF 3
ENDMDL
MODEL 6
REMARK VINA RESULT:      -9.0      4.036      9.017
REMARK  Name = 
REMARK  3 active torsions:
REMARK  status: ('A' for Active; 'I' for Inactive)
REMARK    1  A    between atoms: C_5  and  O_6
REMARK    2  A    between atoms: N_16  and  C_17
REMARK    3  A    between atoms: C_21  and  C_22
REMARK                            x       y       z     vdW  Elec       q    Type
REMARK                         _______ _______ _______ _____ _____    ______ ____
ROOT
ATOM      1  O   UNL     1      -3.133  13.488  21.022  0.00  0.00    +0.000 OA
ATOM      2  C   UNL     1      -2.710  12.566  20.342  0.00  0.00    +0.000 C 
ATOM      3  C   UNL     1      -3.464  12.103  19.125  0.00  0.00    +0.000 A 
ATOM      4  C   UNL     1      -4.666  12.731  18.773  0.00  0.00    +0.000 A 
ATOM      5  C   UNL     1      -5.369  12.279  17.655  0.00  0.00    +0.000 A 
ATOM      6  C   UNL     1      -4.900  11.225  16.877  0.00  0.00    +0.000 A 
ATOM      7  C   UNL     1      -3.712  10.599  17.217  0.00  0.00    +0.000 A 
ATOM      8  C   UNL     1      -3.001  11.026  18.345  0.00  0.00    +0.000 A 
ATOM      9  C   UNL     1      -1.767  10.290  18.707  0.00  0.00    +0.000 C 
ATOM     10  O   UNL     1      -1.507   9.259  18.101  0.00  0.00    +0.000 OA
ATOM     11  C   UNL     1      -1.034  10.820  19.811  0.00  0.00    +0.000 A 
ATOM     12  C   UNL     1      -1.481  11.844  20.610  0.00  0.00    +0.000 A 
ATOM     13  N   UNL     1      -0.652  11.972  21.683  0.00  0.00    +0.000 NA
ATOM     14  N   UNL     1       0.296  11.040  21.579  0.00  0.00    +0.000 NA
ATOM     15  N   UNL     1       0.139  10.398  20.391  0.00  0.00    +0.000 N 
ENDROOT
BRANCH  15  16
ATOM     16  C   UNL     1       1.044   9.414  19.936  0.00  0.00    +0.000 A 
ATOM     17  C   UNL     1       1.288   8.268  20.684  0.00  0.00    +0.000 A 
ATOM     18  C   UNL     1       2.005   7.213  20.099  0.00  0.00    +0.000 A 
ATOM     19  F   UNL     1       2.175   6.111  20.845  0.00  0.00    +0.000 F 
ATOM     20  C   UNL     1       2.501   7.262  18.779  0.00  0.00    +0.000 A 
ATOM     21  C   UNL     1       2.282   8.464  18.094  0.00  0.00    +0.000 A 
ATOM     22  F   UNL     1       2.644   8.610  16.811  0.00  0.00    +0.000 F 
ATOM     23  C   UNL     1       1.621   9.540  18.675  0.00  0.00    +0.000 A 
BRANCH  20  24
ATOM     24  C   UNL     1       3.194   6.119  18.139  0.00  0.00    +0.000 A 
ATOM     25  C   UNL     1       4.566   6.170  17.828  0.00  0.00    +0.000 A 
ATOM     26  C   UNL     1       5.218   5.098  17.205  0.00  0.00    +0.000 A 
ATOM     27  C   UNL     1       4.524   3.931  16.910  0.00  0.00    +0.000 A 
ATOM     28  C   UNL     1       3.175   3.838  17.228  0.00  0.00    +0.000 A 
ATOM     29  C   UNL     1       2.524   4.924  17.813  0.00  0.00    +0.000 A 
ATOM     30  F   UNL     1       1.205   4.795  18.023  0.00  0.00    +0.000 F 
ENDBRANCH  20  24
ENDBRANCH  15  16
BRANCH   5  31
ATOM     31  O   UNL     1      -6.553  12.840  17.273  0.00  0.00    +0.000 OA
ATOM     32  H   UNL     1      -7.284  12.242  17.519  0.00  0.00    +0.000 HD
ENDBRANCH   5  31
TORSDOF 3
ENDMDL
MODEL 7
REMARK VINA RESULT:      -9.0      4.488      9.120
REMARK  Name = 
REMARK  3 active torsions:
REMARK  status: ('A' for Active; 'I' for Inactive)
REMARK    1  A    between atoms: C_5  and  O_6
REMARK    2  A    between atoms: N_16  and  C_17
REMARK    3  A    between atoms: C_21  and  C_22
REMARK                            x       y       z     vdW  Elec       q    Type
REMARK                         _______ _______ _______ _____ _____    ______ ____
ROOT
ATOM      1  O   UNL     1      -1.206  14.744  20.076  0.00  0.00    +0.000 OA
ATOM      2  C   UNL     1      -0.284  14.045  19.684  0.00  0.00    +0.000 C 
ATOM      3  C   UNL     1       0.921  14.662  19.029  0.00  0.00    +0.000 A 
ATOM      4  C   UNL     1       0.985  16.052  18.862  0.00  0.00    +0.000 A 
ATOM      5  C   UNL     1       2.097  16.613  18.233  0.00  0.00    +0.000 A 
ATOM      6  C   UNL     1       3.150  15.826  17.777  0.00  0.00    +0.000 A 
ATOM      7  C   UNL     1       3.096  14.451  17.938  0.00  0.00    +0.000 A 
ATOM      8  C   UNL     1       1.980  13.868  18.551  0.00  0.00    +0.000 A 
ATOM      9  C   UNL     1       1.937  12.390  18.650  0.00  0.00    +0.000 C 
ATOM     10  O   UNL     1       2.795  11.743  18.065  0.00  0.00    +0.000 OA
ATOM     11  C   UNL     1       0.823  11.852  19.360  0.00  0.00    +0.000 A 
ATOM     12  C   UNL     1      -0.241  12.600  19.803  0.00  0.00    +0.000 A 
ATOM     13  N   UNL     1      -1.220  11.768  20.256  0.00  0.00    +0.000 NA
ATOM     14  N   UNL     1      -0.797  10.514  20.090  0.00  0.00    +0.000 NA
ATOM     15  N   UNL     1       0.486  10.549  19.644  0.00  0.00    +0.000 N 
ENDROOT
BRANCH  15  16
ATOM     16  C   UNL     1       1.257   9.380  19.458  0.00  0.00    +0.000 A 
ATOM     17  C   UNL     1       1.276   8.378  20.422  0.00  0.00    +0.000 A 
ATOM     18  C   UNL     1       1.859   7.141  20.106  0.00  0.00    +0.000 A 
ATOM     19  F   UNL     1       1.812   6.192  21.053  0.00  0.00    +0.000 F 
ATOM     20  C   UNL     1       2.437   6.864  18.849  0.00  0.00    +0.000 A 
ATOM     21  C   UNL     1       2.447   7.929  17.940  0.00  0.00    +0.000 A 
ATOM     22  F   UNL     1       2.906   7.772  16.689  0.00  0.00    +0.000 F 
ATOM     23  C   UNL     1       1.924   9.179  18.253  0.00  0.00    +0.000 A 
BRANCH  20  24
ATOM     24  C   UNL     1       2.986   5.534  18.493  0.00  0.00    +0.000 A 
ATOM     25  C   UNL     1       2.244   4.610  17.734  0.00  0.00    +0.000 A 
ATOM     26  C   UNL     1       2.753   3.345  17.415  0.00  0.00    +0.000 A 
ATOM     27  C   UNL     1       4.035   2.984  17.814  0.00  0.00    +0.000 A 
ATOM     28  C   UNL     1       4.803   3.883  18.543  0.00  0.00    +0.000 A 
ATOM     29  C   UNL     1       4.275   5.126  18.890  0.00  0.00    +0.000 A 
ATOM     30  F   UNL     1       5.041   5.915  19.658  0.00  0.00    +0.000 F 
ENDBRANCH  20  24
ENDBRANCH  15  16
BRANCH   5  31
ATOM     31  O   UNL     1       2.207  17.958  18.027  0.00  0.00    +0.000 OA
ATOM     32  H   UNL     1       3.112  18.161  17.723  0.00  0.00    +0.000 HD
ENDBRANCH   5  31
TORSDOF 3
ENDMDL
MODEL 8
REMARK VINA RESULT:      -8.9      4.066      8.969
REMARK  Name = 
REMARK  3 active torsions:
REMARK  status: ('A' for Active; 'I' for Inactive)
REMARK    1  A    between atoms: C_5  and  O_6
REMARK    2  A    between atoms: N_16  and  C_17
REMARK    3  A    between atoms: C_21  and  C_22
REMARK                            x       y       z     vdW  Elec       q    Type
REMARK                         _______ _______ _______ _____ _____    ______ ____
ROOT
ATOM      1  O   UNL     1      -2.957  13.827  21.231  0.00  0.00    +0.000 OA
ATOM      2  C   UNL     1      -2.623  12.855  20.570  0.00  0.00    +0.000 C 
ATOM      3  C   UNL     1      -3.505  12.341  19.465  0.00  0.00    +0.000 A 
ATOM      4  C   UNL     1      -4.723  12.979  19.195  0.00  0.00    +0.000 A 
ATOM      5  C   UNL     1      -5.544  12.480  18.183  0.00  0.00    +0.000 A 
ATOM      6  C   UNL     1      -5.178  11.370  17.428  0.00  0.00    +0.000 A 
ATOM      7  C   UNL     1      -3.974  10.734  17.687  0.00  0.00    +0.000 A 
ATOM      8  C   UNL     1      -3.145  11.208  18.711  0.00  0.00    +0.000 A 
ATOM      9  C   UNL     1      -1.896  10.463  18.993  0.00  0.00    +0.000 C 
ATOM     10  O   UNL     1      -1.719   9.390  18.429  0.00  0.00    +0.000 OA
ATOM     11  C   UNL     1      -1.045  11.036  19.983  0.00  0.00    +0.000 A 
ATOM     12  C   UNL     1      -1.388  12.118  20.759  0.00  0.00    +0.000 A 
ATOM     13  N   UNL     1      -0.453  12.287  21.734  0.00  0.00    +0.000 NA
ATOM     14  N   UNL     1       0.460  11.325  21.595  0.00  0.00    +0.000 NA
ATOM     15  N   UNL     1       0.171  10.619  20.470  0.00  0.00    +0.000 N 
ENDROOT
BRANCH  15  16
ATOM     16  C   UNL     1       1.005   9.586  19.988  0.00  0.00    +0.000 A 
ATOM     17  C   UNL     1       1.218   8.433  20.736  0.00  0.00    +0.000 A 
ATOM     18  C   UNL     1       1.856   7.339  20.132  0.00  0.00    +0.000 A 
ATOM     19  F   UNL     1       1.997   6.234  20.881  0.00  0.00    +0.000 F 
ATOM     20  C   UNL     1       2.303   7.353  18.794  0.00  0.00    +0.000 A 
ATOM     21  C   UNL     1       2.121   8.561  18.109  0.00  0.00    +0.000 A 
ATOM     22  F   UNL     1       2.440   8.680  16.811  0.00  0.00    +0.000 F 
ATOM     23  C   UNL     1       1.540   9.674  18.706  0.00  0.00    +0.000 A 
BRANCH  20  24
ATOM     24  C   UNL     1       2.911   6.171  18.138  0.00  0.00    +0.000 A 
ATOM     25  C   UNL     1       2.192   4.974  17.965  0.00  0.00    +0.000 A 
ATOM     26  C   UNL     1       2.771   3.849  17.364  0.00  0.00    +0.000 A 
ATOM     27  C   UNL     1       4.075   3.905  16.884  0.00  0.00    +0.000 A 
ATOM     28  C   UNL     1       4.803   5.080  17.015  0.00  0.00    +0.000 A 
ATOM     29  C   UNL     1       4.232   6.183  17.650  0.00  0.00    +0.000 A 
ATOM     30  F   UNL     1       5.016   7.260  17.811  0.00  0.00    +0.000 F 
ENDBRANCH  20  24
ENDBRANCH  15  16
BRANCH   5  31
ATOM     31  O   UNL     1      -6.749  13.049  17.886  0.00  0.00    +0.000 OA
ATOM     32  H   UNL     1      -6.597  13.922  17.476  0.00  0.00    +0.000 HD
ENDBRANCH   5  31
TORSDOF 3
ENDMDL
MODEL 9
REMARK VINA RESULT:      -8.7      0.831      1.209
REMARK  Name = 
REMARK  3 active torsions:
REMARK  status: ('A' for Active; 'I' for Inactive)
REMARK    1  A    between atoms: C_5  and  O_6
REMARK    2  A    between atoms: N_16  and  C_17
REMARK    3  A    between atoms: C_21  and  C_22
REMARK                            x       y       z     vdW  Elec       q    Type
REMARK                         _______ _______ _______ _____ _____    ______ ____
ROOT
ATOM      1  O   UNL     1       4.758   5.614  16.846  0.00  0.00    +0.000 OA
ATOM      2  C   UNL     1       3.991   5.831  17.771  0.00  0.00    +0.000 C 
ATOM      3  C   UNL     1       3.783   4.806  18.851  0.00  0.00    +0.000 A 
ATOM      4  C   UNL     1       4.474   3.587  18.794  0.00  0.00    +0.000 A 
ATOM      5  C   UNL     1       4.258   2.634  19.790  0.00  0.00    +0.000 A 
ATOM      6  C   UNL     1       3.380   2.868  20.844  0.00  0.00    +0.000 A 
ATOM      7  C   UNL     1       2.694   4.070  20.910  0.00  0.00    +0.000 A 
ATOM      8  C   UNL     1       2.884   5.032  19.910  0.00  0.00    +0.000 A 
ATOM      9  C   UNL     1       2.087   6.279  19.987  0.00  0.00    +0.000 C 
ATOM     10  O   UNL     1       1.197   6.348  20.825  0.00  0.00    +0.000 OA
ATOM     11  C   UNL     1       2.381   7.262  18.997  0.00  0.00    +0.000 A 
ATOM     12  C   UNL     1       3.225   7.052  17.933  0.00  0.00    +0.000 A 
ATOM     13  N   UNL     1       3.132   8.103  17.071  0.00  0.00    +0.000 NA
ATOM     14  N   UNL     1       2.236   8.958  17.566  0.00  0.00    +0.000 NA
ATOM     15  N   UNL     1       1.847   8.512  18.789  0.00  0.00    +0.000 N 
ENDROOT
BRANCH  15  16
ATOM     16  C   UNL     1       0.972   9.245  19.621  0.00  0.00    +0.000 A 
ATOM     17  C   UNL     1       1.150   9.269  20.999  0.00  0.00    +0.000 A 
ATOM     18  C   UNL     1       0.412  10.186  21.764  0.00  0.00    +0.000 A 
ATOM     19  F   UNL     1       0.653  10.202  23.084  0.00  0.00    +0.000 F 
ATOM     20  C   UNL     1      -0.515  11.087  21.199  0.00  0.00    +0.000 A 
ATOM     21  C   UNL     1      -0.701  10.975  19.816  0.00  0.00    +0.000 A 
ATOM     22  F   UNL     1      -1.502  11.820  19.150  0.00  0.00    +0.000 F 
ATOM     23  C   UNL     1      -0.020  10.037  19.048  0.00  0.00    +0.000 A 
BRANCH  20  24
ATOM     24  C   UNL     1      -1.238  12.103  22.000  0.00  0.00    +0.000 A 
ATOM     25  C   UNL     1      -1.141  13.476  21.709  0.00  0.00    +0.000 A 
ATOM     26  C   UNL     1      -1.807  14.439  22.479  0.00  0.00    +0.000 A 
ATOM     27  C   UNL     1      -2.620  14.050  23.537  0.00  0.00    +0.000 A 
ATOM     28  C   UNL     1      -2.758  12.700  23.834  0.00  0.00    +0.000 A 
ATOM     29  C   UNL     1      -2.061  11.751  23.088  0.00  0.00    +0.000 A 
ATOM     30  F   UNL     1      -2.178  10.472  23.477  0.00  0.00    +0.000 F 
ENDBRANCH  20  24
ENDBRANCH  15  16
BRANCH   5  31
ATOM     31  O   UNL     1       4.888   1.424  19.778  0.00  0.00    +0.000 OA
ATOM     32  H   UNL     1       4.222   0.716  19.870  0.00  0.00    +0.000 HD
ENDBRANCH   5  31
TORSDOF 3
ENDMDL
