MODEL 1
REMARK VINA RESULT:      -8.2      0.000      0.000
REMARK  Name = 
REMARK  10 active torsions:
REMARK  status: ('A' for Active; 'I' for Inactive)
REMARK    1  A    between atoms: C_1  and  O_2
REMARK    2  A    between atoms: O_2  and  C_3
REMARK    3  A    between atoms: C_6  and  O_7
REMARK    4  A    between atoms: O_7  and  C_8
REMARK    5  A    between atoms: C_9  and  C_10
REMARK    6  A    between atoms: C_20  and  C_21
REMARK    7  A    between atoms: C_23  and  O_24
REMARK    8  A    between atoms: O_24  and  C_25
REMARK    9  A    between atoms: C_28  and  O_29
REMARK   10  A    between atoms: O_29  and  C_30
REMARK                            x       y       z     vdW  Elec       q    Type
REMARK                         _______ _______ _______ _____ _____    ______ ____
ROOT
ATOM      1  C   UNL     1       1.979   8.298  18.591  0.00  0.00    +0.000 A 
ATOM      2  N   UNL     1       2.844   8.560  17.613  0.00  0.00    +0.000 NA
ATOM      3  N   UNL     1       3.714   7.493  17.461  0.00  0.00    +0.000 NA
ATOM      4  C   UNL     1       3.337   6.589  18.326  0.00  0.00    +0.000 A 
ATOM      5  N   UNL     1       2.202   6.990  18.998  0.00  0.00    +0.000 N 
ATOM      6  C   UNL     1       1.527   6.128  19.859  0.00  0.00    +0.000 A 
ATOM      7  C   UNL     1       2.074   4.951  20.216  0.00  0.00    +0.000 A 
ATOM      8  C   UNL     1       3.320   4.565  19.652  0.00  0.00    +0.000 A 
ATOM      9  N   UNL     1       4.101   3.542  19.904  0.00  0.00    +0.000 NA
ATOM     10  N   UNL     1       5.117   3.564  18.983  0.00  0.00    +0.000 NA
ATOM     11  C   UNL     1       4.947   4.587  18.153  0.00  0.00    +0.000 A 
ATOM     12  N   UNL     1       3.886   5.349  18.642  0.00  0.00    +0.000 N 
ENDROOT
BRANCH   1  17
ATOM     13  C   UNL     1      -0.852  10.805  18.533  0.00  0.00    +0.000 A 
ATOM     14  C   UNL     1      -1.051  11.065  19.884  0.00  0.00    +0.000 A 
ATOM     15  C   UNL     1      -0.252  10.454  20.844  0.00  0.00    +0.000 A 
ATOM     16  C   UNL     1       0.747   9.545  20.469  0.00  0.00    +0.000 A 
ATOM     17  C   UNL     1       0.954   9.241  19.102  0.00  0.00    +0.000 A 
ATOM     18  C   UNL     1       0.147   9.904  18.148  0.00  0.00    +0.000 A 
BRANCH  13  20
ATOM     19  C   UNL     1      -3.056  11.577  18.091  0.00  0.00    +0.000 C 
ATOM     20  O   UNL     1      -1.691  11.497  17.706  0.00  0.00    +0.000 OA
ENDBRANCH  13  20
BRANCH  16  21
ATOM     21  O   UNL     1       1.591   9.002  21.407  0.00  0.00    +0.000 OA
ATOM     22  C   UNL     1       1.246   9.257  22.773  0.00  0.00    +0.000 C 
ENDBRANCH  16  21
ENDBRANCH   1  17
BRANCH  11  23
ATOM     23  C   UNL     1       5.672   4.729  16.871  0.00  0.00    +0.000 A 
ATOM     24  C   UNL     1       5.056   4.296  15.683  0.00  0.00    +0.000 A 
ATOM     25  C   UNL     1       5.743   4.259  14.465  0.00  0.00    +0.000 A 
ATOM     26  C   UNL     1       7.048   4.724  14.404  0.00  0.00    +0.000 A 
ATOM     27  C   UNL     1       7.687   5.151  15.564  0.00  0.00    +0.000 A 
ATOM     28  C   UNL     1       7.029   5.121  16.807  0.00  0.00    +0.000 A 
BRANCH  25  29
ATOM     29  O   UNL     1       5.040   3.754  13.404  0.00  0.00    +0.000 OA
ATOM     30  C   UNL     1       5.832   3.302  12.309  0.00  0.00    +0.000 C 
ENDBRANCH  25  29
BRANCH  28  31
ATOM     31  O   UNL     1       7.673   5.486  17.965  0.00  0.00    +0.000 OA
ATOM     32  C   UNL     1       7.806   6.891  18.200  0.00  0.00    +0.000 C 
ENDBRANCH  28  31
ENDBRANCH  11  23
TORSDOF 6
ENDMDL
MODEL 2
REMARK VINA RESULT:      -8.1      1.068      2.210
REMARK  Name = 
REMARK  10 active torsions:
REMARK  status: ('A' for Active; 'I' for Inactive)
REMARK    1  A    between atoms: C_1  and  O_2
REMARK    2  A    between atoms: O_2  and  C_3
REMARK    3  A    between atoms: C_6  and  O_7
REMARK    4  A    between atoms: O_7  and  C_8
REMARK    5  A    between atoms: C_9  and  C_10
REMARK    6  A    between atoms: C_20  and  C_21
REMARK    7  A    between atoms: C_23  and  O_24
REMARK    8  A    between atoms: O_24  and  C_25
REMARK    9  A    between atoms: C_28  and  O_29
REMARK   10  A    between atoms: O_29  and  C_30
REMARK                            x       y       z     vdW  Elec       q    Type
REMARK                         _______ _______ _______ _____ _____    ______ ____
ROOT
ATOM      1  C   UNL     1       1.930   8.204  19.110  0.00  0.00    +0.000 A 
ATOM      2  N   UNL     1       2.846   8.464  18.179  0.00  0.00    +0.000 NA
ATOM      3  N   UNL     1       3.662   7.359  18.005  0.00  0.00    +0.000 NA
ATOM      4  C   UNL     1       3.202   6.436  18.808  0.00  0.00    +0.000 A 
ATOM      5  N   UNL     1       2.065   6.868  19.458  0.00  0.00    +0.000 N 
ATOM      6  C   UNL     1       1.310   6.004  20.249  0.00  0.00    +0.000 A 
ATOM      7  C   UNL     1       1.778   4.782  20.565  0.00  0.00    +0.000 A 
ATOM      8  C   UNL     1       3.022   4.354  20.028  0.00  0.00    +0.000 A 
ATOM      9  N   UNL     1       3.736   3.277  20.256  0.00  0.00    +0.000 NA
ATOM     10  N   UNL     1       4.787   3.287  19.376  0.00  0.00    +0.000 NA
ATOM     11  C   UNL     1       4.706   4.357  18.593  0.00  0.00    +0.000 A 
ATOM     12  N   UNL     1       3.670   5.153  19.081  0.00  0.00    +0.000 N 
ENDROOT
BRANCH   1  17
ATOM     13  C   UNL     1       0.053  10.339  21.604  0.00  0.00    +0.000 A 
ATOM     14  C   UNL     1      -0.869  11.000  20.800  0.00  0.00    +0.000 A 
ATOM     15  C   UNL     1      -0.922  10.747  19.434  0.00  0.00    +0.000 A 
ATOM     16  C   UNL     1      -0.029   9.844  18.839  0.00  0.00    +0.000 A 
ATOM     17  C   UNL     1       0.938   9.177  19.630  0.00  0.00    +0.000 A 
ATOM     18  C   UNL     1       0.944   9.431  21.022  0.00  0.00    +0.000 A 
BRANCH  13  20
ATOM     19  C   UNL     1      -1.238  11.272  23.368  0.00  0.00    +0.000 C 
ATOM     20  O   UNL     1      -0.031  10.667  22.928  0.00  0.00    +0.000 OA
ENDBRANCH  13  20
BRANCH  16  21
ATOM     21  O   UNL     1      -0.130   9.531  17.506  0.00  0.00    +0.000 OA
ATOM     22  C   UNL     1      -1.421   9.725  16.919  0.00  0.00    +0.000 C 
ENDBRANCH  16  21
ENDBRANCH   1  17
BRANCH  11  23
ATOM     23  C   UNL     1       5.488   4.520  17.348  0.00  0.00    +0.000 A 
ATOM     24  C   UNL     1       4.861   4.294  16.110  0.00  0.00    +0.000 A 
ATOM     25  C   UNL     1       5.579   4.280  14.908  0.00  0.00    +0.000 A 
ATOM     26  C   UNL     1       6.937   4.563  14.923  0.00  0.00    +0.000 A 
ATOM     27  C   UNL     1       7.587   4.784  16.134  0.00  0.00    +0.000 A 
ATOM     28  C   UNL     1       6.887   4.725  17.352  0.00  0.00    +0.000 A 
BRANCH  25  29
ATOM     29  O   UNL     1       4.851   3.982  13.787  0.00  0.00    +0.000 OA
ATOM     30  C   UNL     1       5.609   3.510  12.678  0.00  0.00    +0.000 C 
ENDBRANCH  25  29
BRANCH  28  31
ATOM     31  O   UNL     1       7.534   4.884  18.555  0.00  0.00    +0.000 OA
ATOM     32  C   UNL     1       7.894   6.222  18.909  0.00  0.00    +0.000 C 
ENDBRANCH  28  31
ENDBRANCH  11  23
TORSDOF 6
ENDMDL
MODEL 3
REMARK VINA RESULT:      -8.0      3.029      8.533
REMARK  Name = 
REMARK  10 active torsions:
REMARK  status: ('A' for Active; 'I' for Inactive)
REMARK    1  A    between atoms: C_1  and  O_2
REMARK    2  A    between atoms: O_2  and  C_3
REMARK    3  A    between atoms: C_6  and  O_7
REMARK    4  A    between atoms: O_7  and  C_8
REMARK    5  A    between atoms: C_9  and  C_10
REMARK    6  A    between atoms: C_20  and  C_21
REMARK    7  A    between atoms: C_23  and  O_24
REMARK    8  A    between atoms: O_24  and  C_25
REMARK    9  A    between atoms: C_28  and  O_29
REMARK   10  A    between atoms: O_29  and  C_30
REMARK                            x       y       z     vdW  Elec       q    Type
REMARK                         _______ _______ _______ _____ _____    ______ ____
ROOT
ATOM      1  C   UNL     1       2.424   7.601  18.240  0.00  0.00    +0.000 A 
ATOM      2  N   UNL     1       2.428   8.691  17.476  0.00  0.00    +0.000 NA
ATOM      3  N   UNL     1       1.779   9.724  18.132  0.00  0.00    +0.000 NA
ATOM      4  C   UNL     1       1.425   9.250  19.298  0.00  0.00    +0.000 A 
ATOM      5  N   UNL     1       1.880   7.959  19.466  0.00  0.00    +0.000 N 
ATOM      6  C   UNL     1       1.758   7.300  20.687  0.00  0.00    +0.000 A 
ATOM      7  C   UNL     1       1.013   7.828  21.676  0.00  0.00    +0.000 A 
ATOM      8  C   UNL     1       0.405   9.099  21.486  0.00  0.00    +0.000 A 
ATOM      9  N   UNL     1      -0.436   9.773  22.234  0.00  0.00    +0.000 NA
ATOM     10  N   UNL     1      -0.603  11.005  21.655  0.00  0.00    +0.000 NA
ATOM     11  C   UNL     1       0.152  11.094  20.565  0.00  0.00    +0.000 A 
ATOM     12  N   UNL     1       0.700   9.833  20.334  0.00  0.00    +0.000 N 
ENDROOT
BRANCH   1  17
ATOM     13  C   UNL     1       2.465   3.878  17.571  0.00  0.00    +0.000 A 
ATOM     14  C   UNL     1       3.761   3.670  17.112  0.00  0.00    +0.000 A 
ATOM     15  C   UNL     1       4.660   4.727  17.037  0.00  0.00    +0.000 A 
ATOM     16  C   UNL     1       4.269   6.025  17.393  0.00  0.00    +0.000 A 
ATOM     17  C   UNL     1       2.947   6.272  17.838  0.00  0.00    +0.000 A 
ATOM     18  C   UNL     1       2.066   5.169  17.936  0.00  0.00    +0.000 A 
BRANCH  13  20
ATOM     19  C   UNL     1       0.917   2.542  18.783  0.00  0.00    +0.000 C 
ATOM     20  O   UNL     1       1.704   2.744  17.618  0.00  0.00    +0.000 OA
ENDBRANCH  13  20
BRANCH  16  21
ATOM     21  O   UNL     1       5.176   7.057  17.396  0.00  0.00    +0.000 OA
ATOM     22  C   UNL     1       6.533   6.690  17.130  0.00  0.00    +0.000 C 
ENDBRANCH  16  21
ENDBRANCH   1  17
BRANCH  11  23
ATOM     23  C   UNL     1       0.449  12.370  19.878  0.00  0.00    +0.000 A 
ATOM     24  C   UNL     1       1.675  13.013  20.126  0.00  0.00    +0.000 A 
ATOM     25  C   UNL     1       1.952  14.293  19.632  0.00  0.00    +0.000 A 
ATOM     26  C   UNL     1       1.024  14.924  18.817  0.00  0.00    +0.000 A 
ATOM     27  C   UNL     1      -0.202  14.316  18.560  0.00  0.00    +0.000 A 
ATOM     28  C   UNL     1      -0.519  13.064  19.115  0.00  0.00    +0.000 A 
BRANCH  25  29
ATOM     29  O   UNL     1       3.158  14.823  20.004  0.00  0.00    +0.000 OA
ATOM     30  C   UNL     1       3.620  14.434  21.295  0.00  0.00    +0.000 C 
ENDBRANCH  25  29
BRANCH  28  31
ATOM     31  O   UNL     1      -1.750  12.484  18.913  0.00  0.00    +0.000 OA
ATOM     32  C   UNL     1      -1.906  11.734  17.705  0.00  0.00    +0.000 C 
ENDBRANCH  28  31
ENDBRANCH  11  23
TORSDOF 6
ENDMDL
MODEL 4
REMARK VINA RESULT:      -7.8      2.785      8.492
REMARK  Name = 
REMARK  10 active torsions:
REMARK  status: ('A' for Active; 'I' for Inactive)
REMARK    1  A    between atoms: C_1  and  O_2
REMARK    2  A    between atoms: O_2  and  C_3
REMARK    3  A    between atoms: C_6  and  O_7
REMARK    4  A    between atoms: O_7  and  C_8
REMARK    5  A    between atoms: C_9  and  C_10
REMARK    6  A    between atoms: C_20  and  C_21
REMARK    7  A    between atoms: C_23  and  O_24
REMARK    8  A    between atoms: O_24  and  C_25
REMARK    9  A    between atoms: C_28  and  O_29
REMARK   10  A    between atoms: O_29  and  C_30
REMARK                            x       y       z     vdW  Elec       q    Type
REMARK                         _______ _______ _______ _____ _____    ______ ____
ROOT
ATOM      1  C   UNL     1       2.873   7.413  17.966  0.00  0.00    +0.000 A 
ATOM      2  N   UNL     1       2.816   8.531  17.244  0.00  0.00    +0.000 NA
ATOM      3  N   UNL     1       2.048   9.475  17.904  0.00  0.00    +0.000 NA
ATOM      4  C   UNL     1       1.683   8.924  19.032  0.00  0.00    +0.000 A 
ATOM      5  N   UNL     1       2.242   7.672  19.175  0.00  0.00    +0.000 N 
ATOM      6  C   UNL     1       2.121   6.955  20.363  0.00  0.00    +0.000 A 
ATOM      7  C   UNL     1       1.286   7.375  21.333  0.00  0.00    +0.000 A 
ATOM      8  C   UNL     1       0.578   8.595  21.159  0.00  0.00    +0.000 A 
ATOM      9  N   UNL     1      -0.354   9.162  21.887  0.00  0.00    +0.000 NA
ATOM     10  N   UNL     1      -0.602  10.397  21.347  0.00  0.00    +0.000 NA
ATOM     11  C   UNL     1       0.193  10.597  20.301  0.00  0.00    +0.000 A 
ATOM     12  N   UNL     1       0.861   9.399  20.051  0.00  0.00    +0.000 N 
ENDROOT
BRANCH   1  17
ATOM     13  C   UNL     1       5.555   5.109  16.623  0.00  0.00    +0.000 A 
ATOM     14  C   UNL     1       4.942   3.863  16.692  0.00  0.00    +0.000 A 
ATOM     15  C   UNL     1       3.634   3.745  17.148  0.00  0.00    +0.000 A 
ATOM     16  C   UNL     1       2.921   4.874  17.574  0.00  0.00    +0.000 A 
ATOM     17  C   UNL     1       3.530   6.152  17.542  0.00  0.00    +0.000 A 
ATOM     18  C   UNL     1       4.850   6.243  17.040  0.00  0.00    +0.000 A 
BRANCH  13  20
ATOM     19  C   UNL     1       6.977   4.785  14.746  0.00  0.00    +0.000 C 
ATOM     20  O   UNL     1       6.828   5.074  16.129  0.00  0.00    +0.000 OA
ENDBRANCH  13  20
BRANCH  16  21
ATOM     21  O   UNL     1       1.604   4.773  17.950  0.00  0.00    +0.000 OA
ATOM     22  C   UNL     1       1.281   3.657  18.786  0.00  0.00    +0.000 C 
ENDBRANCH  16  21
ENDBRANCH   1  17
BRANCH  11  23
ATOM     23  C   UNL     1       0.407  11.921  19.678  0.00  0.00    +0.000 A 
ATOM     24  C   UNL     1       1.614  12.603  19.915  0.00  0.00    +0.000 A 
ATOM     25  C   UNL     1       1.816  13.920  19.484  0.00  0.00    +0.000 A 
ATOM     26  C   UNL     1       0.830  14.553  18.743  0.00  0.00    +0.000 A 
ATOM     27  C   UNL     1      -0.378  13.907  18.499  0.00  0.00    +0.000 A 
ATOM     28  C   UNL     1      -0.619  12.612  18.992  0.00  0.00    +0.000 A 
BRANCH  25  29
ATOM     29  O   UNL     1       3.013  14.481  19.841  0.00  0.00    +0.000 OA
ATOM     30  C   UNL     1       3.947  14.647  18.778  0.00  0.00    +0.000 C 
ENDBRANCH  25  29
BRANCH  28  31
ATOM     31  O   UNL     1      -1.832  11.991  18.805  0.00  0.00    +0.000 OA
ATOM     32  C   UNL     1      -2.118  11.550  17.475  0.00  0.00    +0.000 C 
ENDBRANCH  28  31
ENDBRANCH  11  23
TORSDOF 6
ENDMDL
MODEL 5
REMARK VINA RESULT:      -7.3      1.153      2.178
REMARK  Name = 
REMARK  10 active torsions:
REMARK  status: ('A' for Active; 'I' for Inactive)
REMARK    1  A    between atoms: C_1  and  O_2
REMARK    2  A    between atoms: O_2  and  C_3
REMARK    3  A    between atoms: C_6  and  O_7
REMARK    4  A    between atoms: O_7  and  C_8
REMARK    5  A    between atoms: C_9  and  C_10
REMARK    6  A    between atoms: C_20  and  C_21
REMARK    7  A    between atoms: C_23  and  O_24
REMARK    8  A    between atoms: O_24  and  C_25
REMARK    9  A    between atoms: C_28  and  O_29
REMARK   10  A    between atoms: O_29  and  C_30
REMARK                            x       y       z     vdW  Elec       q    Type
REMARK                         _______ _______ _______ _____ _____    ______ ____
ROOT
ATOM      1  C   UNL     1       1.854   8.807  18.557  0.00  0.00    +0.000 A 
ATOM      2  N   UNL     1       2.699   9.008  17.547  0.00  0.00    +0.000 NA
ATOM      3  N   UNL     1       3.560   7.929  17.438  0.00  0.00    +0.000 NA
ATOM      4  C   UNL     1       3.197   7.077  18.361  0.00  0.00    +0.000 A 
ATOM      5  N   UNL     1       2.079   7.524  19.034  0.00  0.00    +0.000 N 
ATOM      6  C   UNL     1       1.419   6.717  19.957  0.00  0.00    +0.000 A 
ATOM      7  C   UNL     1       1.968   5.558  20.368  0.00  0.00    +0.000 A 
ATOM      8  C   UNL     1       3.198   5.132  19.800  0.00  0.00    +0.000 A 
ATOM      9  N   UNL     1       3.980   4.120  20.093  0.00  0.00    +0.000 NA
ATOM     10  N   UNL     1       4.975   4.083  19.151  0.00  0.00    +0.000 NA
ATOM     11  C   UNL     1       4.792   5.059  18.268  0.00  0.00    +0.000 A 
ATOM     12  N   UNL     1       3.746   5.854  18.735  0.00  0.00    +0.000 N 
ENDROOT
BRANCH   1  17
ATOM     13  C   UNL     1       0.218  11.386  20.788  0.00  0.00    +0.000 A 
ATOM     14  C   UNL     1      -0.955  11.678  20.100  0.00  0.00    +0.000 A 
ATOM     15  C   UNL     1      -1.255  11.023  18.911  0.00  0.00    +0.000 A 
ATOM     16  C   UNL     1      -0.370  10.080  18.371  0.00  0.00    +0.000 A 
ATOM     17  C   UNL     1       0.845   9.785  19.035  0.00  0.00    +0.000 A 
ATOM     18  C   UNL     1       1.106  10.442  20.260  0.00  0.00    +0.000 A 
BRANCH  13  20
ATOM     19  C   UNL     1       0.232  13.498  21.880  0.00  0.00    +0.000 C 
ATOM     20  O   UNL     1       0.366  12.085  21.953  0.00  0.00    +0.000 OA
ENDBRANCH  13  20
BRANCH  16  21
ATOM     21  O   UNL     1      -0.700   9.374  17.240  0.00  0.00    +0.000 OA
ATOM     22  C   UNL     1      -1.944   9.729  16.628  0.00  0.00    +0.000 C 
ENDBRANCH  16  21
ENDBRANCH   1  17
BRANCH  11  23
ATOM     23  C   UNL     1       5.490   5.123  16.965  0.00  0.00    +0.000 A 
ATOM     24  C   UNL     1       4.868   4.579  15.827  0.00  0.00    +0.000 A 
ATOM     25  C   UNL     1       5.536   4.469  14.601  0.00  0.00    +0.000 A 
ATOM     26  C   UNL     1       6.824   4.970  14.479  0.00  0.00    +0.000 A 
ATOM     27  C   UNL     1       7.468   5.506  15.590  0.00  0.00    +0.000 A 
ATOM     28  C   UNL     1       6.832   5.552  16.843  0.00  0.00    +0.000 A 
BRANCH  25  29
ATOM     29  O   UNL     1       4.832   3.861  13.597  0.00  0.00    +0.000 OA
ATOM     30  C   UNL     1       5.621   3.329  12.537  0.00  0.00    +0.000 C 
ENDBRANCH  25  29
BRANCH  28  31
ATOM     31  O   UNL     1       7.484   6.027  17.957  0.00  0.00    +0.000 OA
ATOM     32  C   UNL     1       7.701   7.440  18.009  0.00  0.00    +0.000 C 
ENDBRANCH  28  31
ENDBRANCH  11  23
TORSDOF 6
ENDMDL
MODEL 6
REMARK VINA RESULT:      -7.3      1.765      3.327
REMARK  Name = 
REMARK  10 active torsions:
REMARK  status: ('A' for Active; 'I' for Inactive)
REMARK    1  A    between atoms: C_1  and  O_2
REMARK    2  A    between atoms: O_2  and  C_3
REMARK    3  A    between atoms: C_6  and  O_7
REMARK    4  A    between atoms: O_7  and  C_8
REMARK    5  A    between atoms: C_9  and  C_10
REMARK    6  A    between atoms: C_20  and  C_21
REMARK    7  A    between atoms: C_23  and  O_24
REMARK    8  A    between atoms: O_24  and  C_25
REMARK    9  A    between atoms: C_28  and  O_29
REMARK   10  A    between atoms: O_29  and  C_30
REMARK                            x       y       z     vdW  Elec       q    Type
REMARK                         _______ _______ _______ _____ _____    ______ ____
ROOT
ATOM      1  C   UNL     1       1.482   9.199  18.952  0.00  0.00    +0.000 A 
ATOM      2  N   UNL     1       2.391   9.209  17.979  0.00  0.00    +0.000 NA
ATOM      3  N   UNL     1       3.122   8.034  18.010  0.00  0.00    +0.000 NA
ATOM      4  C   UNL     1       2.618   7.317  18.980  0.00  0.00    +0.000 A 
ATOM      5  N   UNL     1       1.530   7.947  19.547  0.00  0.00    +0.000 N 
ATOM      6  C   UNL     1       0.736   7.307  20.496  0.00  0.00    +0.000 A 
ATOM      7  C   UNL     1       1.124   6.136  21.035  0.00  0.00    +0.000 A 
ATOM      8  C   UNL     1       2.321   5.523  20.576  0.00  0.00    +0.000 A 
ATOM      9  N   UNL     1       2.962   4.459  20.999  0.00  0.00    +0.000 NA
ATOM     10  N   UNL     1       3.989   4.224  20.122  0.00  0.00    +0.000 NA
ATOM     11  C   UNL     1       3.965   5.129  19.150  0.00  0.00    +0.000 A 
ATOM     12  N   UNL     1       3.000   6.078  19.487  0.00  0.00    +0.000 N 
ENDROOT
BRANCH   1  17
ATOM     13  C   UNL     1       0.089  12.172  20.830  0.00  0.00    +0.000 A 
ATOM     14  C   UNL     1      -1.032  12.504  20.078  0.00  0.00    +0.000 A 
ATOM     15  C   UNL     1      -1.378  11.753  18.961  0.00  0.00    +0.000 A 
ATOM     16  C   UNL     1      -0.589  10.668  18.556  0.00  0.00    +0.000 A 
ATOM     17  C   UNL     1       0.574  10.324  19.287  0.00  0.00    +0.000 A 
ATOM     18  C   UNL     1       0.880  11.086  20.439  0.00  0.00    +0.000 A 
BRANCH  13  20
ATOM     19  C   UNL     1      -0.859  13.344  22.668  0.00  0.00    +0.000 C 
ATOM     20  O   UNL     1       0.289  12.979  21.915  0.00  0.00    +0.000 OA
ENDBRANCH  13  20
BRANCH  16  21
ATOM     21  O   UNL     1      -0.971   9.876  17.501  0.00  0.00    +0.000 OA
ATOM     22  C   UNL     1      -2.346   9.974  17.118  0.00  0.00    +0.000 C 
ENDBRANCH  16  21
ENDBRANCH   1  17
BRANCH  11  23
ATOM     23  C   UNL     1       4.726   4.995  17.889  0.00  0.00    +0.000 A 
ATOM     24  C   UNL     1       5.871   5.788  17.691  0.00  0.00    +0.000 A 
ATOM     25  C   UNL     1       6.544   5.822  16.464  0.00  0.00    +0.000 A 
ATOM     26  C   UNL     1       6.117   5.003  15.430  0.00  0.00    +0.000 A 
ATOM     27  C   UNL     1       4.982   4.213  15.592  0.00  0.00    +0.000 A 
ATOM     28  C   UNL     1       4.256   4.229  16.796  0.00  0.00    +0.000 A 
BRANCH  25  29
ATOM     29  O   UNL     1       7.603   6.687  16.394  0.00  0.00    +0.000 OA
ATOM     30  C   UNL     1       7.669   7.653  17.439  0.00  0.00    +0.000 C 
ENDBRANCH  25  29
BRANCH  28  31
ATOM     31  O   UNL     1       3.102   3.496  16.943  0.00  0.00    +0.000 OA
ATOM     32  C   UNL     1       3.252   2.180  17.484  0.00  0.00    +0.000 C 
ENDBRANCH  28  31
ENDBRANCH  11  23
TORSDOF 6
ENDMDL
MODEL 7
REMARK VINA RESULT:      -7.3      2.140      3.584
REMARK  Name = 
REMARK  10 active torsions:
REMARK  status: ('A' for Active; 'I' for Inactive)
REMARK    1  A    between atoms: C_1  and  O_2
REMARK    2  A    between atoms: O_2  and  C_3
REMARK    3  A    between atoms: C_6  and  O_7
REMARK    4  A    between atoms: O_7  and  C_8
REMARK    5  A    between atoms: C_9  and  C_10
REMARK    6  A    between atoms: C_20  and  C_21
REMARK    7  A    between atoms: C_23  and  O_24
REMARK    8  A    between atoms: O_24  and  C_25
REMARK    9  A    between atoms: C_28  and  O_29
REMARK   10  A    between atoms: O_29  and  C_30
REMARK                            x       y       z     vdW  Elec       q    Type
REMARK                         _______ _______ _______ _____ _____    ______ ____
ROOT
ATOM      1  C   UNL     1       1.483   9.758  18.548  0.00  0.00    +0.000 A 
ATOM      2  N   UNL     1       2.403   9.561  17.605  0.00  0.00    +0.000 NA
ATOM      3  N   UNL     1       3.010   8.331  17.796  0.00  0.00    +0.000 NA
ATOM      4  C   UNL     1       2.422   7.789  18.830  0.00  0.00    +0.000 A 
ATOM      5  N   UNL     1       1.395   8.588  19.289  0.00  0.00    +0.000 N 
ATOM      6  C   UNL     1       0.527   8.150  20.285  0.00  0.00    +0.000 A 
ATOM      7  C   UNL     1       0.786   7.019  20.970  0.00  0.00    +0.000 A 
ATOM      8  C   UNL     1       1.921   6.240  20.619  0.00  0.00    +0.000 A 
ATOM      9  N   UNL     1       2.445   5.177  21.182  0.00  0.00    +0.000 NA
ATOM     10  N   UNL     1       3.455   4.737  20.367  0.00  0.00    +0.000 NA
ATOM     11  C   UNL     1       3.537   5.516  19.293  0.00  0.00    +0.000 A 
ATOM     12  N   UNL     1       2.669   6.589  19.490  0.00  0.00    +0.000 N 
ENDROOT
BRANCH   1  17
ATOM     13  C   UNL     1       0.688  13.338  19.472  0.00  0.00    +0.000 A 
ATOM     14  C   UNL     1      -0.654  13.447  19.125  0.00  0.00    +0.000 A 
ATOM     15  C   UNL     1      -1.340  12.353  18.610  0.00  0.00    +0.000 A 
ATOM     16  C   UNL     1      -0.684  11.130  18.405  0.00  0.00    +0.000 A 
ATOM     17  C   UNL     1       0.689  10.999  18.723  0.00  0.00    +0.000 A 
ATOM     18  C   UNL     1       1.350  12.121  19.277  0.00  0.00    +0.000 A 
BRANCH  13  20
ATOM     19  C   UNL     1       1.134  15.656  19.192  0.00  0.00    +0.000 C 
ATOM     20  O   UNL     1       1.221  14.485  19.990  0.00  0.00    +0.000 OA
ENDBRANCH  13  20
BRANCH  16  21
ATOM     21  O   UNL     1      -1.376  10.026  17.973  0.00  0.00    +0.000 OA
ATOM     22  C   UNL     1      -2.217  10.228  16.832  0.00  0.00    +0.000 C 
ENDBRANCH  16  21
ENDBRANCH   1  17
BRANCH  11  23
ATOM     23  C   UNL     1       4.299   5.156  18.078  0.00  0.00    +0.000 A 
ATOM     24  C   UNL     1       5.492   5.842  17.788  0.00  0.00    +0.000 A 
ATOM     25  C   UNL     1       6.176   5.659  16.580  0.00  0.00    +0.000 A 
ATOM     26  C   UNL     1       5.708   4.725  15.667  0.00  0.00    +0.000 A 
ATOM     27  C   UNL     1       4.526   4.037  15.922  0.00  0.00    +0.000 A 
ATOM     28  C   UNL     1       3.792   4.270  17.099  0.00  0.00    +0.000 A 
BRANCH  25  29
ATOM     29  O   UNL     1       7.287   6.439  16.405  0.00  0.00    +0.000 OA
ATOM     30  C   UNL     1       7.643   7.251  17.521  0.00  0.00    +0.000 C 
ENDBRANCH  25  29
BRANCH  28  31
ATOM     31  O   UNL     1       2.593   3.636  17.330  0.00  0.00    +0.000 OA
ATOM     32  C   UNL     1       2.668   2.256  17.698  0.00  0.00    +0.000 C 
ENDBRANCH  28  31
ENDBRANCH  11  23
TORSDOF 6
ENDMDL
MODEL 8
REMARK VINA RESULT:      -7.3      1.193      2.082
REMARK  Name = 
REMARK  10 active torsions:
REMARK  status: ('A' for Active; 'I' for Inactive)
REMARK    1  A    between atoms: C_1  and  O_2
REMARK    2  A    between atoms: O_2  and  C_3
REMARK    3  A    between atoms: C_6  and  O_7
REMARK    4  A    between atoms: O_7  and  C_8
REMARK    5  A    between atoms: C_9  and  C_10
REMARK    6  A    between atoms: C_20  and  C_21
REMARK    7  A    between atoms: C_23  and  O_24
REMARK    8  A    between atoms: O_24  and  C_25
REMARK    9  A    between atoms: C_28  and  O_29
REMARK   10  A    between atoms: O_29  and  C_30
REMARK                            x       y       z     vdW  Elec       q    Type
REMARK                         _______ _______ _______ _____ _____    ______ ____
ROOT
ATOM      1  C   UNL     1       2.297   8.194  18.964  0.00  0.00    +0.000 A 
ATOM      2  N   UNL     1       3.127   8.467  17.958  0.00  0.00    +0.000 NA
ATOM      3  N   UNL     1       3.906   7.356  17.682  0.00  0.00    +0.000 NA
ATOM      4  C   UNL     1       3.508   6.418  18.501  0.00  0.00    +0.000 A 
ATOM      5  N   UNL     1       2.442   6.848  19.264  0.00  0.00    +0.000 N 
ATOM      6  C   UNL     1       1.751   5.974  20.100  0.00  0.00    +0.000 A 
ATOM      7  C   UNL     1       2.227   4.737  20.340  0.00  0.00    +0.000 A 
ATOM      8  C   UNL     1       3.409   4.308  19.680  0.00  0.00    +0.000 A 
ATOM      9  N   UNL     1       4.124   3.216  19.814  0.00  0.00    +0.000 NA
ATOM     10  N   UNL     1       5.089   3.235  18.840  0.00  0.00    +0.000 NA
ATOM     11  C   UNL     1       4.952   4.326  18.095  0.00  0.00    +0.000 A 
ATOM     12  N   UNL     1       3.978   5.123  18.697  0.00  0.00    +0.000 N 
ENDROOT
BRANCH   1  17
ATOM     13  C   UNL     1      -0.150   9.621  21.470  0.00  0.00    +0.000 A 
ATOM     14  C   UNL     1      -0.413  10.883  20.949  0.00  0.00    +0.000 A 
ATOM     15  C   UNL     1       0.175  11.289  19.756  0.00  0.00    +0.000 A 
ATOM     16  C   UNL     1       1.065  10.446  19.075  0.00  0.00    +0.000 A 
ATOM     17  C   UNL     1       1.373   9.167  19.598  0.00  0.00    +0.000 A 
ATOM     18  C   UNL     1       0.731   8.770  20.795  0.00  0.00    +0.000 A 
BRANCH  13  20
ATOM     19  C   UNL     1      -1.297  10.461  23.375  0.00  0.00    +0.000 C 
ATOM     20  O   UNL     1      -0.820   9.350  22.630  0.00  0.00    +0.000 OA
ENDBRANCH  13  20
BRANCH  16  21
ATOM     21  O   UNL     1       1.586  10.811  17.857  0.00  0.00    +0.000 OA
ATOM     22  C   UNL     1       2.431  11.966  17.866  0.00  0.00    +0.000 C 
ENDBRANCH  16  21
ENDBRANCH   1  17
BRANCH  11  23
ATOM     23  C   UNL     1       5.618   4.512  16.788  0.00  0.00    +0.000 A 
ATOM     24  C   UNL     1       4.958   4.098  15.617  0.00  0.00    +0.000 A 
ATOM     25  C   UNL     1       5.592   4.102  14.369  0.00  0.00    +0.000 A 
ATOM     26  C   UNL     1       6.886   4.591  14.264  0.00  0.00    +0.000 A 
ATOM     27  C   UNL     1       7.568   5.000  15.405  0.00  0.00    +0.000 A 
ATOM     28  C   UNL     1       6.965   4.928  16.674  0.00  0.00    +0.000 A 
BRANCH  25  29
ATOM     29  O   UNL     1       4.851   3.612  13.327  0.00  0.00    +0.000 OA
ATOM     30  C   UNL     1       5.591   3.293  12.152  0.00  0.00    +0.000 C 
ENDBRANCH  25  29
BRANCH  28  31
ATOM     31  O   UNL     1       7.654   5.276  17.812  0.00  0.00    +0.000 OA
ATOM     32  C   UNL     1       7.672   6.668  18.141  0.00  0.00    +0.000 C 
ENDBRANCH  28  31
ENDBRANCH  11  23
TORSDOF 6
ENDMDL
MODEL 9
REMARK VINA RESULT:      -7.3      1.288      2.421
REMARK  Name = 
REMARK  10 active torsions:
REMARK  status: ('A' for Active; 'I' for Inactive)
REMARK    1  A    between atoms: C_1  and  O_2
REMARK    2  A    between atoms: O_2  and  C_3
REMARK    3  A    between atoms: C_6  and  O_7
REMARK    4  A    between atoms: O_7  and  C_8
REMARK    5  A    between atoms: C_9  and  C_10
REMARK    6  A    between atoms: C_20  and  C_21
REMARK    7  A    between atoms: C_23  and  O_24
REMARK    8  A    between atoms: O_24  and  C_25
REMARK    9  A    between atoms: C_28  and  O_29
REMARK   10  A    between atoms: O_29  and  C_30
REMARK                            x       y       z     vdW  Elec       q    Type
REMARK                         _______ _______ _______ _____ _____    ______ ____
ROOT
ATOM      1  C   UNL     1       1.692   8.655  18.993  0.00  0.00    +0.000 A 
ATOM      2  N   UNL     1       2.649   8.770  18.073  0.00  0.00    +0.000 NA
ATOM      3  N   UNL     1       3.448   7.640  18.087  0.00  0.00    +0.000 NA
ATOM      4  C   UNL     1       2.938   6.843  18.990  0.00  0.00    +0.000 A 
ATOM      5  N   UNL     1       1.785   7.377  19.526  0.00  0.00    +0.000 N 
ATOM      6  C   UNL     1       0.983   6.643  20.396  0.00  0.00    +0.000 A 
ATOM      7  C   UNL     1       1.413   5.469  20.896  0.00  0.00    +0.000 A 
ATOM      8  C   UNL     1       2.668   4.953  20.475  0.00  0.00    +0.000 A 
ATOM      9  N   UNL     1       3.350   3.907  20.878  0.00  0.00    +0.000 NA
ATOM     10  N   UNL     1       4.434   3.779  20.049  0.00  0.00    +0.000 NA
ATOM     11  C   UNL     1       4.406   4.732  19.124  0.00  0.00    +0.000 A 
ATOM     12  N   UNL     1       3.368   5.604  19.455  0.00  0.00    +0.000 N 
ENDROOT
BRANCH   1  17
ATOM     13  C   UNL     1      -1.114  11.146  18.519  0.00  0.00    +0.000 A 
ATOM     14  C   UNL     1      -1.248  11.694  19.790  0.00  0.00    +0.000 A 
ATOM     15  C   UNL     1      -0.411  11.288  20.823  0.00  0.00    +0.000 A 
ATOM     16  C   UNL     1       0.561  10.300  20.610  0.00  0.00    +0.000 A 
ATOM     17  C   UNL     1       0.700   9.705  19.333  0.00  0.00    +0.000 A 
ATOM     18  C   UNL     1      -0.143  10.165  18.294  0.00  0.00    +0.000 A 
BRANCH  13  20
ATOM     19  C   UNL     1      -2.450  10.780  16.587  0.00  0.00    +0.000 C 
ATOM     20  O   UNL     1      -1.985  11.661  17.600  0.00  0.00    +0.000 OA
ENDBRANCH  13  20
BRANCH  16  21
ATOM     21  O   UNL     1       1.441   9.954  21.606  0.00  0.00    +0.000 OA
ATOM     22  C   UNL     1       0.862   9.335  22.759  0.00  0.00    +0.000 C 
ENDBRANCH  16  21
ENDBRANCH   1  17
BRANCH  11  23
ATOM     23  C   UNL     1       5.239   4.711  17.902  0.00  0.00    +0.000 A 
ATOM     24  C   UNL     1       6.204   5.716  17.712  0.00  0.00    +0.000 A 
ATOM     25  C   UNL     1       6.914   5.843  16.513  0.00  0.00    +0.000 A 
ATOM     26  C   UNL     1       6.717   4.912  15.503  0.00  0.00    +0.000 A 
ATOM     27  C   UNL     1       5.763   3.911  15.658  0.00  0.00    +0.000 A 
ATOM     28  C   UNL     1       4.991   3.822  16.830  0.00  0.00    +0.000 A 
BRANCH  25  29
ATOM     29  O   UNL     1       7.774   6.905  16.443  0.00  0.00    +0.000 OA
ATOM     30  C   UNL     1       7.735   7.793  17.557  0.00  0.00    +0.000 C 
ENDBRANCH  25  29
BRANCH  28  31
ATOM     31  O   UNL     1       4.007   2.871  16.967  0.00  0.00    +0.000 OA
ATOM     32  C   UNL     1       2.658   3.341  16.893  0.00  0.00    +0.000 C 
ENDBRANCH  28  31
ENDBRANCH  11  23
TORSDOF 6
ENDMDL
