MODEL 1
REMARK VINA RESULT:      -8.9      0.000      0.000
REMARK  Name = 
REMARK  7 active torsions:
REMARK  status: ('A' for Active; 'I' for Inactive)
REMARK    1  A    between atoms: C_1  and  S_2
REMARK    2  A    between atoms: S_2  and  C_5
REMARK    3  A    between atoms: C_7  and  C_8
REMARK    4  A    between atoms: N_13  and  C_14
REMARK    5  A    between atoms: C_14  and  C_15
REMARK    6  A    between atoms: C_19  and  O_20
REMARK    7  A    between atoms: C_24  and  C_25
REMARK                            x       y       z     vdW  Elec       q    Type
REMARK                         _______ _______ _______ _____ _____    ______ ____
ROOT
ATOM      1  C   UNL     1       1.939   7.827  19.546  0.00  0.00    +0.000 A 
ATOM      2  C   UNL     1       1.632   7.724  20.966  0.00  0.00    +0.000 A 
ATOM      3  C   UNL     1       0.962   8.685  21.614  0.00  0.00    +0.000 A 
ATOM      4  C   UNL     1       0.524   9.909  20.898  0.00  0.00    +0.000 A 
ATOM      5  O   UNL     1      -0.131  10.752  21.507  0.00  0.00    +0.000 OA
ATOM      6  N   UNL     1       0.904   9.994  19.562  0.00  0.00    +0.000 N 
ATOM      7  C   UNL     1       1.597   8.971  18.922  0.00  0.00    +0.000 A 
ENDROOT
BRANCH   1  10
ATOM      8  C   UNL     1       2.773   4.508  18.297  0.00  0.00    +0.000 A 
ATOM      9  N   UNL     1       2.153   5.464  19.017  0.00  0.00    +0.000 NA
ATOM     10  C   UNL     1       2.560   6.724  18.760  0.00  0.00    +0.000 A 
ATOM     11  C   UNL     1       3.554   7.004  17.835  0.00  0.00    +0.000 A 
ATOM     12  C   UNL     1       4.127   5.944  17.143  0.00  0.00    +0.000 A 
ATOM     13  N   UNL     1       3.735   4.667  17.370  0.00  0.00    +0.000 NA
BRANCH   8  15
ATOM     14  C   UNL     1       2.320   2.679  20.384  0.00  0.00    +0.000 C 
ATOM     15  S   UNL     1       2.288   2.818  18.617  0.00  0.00    +0.000 S 
ATOM     16  O   UNL     1       3.329   1.941  18.105  0.00  0.00    +0.000 OA
ATOM     17  O   UNL     1       0.899   2.663  18.211  0.00  0.00    +0.000 OA
ENDBRANCH   8  15
BRANCH  12  18
ATOM     18  C   UNL     1       5.222   6.216  16.122  0.00  0.00    +0.000 C 
ATOM     19  F   UNL     1       4.823   7.072  15.135  0.00  0.00    +0.000 F 
ATOM     20  F   UNL     1       6.332   6.788  16.668  0.00  0.00    +0.000 F 
ATOM     21  F   UNL     1       5.644   5.093  15.477  0.00  0.00    +0.000 F 
ENDBRANCH  12  18
ENDBRANCH   1  10
BRANCH   6  22
ATOM     22  C   UNL     1       0.390  11.118  18.774  0.00  0.00    +0.000 C 
BRANCH  22  23
ATOM     23  C   UNL     1      -1.051  10.881  18.373  0.00  0.00    +0.000 A 
ATOM     24  C   UNL     1      -1.378   9.897  17.429  0.00  0.00    +0.000 A 
ATOM     25  C   UNL     1      -2.688   9.768  16.961  0.00  0.00    +0.000 A 
ATOM     26  C   UNL     1      -3.684  10.630  17.421  0.00  0.00    +0.000 A 
ATOM     27  C   UNL     1      -3.362  11.596  18.367  0.00  0.00    +0.000 A 
ATOM     28  C   UNL     1      -2.068  11.717  18.858  0.00  0.00    +0.000 A 
BRANCH  27  29
ATOM     29  O   UNL     1      -4.294  12.481  18.826  0.00  0.00    +0.000 OA
ATOM     30  H   UNL     1      -4.286  12.460  19.798  0.00  0.00    +0.000 HD
ENDBRANCH  27  29
ENDBRANCH  22  23
ENDBRANCH   6  22
TORSDOF 6
ENDMDL
MODEL 2
REMARK VINA RESULT:      -8.9      2.606      3.289
REMARK  Name = 
REMARK  7 active torsions:
REMARK  status: ('A' for Active; 'I' for Inactive)
REMARK    1  A    between atoms: C_1  and  S_2
REMARK    2  A    between atoms: S_2  and  C_5
REMARK    3  A    between atoms: C_7  and  C_8
REMARK    4  A    between atoms: N_13  and  C_14
REMARK    5  A    between atoms: C_14  and  C_15
REMARK    6  A    between atoms: C_19  and  O_20
REMARK    7  A    between atoms: C_24  and  C_25
REMARK                            x       y       z     vdW  Elec       q    Type
REMARK                         _______ _______ _______ _____ _____    ______ ____
ROOT
ATOM      1  C   UNL     1       2.029   7.598  19.539  0.00  0.00    +0.000 A 
ATOM      2  C   UNL     1       1.724   7.560  20.962  0.00  0.00    +0.000 A 
ATOM      3  C   UNL     1       1.090   8.568  21.575  0.00  0.00    +0.000 A 
ATOM      4  C   UNL     1       0.692   9.778  20.814  0.00  0.00    +0.000 A 
ATOM      5  O   UNL     1       0.070  10.665  21.392  0.00  0.00    +0.000 OA
ATOM      6  N   UNL     1       1.069   9.798  19.475  0.00  0.00    +0.000 N 
ATOM      7  C   UNL     1       1.724   8.728  18.872  0.00  0.00    +0.000 A 
ENDROOT
BRANCH   1  10
ATOM      8  C   UNL     1       4.103   5.611  17.298  0.00  0.00    +0.000 A 
ATOM      9  N   UNL     1       3.643   6.687  17.966  0.00  0.00    +0.000 NA
ATOM     10  C   UNL     1       2.607   6.444  18.794  0.00  0.00    +0.000 A 
ATOM     11  C   UNL     1       2.050   5.181  18.928  0.00  0.00    +0.000 A 
ATOM     12  C   UNL     1       2.601   4.138  18.194  0.00  0.00    +0.000 A 
ATOM     13  N   UNL     1       3.649   4.346  17.362  0.00  0.00    +0.000 NA
BRANCH   8  15
ATOM     14  C   UNL     1       6.761   6.521  17.189  0.00  0.00    +0.000 C 
ATOM     15  S   UNL     1       5.460   5.883  16.168  0.00  0.00    +0.000 S 
ATOM     16  O   UNL     1       5.082   6.946  15.251  0.00  0.00    +0.000 OA
ATOM     17  O   UNL     1       5.908   4.586  15.681  0.00  0.00    +0.000 OA
ENDBRANCH   8  15
BRANCH  12  18
ATOM     18  C   UNL     1       2.013   2.739  18.317  0.00  0.00    +0.000 C 
ATOM     19  F   UNL     1       0.648   2.738  18.333  0.00  0.00    +0.000 F 
ATOM     20  F   UNL     1       2.363   1.921  17.285  0.00  0.00    +0.000 F 
ATOM     21  F   UNL     1       2.389   2.100  19.460  0.00  0.00    +0.000 F 
ENDBRANCH  12  18
ENDBRANCH   1  10
BRANCH   6  22
ATOM     22  C   UNL     1       0.590  10.908  18.646  0.00  0.00    +0.000 C 
BRANCH  22  23
ATOM     23  C   UNL     1      -0.882  10.752  18.332  0.00  0.00    +0.000 A 
ATOM     24  C   UNL     1      -1.320   9.780  17.421  0.00  0.00    +0.000 A 
ATOM     25  C   UNL     1      -2.660   9.722  17.032  0.00  0.00    +0.000 A 
ATOM     26  C   UNL     1      -3.577  10.644  17.538  0.00  0.00    +0.000 A 
ATOM     27  C   UNL     1      -3.145  11.599  18.451  0.00  0.00    +0.000 A 
ATOM     28  C   UNL     1      -1.819  11.649  18.865  0.00  0.00    +0.000 A 
BRANCH  27  29
ATOM     29  O   UNL     1      -3.996  12.541  18.953  0.00  0.00    +0.000 OA
ATOM     30  H   UNL     1      -3.485  13.151  19.512  0.00  0.00    +0.000 HD
ENDBRANCH  27  29
ENDBRANCH  22  23
ENDBRANCH   6  22
TORSDOF 6
ENDMDL
MODEL 3
REMARK VINA RESULT:      -8.9      0.950      1.361
REMARK  Name = 
REMARK  7 active torsions:
REMARK  status: ('A' for Active; 'I' for Inactive)
REMARK    1  A    between atoms: C_1  and  S_2
REMARK    2  A    between atoms: S_2  and  C_5
REMARK    3  A    between atoms: C_7  and  C_8
REMARK    4  A    between atoms: N_13  and  C_14
REMARK    5  A    between atoms: C_14  and  C_15
REMARK    6  A    between atoms: C_19  and  O_20
REMARK    7  A    between atoms: C_24  and  C_25
REMARK                            x       y       z     vdW  Elec       q    Type
REMARK                         _______ _______ _______ _____ _____    ______ ____
ROOT
ATOM      1  C   UNL     1       1.920   7.822  19.719  0.00  0.00    +0.000 A 
ATOM      2  C   UNL     1       1.411   7.707  21.079  0.00  0.00    +0.000 A 
ATOM      3  C   UNL     1       0.600   8.631  21.609  0.00  0.00    +0.000 A 
ATOM      4  C   UNL     1       0.207   9.827  20.823  0.00  0.00    +0.000 A 
ATOM      5  O   UNL     1      -0.576  10.633  21.317  0.00  0.00    +0.000 OA
ATOM      6  N   UNL     1       0.776   9.928  19.557  0.00  0.00    +0.000 N 
ATOM      7  C   UNL     1       1.612   8.943  19.038  0.00  0.00    +0.000 A 
ENDROOT
BRANCH   1  10
ATOM      8  C   UNL     1       3.445   4.603  18.955  0.00  0.00    +0.000 A 
ATOM      9  N   UNL     1       2.687   5.520  19.590  0.00  0.00    +0.000 NA
ATOM     10  C   UNL     1       2.710   6.753  19.046  0.00  0.00    +0.000 A 
ATOM     11  C   UNL     1       3.472   7.052  17.927  0.00  0.00    +0.000 A 
ATOM     12  C   UNL     1       4.217   6.033  17.347  0.00  0.00    +0.000 A 
ATOM     13  N   UNL     1       4.209   4.780  17.862  0.00  0.00    +0.000 NA
BRANCH   8  15
ATOM     14  C   UNL     1       2.932   1.911  18.325  0.00  0.00    +0.000 C 
ATOM     15  S   UNL     1       3.470   2.957  19.651  0.00  0.00    +0.000 S 
ATOM     16  O   UNL     1       2.452   2.885  20.686  0.00  0.00    +0.000 OA
ATOM     17  O   UNL     1       4.855   2.606  19.925  0.00  0.00    +0.000 OA
ENDBRANCH   8  15
BRANCH  12  18
ATOM     18  C   UNL     1       5.066   6.328  16.119  0.00  0.00    +0.000 C 
ATOM     19  F   UNL     1       6.335   6.724  16.434  0.00  0.00    +0.000 F 
ATOM     20  F   UNL     1       5.218   5.246  15.304  0.00  0.00    +0.000 F 
ATOM     21  F   UNL     1       4.558   7.326  15.344  0.00  0.00    +0.000 F 
ENDBRANCH  12  18
ENDBRANCH   1  10
BRANCH   6  22
ATOM     22  C   UNL     1       0.324  11.019  18.688  0.00  0.00    +0.000 C 
BRANCH  22  23
ATOM     23  C   UNL     1      -1.099  10.787  18.228  0.00  0.00    +0.000 A 
ATOM     24  C   UNL     1      -1.397   9.771  17.308  0.00  0.00    +0.000 A 
ATOM     25  C   UNL     1      -2.685   9.642  16.783  0.00  0.00    +0.000 A 
ATOM     26  C   UNL     1      -3.687  10.536  17.160  0.00  0.00    +0.000 A 
ATOM     27  C   UNL     1      -3.396  11.534  18.082  0.00  0.00    +0.000 A 
ATOM     28  C   UNL     1      -2.124  11.656  18.630  0.00  0.00    +0.000 A 
BRANCH  27  29
ATOM     29  O   UNL     1      -4.334  12.450  18.460  0.00  0.00    +0.000 OA
ATOM     30  H   UNL     1      -4.425  13.109  17.751  0.00  0.00    +0.000 HD
ENDBRANCH  27  29
ENDBRANCH  22  23
ENDBRANCH   6  22
TORSDOF 6
ENDMDL
MODEL 4
REMARK VINA RESULT:      -8.8      2.713      3.271
REMARK  Name = 
REMARK  7 active torsions:
REMARK  status: ('A' for Active; 'I' for Inactive)
REMARK    1  A    between atoms: C_1  and  S_2
REMARK    2  A    between atoms: S_2  and  C_5
REMARK    3  A    between atoms: C_7  and  C_8
REMARK    4  A    between atoms: N_13  and  C_14
REMARK    5  A    between atoms: C_14  and  C_15
REMARK    6  A    between atoms: C_19  and  O_20
REMARK    7  A    between atoms: C_24  and  C_25
REMARK                            x       y       z     vdW  Elec       q    Type
REMARK                         _______ _______ _______ _____ _____    ______ ____
ROOT
ATOM      1  C   UNL     1       1.943   7.832  19.555  0.00  0.00    +0.000 A 
ATOM      2  C   UNL     1       1.570   7.730  20.959  0.00  0.00    +0.000 A 
ATOM      3  C   UNL     1       0.850   8.680  21.568  0.00  0.00    +0.000 A 
ATOM      4  C   UNL     1       0.421   9.891  20.824  0.00  0.00    +0.000 A 
ATOM      5  O   UNL     1      -0.280  10.723  21.394  0.00  0.00    +0.000 OA
ATOM      6  N   UNL     1       0.863   9.976  19.507  0.00  0.00    +0.000 N 
ATOM      7  C   UNL     1       1.608   8.964  18.908  0.00  0.00    +0.000 A 
ENDROOT
BRANCH   1  10
ATOM      8  C   UNL     1       4.239   6.038  17.368  0.00  0.00    +0.000 A 
ATOM      9  N   UNL     1       3.685   7.064  18.043  0.00  0.00    +0.000 NA
ATOM     10  C   UNL     1       2.624   6.737  18.808  0.00  0.00    +0.000 A 
ATOM     11  C   UNL     1       2.134   5.441  18.875  0.00  0.00    +0.000 A 
ATOM     12  C   UNL     1       2.780   4.455  18.140  0.00  0.00    +0.000 A 
ATOM     13  N   UNL     1       3.856   4.748  17.370  0.00  0.00    +0.000 NA
BRANCH   8  15
ATOM     14  C   UNL     1       6.470   4.873  16.114  0.00  0.00    +0.000 C 
ATOM     15  S   UNL     1       5.634   6.423  16.319  0.00  0.00    +0.000 S 
ATOM     16  O   UNL     1       6.532   7.294  17.058  0.00  0.00    +0.000 OA
ATOM     17  O   UNL     1       5.122   6.798  15.009  0.00  0.00    +0.000 OA
ENDBRANCH   8  15
BRANCH  12  18
ATOM     18  C   UNL     1       2.269   3.023  18.190  0.00  0.00    +0.000 C 
ATOM     19  F   UNL     1       2.949   2.248  19.087  0.00  0.00    +0.000 F 
ATOM     20  F   UNL     1       0.959   2.936  18.559  0.00  0.00    +0.000 F 
ATOM     21  F   UNL     1       2.377   2.373  16.997  0.00  0.00    +0.000 F 
ENDBRANCH  12  18
ENDBRANCH   1  10
BRANCH   6  22
ATOM     22  C   UNL     1       0.364  11.084  18.687  0.00  0.00    +0.000 C 
BRANCH  22  23
ATOM     23  C   UNL     1      -1.071  10.842  18.270  0.00  0.00    +0.000 A 
ATOM     24  C   UNL     1      -1.385   9.847  17.333  0.00  0.00    +0.000 A 
ATOM     25  C   UNL     1      -2.689   9.711  16.849  0.00  0.00    +0.000 A 
ATOM     26  C   UNL     1      -3.691  10.578  17.285  0.00  0.00    +0.000 A 
ATOM     27  C   UNL     1      -3.382  11.557  18.223  0.00  0.00    +0.000 A 
ATOM     28  C   UNL     1      -2.095  11.683  18.730  0.00  0.00    +0.000 A 
BRANCH  27  29
ATOM     29  O   UNL     1      -4.320  12.447  18.659  0.00  0.00    +0.000 OA
ATOM     30  H   UNL     1      -3.965  13.346  18.551  0.00  0.00    +0.000 HD
ENDBRANCH  27  29
ENDBRANCH  22  23
ENDBRANCH   6  22
TORSDOF 6
ENDMDL
MODEL 5
REMARK VINA RESULT:      -8.7      2.880      3.491
REMARK  Name = 
REMARK  7 active torsions:
REMARK  status: ('A' for Active; 'I' for Inactive)
REMARK    1  A    between atoms: C_1  and  S_2
REMARK    2  A    between atoms: S_2  and  C_5
REMARK    3  A    between atoms: C_7  and  C_8
REMARK    4  A    between atoms: N_13  and  C_14
REMARK    5  A    between atoms: C_14  and  C_15
REMARK    6  A    between atoms: C_19  and  O_20
REMARK    7  A    between atoms: C_24  and  C_25
REMARK                            x       y       z     vdW  Elec       q    Type
REMARK                         _______ _______ _______ _____ _____    ______ ____
ROOT
ATOM      1  C   UNL     1       1.471   8.144  20.482  0.00  0.00    +0.000 A 
ATOM      2  C   UNL     1       1.144   8.387  21.881  0.00  0.00    +0.000 A 
ATOM      3  C   UNL     1       0.555   9.521  22.281  0.00  0.00    +0.000 A 
ATOM      4  C   UNL     1       0.231  10.586  21.299  0.00  0.00    +0.000 A 
ATOM      5  O   UNL     1      -0.353  11.594  21.686  0.00  0.00    +0.000 OA
ATOM      6  N   UNL     1       0.628  10.337  19.988  0.00  0.00    +0.000 N 
ATOM      7  C   UNL     1       1.235   9.143  19.611  0.00  0.00    +0.000 A 
ENDROOT
BRANCH   1  10
ATOM      8  C   UNL     1       3.382   5.677  18.602  0.00  0.00    +0.000 A 
ATOM      9  N   UNL     1       2.967   6.882  19.041  0.00  0.00    +0.000 NA
ATOM     10  C   UNL     1       2.000   6.845  19.979  0.00  0.00    +0.000 A 
ATOM     11  C   UNL     1       1.465   5.651  20.441  0.00  0.00    +0.000 A 
ATOM     12  C   UNL     1       1.966   4.462  19.925  0.00  0.00    +0.000 A 
ATOM     13  N   UNL     1       2.945   4.465  18.988  0.00  0.00    +0.000 NA
BRANCH   8  15
ATOM     14  C   UNL     1       6.164   5.484  18.236  0.00  0.00    +0.000 C 
ATOM     15  S   UNL     1       4.646   5.671  17.339  0.00  0.00    +0.000 S 
ATOM     16  O   UNL     1       4.679   6.987  16.721  0.00  0.00    +0.000 OA
ATOM     17  O   UNL     1       4.481   4.464  16.543  0.00  0.00    +0.000 OA
ENDBRANCH   8  15
BRANCH  12  18
ATOM     18  C   UNL     1       1.402   3.135  20.409  0.00  0.00    +0.000 C 
ATOM     19  F   UNL     1       2.268   2.094  20.229  0.00  0.00    +0.000 F 
ATOM     20  F   UNL     1       1.108   3.134  21.740  0.00  0.00    +0.000 F 
ATOM     21  F   UNL     1       0.260   2.771  19.761  0.00  0.00    +0.000 F 
ENDBRANCH  12  18
ENDBRANCH   1  10
BRANCH   6  22
ATOM     22  C   UNL     1       0.219  11.295  18.956  0.00  0.00    +0.000 C 
BRANCH  22  23
ATOM     23  C   UNL     1      -1.171  10.979  18.447  0.00  0.00    +0.000 A 
ATOM     24  C   UNL     1      -1.373   9.960  17.506  0.00  0.00    +0.000 A 
ATOM     25  C   UNL     1      -2.633   9.756  16.938  0.00  0.00    +0.000 A 
ATOM     26  C   UNL     1      -3.703  10.578  17.293  0.00  0.00    +0.000 A 
ATOM     27  C   UNL     1      -3.505  11.580  18.236  0.00  0.00    +0.000 A 
ATOM     28  C   UNL     1      -2.262  11.774  18.826  0.00  0.00    +0.000 A 
BRANCH  27  29
ATOM     29  O   UNL     1      -4.512  12.428  18.596  0.00  0.00    +0.000 OA
ATOM     30  H   UNL     1      -4.118  13.269  18.883  0.00  0.00    +0.000 HD
ENDBRANCH  27  29
ENDBRANCH  22  23
ENDBRANCH   6  22
TORSDOF 6
ENDMDL
MODEL 6
REMARK VINA RESULT:      -8.7      4.449      8.511
REMARK  Name = 
REMARK  7 active torsions:
REMARK  status: ('A' for Active; 'I' for Inactive)
REMARK    1  A    between atoms: C_1  and  S_2
REMARK    2  A    between atoms: S_2  and  C_5
REMARK    3  A    between atoms: C_7  and  C_8
REMARK    4  A    between atoms: N_13  and  C_14
REMARK    5  A    between atoms: C_14  and  C_15
REMARK    6  A    between atoms: C_19  and  O_20
REMARK    7  A    between atoms: C_24  and  C_25
REMARK                            x       y       z     vdW  Elec       q    Type
REMARK                         _______ _______ _______ _____ _____    ______ ____
ROOT
ATOM      1  C   UNL     1       1.956   6.577  19.921  0.00  0.00    +0.000 A 
ATOM      2  C   UNL     1       1.668   5.388  20.711  0.00  0.00    +0.000 A 
ATOM      3  C   UNL     1       2.241   4.208  20.445  0.00  0.00    +0.000 A 
ATOM      4  C   UNL     1       3.187   4.071  19.308  0.00  0.00    +0.000 A 
ATOM      5  O   UNL     1       3.734   2.989  19.118  0.00  0.00    +0.000 OA
ATOM      6  N   UNL     1       3.374   5.216  18.540  0.00  0.00    +0.000 N 
ATOM      7  C   UNL     1       2.762   6.427  18.852  0.00  0.00    +0.000 A 
ENDROOT
BRANCH   1  10
ATOM      8  C   UNL     1       1.171  10.130  19.747  0.00  0.00    +0.000 A 
ATOM      9  N   UNL     1       1.624   8.920  19.365  0.00  0.00    +0.000 NA
ATOM     10  C   UNL     1       1.447   7.934  20.266  0.00  0.00    +0.000 A 
ATOM     11  C   UNL     1       0.856   8.160  21.501  0.00  0.00    +0.000 A 
ATOM     12  C   UNL     1       0.421   9.446  21.796  0.00  0.00    +0.000 A 
ATOM     13  N   UNL     1       0.575  10.458  20.908  0.00  0.00    +0.000 NA
BRANCH   8  15
ATOM     14  C   UNL     1       2.146  12.762  19.569  0.00  0.00    +0.000 C 
ATOM     15  S   UNL     1       1.405  11.478  18.597  0.00  0.00    +0.000 S 
ATOM     16  O   UNL     1       0.095  11.960  18.188  0.00  0.00    +0.000 OA
ATOM     17  O   UNL     1       2.401  11.067  17.619  0.00  0.00    +0.000 OA
ENDBRANCH   8  15
BRANCH  12  18
ATOM     18  C   UNL     1      -0.231   9.730  23.142  0.00  0.00    +0.000 C 
ATOM     19  F   UNL     1       0.587   9.440  24.197  0.00  0.00    +0.000 F 
ATOM     20  F   UNL     1      -0.577  11.038  23.302  0.00  0.00    +0.000 F 
ATOM     21  F   UNL     1      -1.363   9.002  23.352  0.00  0.00    +0.000 F 
ENDBRANCH  12  18
ENDBRANCH   1  10
BRANCH   6  22
ATOM     22  C   UNL     1       4.392   5.174  17.486  0.00  0.00    +0.000 C 
BRANCH  22  23
ATOM     23  C   UNL     1       5.671   5.842  17.944  0.00  0.00    +0.000 A 
ATOM     24  C   UNL     1       6.253   6.868  17.185  0.00  0.00    +0.000 A 
ATOM     25  C   UNL     1       7.499   7.393  17.536  0.00  0.00    +0.000 A 
ATOM     26  C   UNL     1       8.185   6.889  18.642  0.00  0.00    +0.000 A 
ATOM     27  C   UNL     1       7.601   5.881  19.401  0.00  0.00    +0.000 A 
ATOM     28  C   UNL     1       6.351   5.370  19.076  0.00  0.00    +0.000 A 
BRANCH  27  29
ATOM     29  O   UNL     1       8.244   5.336  20.474  0.00  0.00    +0.000 OA
ATOM     30  H   UNL     1       7.611   4.784  20.964  0.00  0.00    +0.000 HD
ENDBRANCH  27  29
ENDBRANCH  22  23
ENDBRANCH   6  22
TORSDOF 6
ENDMDL
MODEL 7
REMARK VINA RESULT:      -8.7      2.928      3.510
REMARK  Name = 
REMARK  7 active torsions:
REMARK  status: ('A' for Active; 'I' for Inactive)
REMARK    1  A    between atoms: C_1  and  S_2
REMARK    2  A    between atoms: S_2  and  C_5
REMARK    3  A    between atoms: C_7  and  C_8
REMARK    4  A    between atoms: N_13  and  C_14
REMARK    5  A    between atoms: C_14  and  C_15
REMARK    6  A    between atoms: C_19  and  O_20
REMARK    7  A    between atoms: C_24  and  C_25
REMARK                            x       y       z     vdW  Elec       q    Type
REMARK                         _______ _______ _______ _____ _____    ______ ____
ROOT
ATOM      1  C   UNL     1       1.454   8.182  20.540  0.00  0.00    +0.000 A 
ATOM      2  C   UNL     1       1.074   8.410  21.927  0.00  0.00    +0.000 A 
ATOM      3  C   UNL     1       0.448   9.529  22.313  0.00  0.00    +0.000 A 
ATOM      4  C   UNL     1       0.135  10.593  21.327  0.00  0.00    +0.000 A 
ATOM      5  O   UNL     1      -0.482  11.586  21.699  0.00  0.00    +0.000 OA
ATOM      6  N   UNL     1       0.582  10.361  20.029  0.00  0.00    +0.000 N 
ATOM      7  C   UNL     1       1.227   9.182  19.666  0.00  0.00    +0.000 A 
ENDROOT
BRANCH   1  10
ATOM      8  C   UNL     1       3.496   5.768  18.730  0.00  0.00    +0.000 A 
ATOM      9  N   UNL     1       3.041   6.961  19.162  0.00  0.00    +0.000 NA
ATOM     10  C   UNL     1       2.027   6.898  20.047  0.00  0.00    +0.000 A 
ATOM     11  C   UNL     1       1.486   5.691  20.465  0.00  0.00    +0.000 A 
ATOM     12  C   UNL     1       2.030   4.516  19.960  0.00  0.00    +0.000 A 
ATOM     13  N   UNL     1       3.057   4.545  19.076  0.00  0.00    +0.000 NA
BRANCH   8  15
ATOM     14  C   UNL     1       4.660   4.265  16.658  0.00  0.00    +0.000 C 
ATOM     15  S   UNL     1       4.824   5.797  17.534  0.00  0.00    +0.000 S 
ATOM     16  O   UNL     1       6.086   5.740  18.254  0.00  0.00    +0.000 OA
ATOM     17  O   UNL     1       4.545   6.858  16.577  0.00  0.00    +0.000 OA
ENDBRANCH   8  15
BRANCH  12  18
ATOM     18  C   UNL     1       1.460   3.175  20.396  0.00  0.00    +0.000 C 
ATOM     19  F   UNL     1       1.144   3.141  21.725  0.00  0.00    +0.000 F 
ATOM     20  F   UNL     1       0.310   2.846  19.743  0.00  0.00    +0.000 F 
ATOM     21  F   UNL     1       2.323   2.138  20.203  0.00  0.00    +0.000 F 
ENDBRANCH  12  18
ENDBRANCH   1  10
BRANCH   6  22
ATOM     22  C   UNL     1       0.189  11.316  18.989  0.00  0.00    +0.000 C 
BRANCH  22  23
ATOM     23  C   UNL     1      -1.182  10.984  18.441  0.00  0.00    +0.000 A 
ATOM     24  C   UNL     1      -1.347   9.955  17.503  0.00  0.00    +0.000 A 
ATOM     25  C   UNL     1      -2.588   9.735  16.899  0.00  0.00    +0.000 A 
ATOM     26  C   UNL     1      -3.674  10.551  17.215  0.00  0.00    +0.000 A 
ATOM     27  C   UNL     1      -3.514  11.562  18.155  0.00  0.00    +0.000 A 
ATOM     28  C   UNL     1      -2.291  11.773  18.781  0.00  0.00    +0.000 A 
BRANCH  27  29
ATOM     29  O   UNL     1      -4.538  12.404  18.477  0.00  0.00    +0.000 OA
ATOM     30  H   UNL     1      -5.126  11.949  19.103  0.00  0.00    +0.000 HD
ENDBRANCH  27  29
ENDBRANCH  22  23
ENDBRANCH   6  22
TORSDOF 6
ENDMDL
MODEL 8
REMARK VINA RESULT:      -8.7      1.346      1.640
REMARK  Name = 
REMARK  7 active torsions:
REMARK  status: ('A' for Active; 'I' for Inactive)
REMARK    1  A    between atoms: C_1  and  S_2
REMARK    2  A    between atoms: S_2  and  C_5
REMARK    3  A    between atoms: C_7  and  C_8
REMARK    4  A    between atoms: N_13  and  C_14
REMARK    5  A    between atoms: C_14  and  C_15
REMARK    6  A    between atoms: C_19  and  O_20
REMARK    7  A    between atoms: C_24  and  C_25
REMARK                            x       y       z     vdW  Elec       q    Type
REMARK                         _______ _______ _______ _____ _____    ______ ____
ROOT
ATOM      1  C   UNL     1       1.373   8.299  20.544  0.00  0.00    +0.000 A 
ATOM      2  C   UNL     1       0.937   8.383  21.930  0.00  0.00    +0.000 A 
ATOM      3  C   UNL     1       0.230   9.426  22.385  0.00  0.00    +0.000 A 
ATOM      4  C   UNL     1      -0.116  10.550  21.481  0.00  0.00    +0.000 A 
ATOM      5  O   UNL     1      -0.806  11.470  21.912  0.00  0.00    +0.000 OA
ATOM      6  N   UNL     1       0.385  10.458  20.185  0.00  0.00    +0.000 N 
ATOM      7  C   UNL     1       1.113   9.354  19.749  0.00  0.00    +0.000 A 
ENDROOT
BRANCH   1  10
ATOM      8  C   UNL     1       2.460   4.863  20.006  0.00  0.00    +0.000 A 
ATOM      9  N   UNL     1       1.806   5.906  20.553  0.00  0.00    +0.000 NA
ATOM     10  C   UNL     1       2.040   7.097  19.967  0.00  0.00    +0.000 A 
ATOM     11  C   UNL     1       2.906   7.233  18.891  0.00  0.00    +0.000 A 
ATOM     12  C   UNL     1       3.530   6.092  18.402  0.00  0.00    +0.000 A 
ATOM     13  N   UNL     1       3.308   4.878  18.961  0.00  0.00    +0.000 NA
BRANCH   8  15
ATOM     14  C   UNL     1       3.650   2.335  20.330  0.00  0.00    +0.000 C 
ATOM     15  S   UNL     1       2.203   3.264  20.763  0.00  0.00    +0.000 S 
ATOM     16  O   UNL     1       1.077   2.625  20.103  0.00  0.00    +0.000 OA
ATOM     17  O   UNL     1       2.237   3.440  22.207  0.00  0.00    +0.000 OA
ENDBRANCH   8  15
BRANCH  12  18
ATOM     18  C   UNL     1       4.487   6.205  17.224  0.00  0.00    +0.000 C 
ATOM     19  F   UNL     1       4.484   5.093  16.431  0.00  0.00    +0.000 F 
ATOM     20  F   UNL     1       4.188   7.242  16.391  0.00  0.00    +0.000 F 
ATOM     21  F   UNL     1       5.784   6.375  17.602  0.00  0.00    +0.000 F 
ENDBRANCH  12  18
ENDBRANCH   1  10
BRANCH   6  22
ATOM     22  C   UNL     1      -0.032  11.474  19.215  0.00  0.00    +0.000 C 
BRANCH  22  23
ATOM     23  C   UNL     1      -1.345  11.093  18.566  0.00  0.00    +0.000 A 
ATOM     24  C   UNL     1      -1.396  10.081  17.597  0.00  0.00    +0.000 A 
ATOM     25  C   UNL     1      -2.580   9.819  16.904  0.00  0.00    +0.000 A 
ATOM     26  C   UNL     1      -3.724  10.576  17.160  0.00  0.00    +0.000 A 
ATOM     27  C   UNL     1      -3.677  11.571  18.129  0.00  0.00    +0.000 A 
ATOM     28  C   UNL     1      -2.511  11.822  18.843  0.00  0.00    +0.000 A 
BRANCH  27  29
ATOM     29  O   UNL     1      -4.759  12.357  18.396  0.00  0.00    +0.000 OA
ATOM     30  H   UNL     1      -5.480  11.790  18.718  0.00  0.00    +0.000 HD
ENDBRANCH  27  29
ENDBRANCH  22  23
ENDBRANCH   6  22
TORSDOF 6
ENDMDL
MODEL 9
REMARK VINA RESULT:      -8.6      4.358      8.505
REMARK  Name = 
REMARK  7 active torsions:
REMARK  status: ('A' for Active; 'I' for Inactive)
REMARK    1  A    between atoms: C_1  and  S_2
REMARK    2  A    between atoms: S_2  and  C_5
REMARK    3  A    between atoms: C_7  and  C_8
REMARK    4  A    between atoms: N_13  and  C_14
REMARK    5  A    between atoms: C_14  and  C_15
REMARK    6  A    between atoms: C_19  and  O_20
REMARK    7  A    between atoms: C_24  and  C_25
REMARK                            x       y       z     vdW  Elec       q    Type
REMARK                         _______ _______ _______ _____ _____    ______ ____
ROOT
ATOM      1  C   UNL     1       1.964   6.569  19.889  0.00  0.00    +0.000 A 
ATOM      2  C   UNL     1       1.641   5.369  20.648  0.00  0.00    +0.000 A 
ATOM      3  C   UNL     1       2.194   4.183  20.362  0.00  0.00    +0.000 A 
ATOM      4  C   UNL     1       3.151   4.053  19.235  0.00  0.00    +0.000 A 
ATOM      5  O   UNL     1       3.678   2.964  19.026  0.00  0.00    +0.000 OA
ATOM      6  N   UNL     1       3.371   5.211  18.495  0.00  0.00    +0.000 N 
ATOM      7  C   UNL     1       2.780   6.427  18.827  0.00  0.00    +0.000 A 
ENDROOT
BRANCH   1  10
ATOM      8  C   UNL     1       1.260  10.142  19.791  0.00  0.00    +0.000 A 
ATOM      9  N   UNL     1       1.694   8.932  19.386  0.00  0.00    +0.000 NA
ATOM     10  C   UNL     1       1.478   7.928  20.259  0.00  0.00    +0.000 A 
ATOM     11  C   UNL     1       0.869   8.137  21.488  0.00  0.00    +0.000 A 
ATOM     12  C   UNL     1       0.457   9.424  21.808  0.00  0.00    +0.000 A 
ATOM     13  N   UNL     1       0.649  10.454  20.948  0.00  0.00    +0.000 NA
BRANCH   8  15
ATOM     14  C   UNL     1      -0.081  12.084  18.261  0.00  0.00    +0.000 C 
ATOM     15  S   UNL     1       1.544  11.513  18.679  0.00  0.00    +0.000 S 
ATOM     16  O   UNL     1       2.138  10.993  17.458  0.00  0.00    +0.000 OA
ATOM     17  O   UNL     1       2.181  12.581  19.436  0.00  0.00    +0.000 OA
ENDBRANCH   8  15
BRANCH  12  18
ATOM     18  C   UNL     1      -0.214   9.689  23.148  0.00  0.00    +0.000 C 
ATOM     19  F   UNL     1      -1.316   8.909  23.351  0.00  0.00    +0.000 F 
ATOM     20  F   UNL     1       0.603   9.443  24.211  0.00  0.00    +0.000 F 
ATOM     21  F   UNL     1      -0.649  10.973  23.285  0.00  0.00    +0.000 F 
ENDBRANCH  12  18
ENDBRANCH   1  10
BRANCH   6  22
ATOM     22  C   UNL     1       4.402   5.172  17.454  0.00  0.00    +0.000 C 
BRANCH  22  23
ATOM     23  C   UNL     1       5.676   5.837  17.930  0.00  0.00    +0.000 A 
ATOM     24  C   UNL     1       6.271   6.861  17.178  0.00  0.00    +0.000 A 
ATOM     25  C   UNL     1       7.513   7.384  17.547  0.00  0.00    +0.000 A 
ATOM     26  C   UNL     1       8.182   6.879  18.662  0.00  0.00    +0.000 A 
ATOM     27  C   UNL     1       7.586   5.873  19.414  0.00  0.00    +0.000 A 
ATOM     28  C   UNL     1       6.339   5.364  19.071  0.00  0.00    +0.000 A 
BRANCH  27  29
ATOM     29  O   UNL     1       8.212   5.326  20.496  0.00  0.00    +0.000 OA
ATOM     30  H   UNL     1       9.159   5.241  20.293  0.00  0.00    +0.000 HD
ENDBRANCH  27  29
ENDBRANCH  22  23
ENDBRANCH   6  22
TORSDOF 6
ENDMDL
