MODEL 1
REMARK VINA RESULT:      -9.3      0.000      0.000
REMARK  Name = 
REMARK  9 active torsions:
REMARK  status: ('A' for Active; 'I' for Inactive)
REMARK    1  A    between atoms: C_1  and  C_2
REMARK    2  A    between atoms: C_8  and  N_9
REMARK    3  A    between atoms: C_10  and  C_12
REMARK    4  A    between atoms: C_12  and  N_13
REMARK    5  A    between atoms: C_16  and  O_17
REMARK    6  A    between atoms: O_17  and  C_18
REMARK    7  A    between atoms: C_21  and  C_22
REMARK    8  A    between atoms: C_22  and  C_23
REMARK    9  A    between atoms: C_22  and  C_24
REMARK                            x       y       z     vdW  Elec       q    Type
REMARK                         _______ _______ _______ _____ _____    ______ ____
ROOT
ATOM      1  N   UNL     1       4.150   4.479  18.668  0.00  0.00    +0.000 N 
ATOM      2  N   UNL     1       5.285   5.229  18.870  0.00  0.00    +0.000 NA
ATOM      3  C   UNL     1       5.859   5.193  17.703  0.00  0.00    +0.000 A 
ATOM      4  C   UNL     1       7.157   5.819  17.327  0.00  0.00    +0.000 A 
ATOM      5  N   UNL     1       7.620   5.796  16.117  0.00  0.00    +0.000 NA
ATOM      6  C   UNL     1       6.898   5.079  15.144  0.00  0.00    +0.000 A 
ATOM      7  C   UNL     1       7.443   5.015  13.861  0.00  0.00    +0.000 A 
ATOM      8  C   UNL     1       6.794   4.307  12.854  0.00  0.00    +0.000 A 
ATOM      9  C   UNL     1       5.594   3.650  13.128  0.00  0.00    +0.000 A 
ATOM     10  C   UNL     1       5.040   3.691  14.414  0.00  0.00    +0.000 A 
ATOM     11  C   UNL     1       5.688   4.404  15.425  0.00  0.00    +0.000 A 
ATOM     12  N   UNL     1       5.206   4.502  16.735  0.00  0.00    +0.000 N 
ATOM     13  C   UNL     1       4.080   3.999  17.343  0.00  0.00    +0.000 A 
ATOM     14  O   UNL     1       3.199   3.295  16.875  0.00  0.00    +0.000 OA
ENDROOT
BRANCH   1  15
ATOM     15  C   UNL     1       3.241   4.164  19.735  0.00  0.00    +0.000 C 
BRANCH  15  17
ATOM     16  N   UNL     1       2.625   6.573  19.989  0.00  0.00    +0.000 N 
ATOM     17  C   UNL     1       2.198   5.243  20.022  0.00  0.00    +0.000 C 
ATOM     18  O   UNL     1       1.091   4.873  20.402  0.00  0.00    +0.000 OA
ATOM     19  H   UNL     1       3.630   6.732  19.965  0.00  0.00    +0.000 HD
BRANCH  16  27
ATOM     20  C   UNL     1       2.155   8.633  17.801  0.00  0.00    +0.000 C 
ATOM     21  C   UNL     1       1.548   8.675  19.181  0.00  0.00    +0.000 A 
ATOM     22  C   UNL     1       0.717   9.787  19.467  0.00  0.00    +0.000 A 
ATOM     23  C   UNL     1       0.100   9.934  20.705  0.00  0.00    +0.000 A 
ATOM     24  C   UNL     1       0.277   8.950  21.656  0.00  0.00    +0.000 A 
ATOM     25  F   UNL     1      -0.329   9.061  22.846  0.00  0.00    +0.000 F 
ATOM     26  C   UNL     1       1.075   7.844  21.402  0.00  0.00    +0.000 A 
ATOM     27  C   UNL     1       1.761   7.695  20.181  0.00  0.00    +0.000 A 
ENDBRANCH  16  27
ENDBRANCH  15  17
ENDBRANCH   1  15
BRANCH   4  28
ATOM     28  O   UNL     1       7.788   6.350  18.428  0.00  0.00    +0.000 OA
BRANCH  28  29
ATOM     29  C   UNL     1       8.053   7.728  18.364  0.00  0.00    +0.000 A 
ATOM     30  C   UNL     1       7.397   8.482  17.398  0.00  0.00    +0.000 A 
ATOM     31  C   UNL     1       7.693   9.846  17.278  0.00  0.00    +0.000 A 
ATOM     32  C   UNL     1       8.642  10.453  18.119  0.00  0.00    +0.000 A 
ATOM     33  C   UNL     1       9.233   9.685  19.132  0.00  0.00    +0.000 A 
ATOM     34  C   UNL     1       8.918   8.340  19.272  0.00  0.00    +0.000 A 
BRANCH  32  35
ATOM     35  C   UNL     1       9.047  11.902  17.908  0.00  0.00    +0.000 C 
ATOM     36  C   UNL     1       7.898  12.744  17.347  0.00  0.00    +0.000 C 
ATOM     37  C   UNL     1       9.576  12.520  19.208  0.00  0.00    +0.000 C 
ENDBRANCH  32  35
ENDBRANCH  28  29
ENDBRANCH   4  28
TORSDOF 6
ENDMDL
MODEL 2
REMARK VINA RESULT:      -8.8      2.672      7.270
REMARK  Name = 
REMARK  9 active torsions:
REMARK  status: ('A' for Active; 'I' for Inactive)
REMARK    1  A    between atoms: C_1  and  C_2
REMARK    2  A    between atoms: C_8  and  N_9
REMARK    3  A    between atoms: C_10  and  C_12
REMARK    4  A    between atoms: C_12  and  N_13
REMARK    5  A    between atoms: C_16  and  O_17
REMARK    6  A    between atoms: O_17  and  C_18
REMARK    7  A    between atoms: C_21  and  C_22
REMARK    8  A    between atoms: C_22  and  C_23
REMARK    9  A    between atoms: C_22  and  C_24
REMARK                            x       y       z     vdW  Elec       q    Type
REMARK                         _______ _______ _______ _____ _____    ______ ____
ROOT
ATOM      1  N   UNL     1       6.390   6.894  17.309  0.00  0.00    +0.000 N 
ATOM      2  N   UNL     1       5.240   7.625  17.493  0.00  0.00    +0.000 NA
ATOM      3  C   UNL     1       4.340   6.699  17.659  0.00  0.00    +0.000 A 
ATOM      4  C   UNL     1       2.881   6.901  17.876  0.00  0.00    +0.000 A 
ATOM      5  N   UNL     1       2.066   5.921  18.107  0.00  0.00    +0.000 NA
ATOM      6  C   UNL     1       2.578   4.610  18.070  0.00  0.00    +0.000 A 
ATOM      7  C   UNL     1       1.674   3.565  18.261  0.00  0.00    +0.000 A 
ATOM      8  C   UNL     1       2.106   2.242  18.217  0.00  0.00    +0.000 A 
ATOM      9  C   UNL     1       3.449   1.957  17.974  0.00  0.00    +0.000 A 
ATOM     10  C   UNL     1       4.368   2.994  17.764  0.00  0.00    +0.000 A 
ATOM     11  C   UNL     1       3.938   4.321  17.811  0.00  0.00    +0.000 A 
ATOM     12  N   UNL     1       4.785   5.418  17.618  0.00  0.00    +0.000 N 
ATOM     13  C   UNL     1       6.134   5.508  17.369  0.00  0.00    +0.000 A 
ATOM     14  O   UNL     1       6.954   4.615  17.225  0.00  0.00    +0.000 OA
ENDROOT
BRANCH   1  15
ATOM     15  C   UNL     1       7.647   7.513  16.989  0.00  0.00    +0.000 C 
BRANCH  15  17
ATOM     16  N   UNL     1       8.643   9.597  17.944  0.00  0.00    +0.000 N 
ATOM     17  C   UNL     1       8.303   8.258  18.150  0.00  0.00    +0.000 C 
ATOM     18  O   UNL     1       8.620   7.599  19.138  0.00  0.00    +0.000 OA
ATOM     19  H   UNL     1       8.609   9.936  16.985  0.00  0.00    +0.000 HD
BRANCH  16  27
ATOM     20  C   UNL     1      10.996  11.435  17.359  0.00  0.00    +0.000 C 
ATOM     21  C   UNL     1      10.319  11.286  18.698  0.00  0.00    +0.000 A 
ATOM     22  C   UNL     1      10.857  12.055  19.760  0.00  0.00    +0.000 A 
ATOM     23  C   UNL     1      10.315  12.004  21.041  0.00  0.00    +0.000 A 
ATOM     24  C   UNL     1       9.207  11.213  21.262  0.00  0.00    +0.000 A 
ATOM     25  F   UNL     1       8.656  11.169  22.483  0.00  0.00    +0.000 F 
ATOM     26  C   UNL     1       8.651  10.458  20.240  0.00  0.00    +0.000 A 
ATOM     27  C   UNL     1       9.210  10.442  18.948  0.00  0.00    +0.000 A 
ENDBRANCH  16  27
ENDBRANCH  15  17
ENDBRANCH   1  15
BRANCH   4  28
ATOM     28  O   UNL     1       2.539   8.227  17.740  0.00  0.00    +0.000 OA
BRANCH  28  29
ATOM     29  C   UNL     1       1.699   8.738  18.743  0.00  0.00    +0.000 A 
ATOM     30  C   UNL     1       0.792   9.735  18.402  0.00  0.00    +0.000 A 
ATOM     31  C   UNL     1      -0.011  10.299  19.400  0.00  0.00    +0.000 A 
ATOM     32  C   UNL     1       0.091   9.870  20.735  0.00  0.00    +0.000 A 
ATOM     33  C   UNL     1       0.960   8.812  21.036  0.00  0.00    +0.000 A 
ATOM     34  C   UNL     1       1.736   8.230  20.043  0.00  0.00    +0.000 A 
BRANCH  32  35
ATOM     35  C   UNL     1      -0.695  10.565  21.833  0.00  0.00    +0.000 C 
ATOM     36  C   UNL     1      -0.501   9.891  23.194  0.00  0.00    +0.000 C 
ATOM     37  C   UNL     1      -0.326  12.051  21.917  0.00  0.00    +0.000 C 
ENDBRANCH  32  35
ENDBRANCH  28  29
ENDBRANCH   4  28
TORSDOF 6
ENDMDL
MODEL 3
REMARK VINA RESULT:      -8.8      3.417      6.241
REMARK  Name = 
REMARK  9 active torsions:
REMARK  status: ('A' for Active; 'I' for Inactive)
REMARK    1  A    between atoms: C_1  and  C_2
REMARK    2  A    between atoms: C_8  and  N_9
REMARK    3  A    between atoms: C_10  and  C_12
REMARK    4  A    between atoms: C_12  and  N_13
REMARK    5  A    between atoms: C_16  and  O_17
REMARK    6  A    between atoms: O_17  and  C_18
REMARK    7  A    between atoms: C_21  and  C_22
REMARK    8  A    between atoms: C_22  and  C_23
REMARK    9  A    between atoms: C_22  and  C_24
REMARK                            x       y       z     vdW  Elec       q    Type
REMARK                         _______ _______ _______ _____ _____    ______ ____
ROOT
ATOM      1  N   UNL     1       2.862   7.936  18.189  0.00  0.00    +0.000 N 
ATOM      2  N   UNL     1       3.965   7.330  17.637  0.00  0.00    +0.000 NA
ATOM      3  C   UNL     1       4.018   6.200  18.280  0.00  0.00    +0.000 A 
ATOM      4  C   UNL     1       5.039   5.128  18.119  0.00  0.00    +0.000 A 
ATOM      5  N   UNL     1       4.973   3.998  18.750  0.00  0.00    +0.000 NA
ATOM      6  C   UNL     1       3.932   3.819  19.682  0.00  0.00    +0.000 A 
ATOM      7  C   UNL     1       3.912   2.620  20.395  0.00  0.00    +0.000 A 
ATOM      8  C   UNL     1       2.925   2.383  21.348  0.00  0.00    +0.000 A 
ATOM      9  C   UNL     1       1.953   3.352  21.598  0.00  0.00    +0.000 A 
ATOM     10  C   UNL     1       1.967   4.568  20.902  0.00  0.00    +0.000 A 
ATOM     11  C   UNL     1       2.955   4.806  19.943  0.00  0.00    +0.000 A 
ATOM     12  N   UNL     1       3.043   5.988  19.199  0.00  0.00    +0.000 N 
ATOM     13  C   UNL     1       2.270   7.125  19.180  0.00  0.00    +0.000 A 
ATOM     14  O   UNL     1       1.290   7.404  19.853  0.00  0.00    +0.000 OA
ENDROOT
BRANCH   1  15
ATOM     15  C   UNL     1       2.470   9.275  17.841  0.00  0.00    +0.000 C 
BRANCH  15  17
ATOM     16  N   UNL     1       1.408  10.331  19.842  0.00  0.00    +0.000 N 
ATOM     17  C   UNL     1       1.227   9.782  18.570  0.00  0.00    +0.000 C 
ATOM     18  O   UNL     1       0.135   9.547  18.058  0.00  0.00    +0.000 OA
ATOM     19  H   UNL     1       2.316  10.188  20.279  0.00  0.00    +0.000 HD
BRANCH  16  27
ATOM     20  C   UNL     1       0.744   9.304  22.628  0.00  0.00    +0.000 C 
ATOM     21  C   UNL     1       0.019  10.417  21.915  0.00  0.00    +0.000 A 
ATOM     22  C   UNL     1      -1.073  10.998  22.607  0.00  0.00    +0.000 A 
ATOM     23  C   UNL     1      -1.817  12.035  22.052  0.00  0.00    +0.000 A 
ATOM     24  C   UNL     1      -1.452  12.526  20.816  0.00  0.00    +0.000 A 
ATOM     25  F   UNL     1      -2.141  13.540  20.275  0.00  0.00    +0.000 F 
ATOM     26  C   UNL     1      -0.381  11.986  20.118  0.00  0.00    +0.000 A 
ATOM     27  C   UNL     1       0.355  10.898  20.626  0.00  0.00    +0.000 A 
ENDBRANCH  16  27
ENDBRANCH  15  17
ENDBRANCH   1  15
BRANCH   4  28
ATOM     28  O   UNL     1       6.051   5.530  17.278  0.00  0.00    +0.000 OA
BRANCH  28  29
ATOM     29  C   UNL     1       6.032   4.958  15.996  0.00  0.00    +0.000 A 
ATOM     30  C   UNL     1       7.113   5.189  15.152  0.00  0.00    +0.000 A 
ATOM     31  C   UNL     1       7.084   4.677  13.849  0.00  0.00    +0.000 A 
ATOM     32  C   UNL     1       5.979   3.938  13.389  0.00  0.00    +0.000 A 
ATOM     33  C   UNL     1       4.938   3.659  14.285  0.00  0.00    +0.000 A 
ATOM     34  C   UNL     1       4.977   4.139  15.587  0.00  0.00    +0.000 A 
BRANCH  32  35
ATOM     35  C   UNL     1       5.899   3.488  11.941  0.00  0.00    +0.000 C 
ATOM     36  C   UNL     1       6.781   2.267  11.670  0.00  0.00    +0.000 C 
ATOM     37  C   UNL     1       4.449   3.198  11.535  0.00  0.00    +0.000 C 
ENDBRANCH  32  35
ENDBRANCH  28  29
ENDBRANCH   4  28
TORSDOF 6
ENDMDL
MODEL 4
REMARK VINA RESULT:      -8.8      3.608      8.206
REMARK  Name = 
REMARK  9 active torsions:
REMARK  status: ('A' for Active; 'I' for Inactive)
REMARK    1  A    between atoms: C_1  and  C_2
REMARK    2  A    between atoms: C_8  and  N_9
REMARK    3  A    between atoms: C_10  and  C_12
REMARK    4  A    between atoms: C_12  and  N_13
REMARK    5  A    between atoms: C_16  and  O_17
REMARK    6  A    between atoms: O_17  and  C_18
REMARK    7  A    between atoms: C_21  and  C_22
REMARK    8  A    between atoms: C_22  and  C_23
REMARK    9  A    between atoms: C_22  and  C_24
REMARK                            x       y       z     vdW  Elec       q    Type
REMARK                         _______ _______ _______ _____ _____    ______ ____
ROOT
ATOM      1  N   UNL     1       5.734   6.014  17.982  0.00  0.00    +0.000 N 
ATOM      2  N   UNL     1       4.658   6.867  17.920  0.00  0.00    +0.000 NA
ATOM      3  C   UNL     1       3.750   6.227  18.600  0.00  0.00    +0.000 A 
ATOM      4  C   UNL     1       2.349   6.664  18.849  0.00  0.00    +0.000 A 
ATOM      5  N   UNL     1       1.532   5.998  19.602  0.00  0.00    +0.000 NA
ATOM      6  C   UNL     1       1.973   4.772  20.137  0.00  0.00    +0.000 A 
ATOM      7  C   UNL     1       1.060   4.039  20.895  0.00  0.00    +0.000 A 
ATOM      8  C   UNL     1       1.420   2.809  21.438  0.00  0.00    +0.000 A 
ATOM      9  C   UNL     1       2.699   2.300  21.217  0.00  0.00    +0.000 A 
ATOM     10  C   UNL     1       3.624   3.014  20.444  0.00  0.00    +0.000 A 
ATOM     11  C   UNL     1       3.266   4.250  19.902  0.00  0.00    +0.000 A 
ATOM     12  N   UNL     1       4.125   5.033  19.123  0.00  0.00    +0.000 N 
ATOM     13  C   UNL     1       5.427   4.850  18.719  0.00  0.00    +0.000 A 
ATOM     14  O   UNL     1       6.175   3.909  18.929  0.00  0.00    +0.000 OA
ENDROOT
BRANCH   1  15
ATOM     15  C   UNL     1       6.958   6.273  17.276  0.00  0.00    +0.000 C 
BRANCH  15  17
ATOM     16  N   UNL     1       6.444   5.570  14.932  0.00  0.00    +0.000 N 
ATOM     17  C   UNL     1       7.209   5.354  16.081  0.00  0.00    +0.000 C 
ATOM     18  O   UNL     1       7.961   4.397  16.252  0.00  0.00    +0.000 OA
ATOM     19  H   UNL     1       5.645   6.193  15.024  0.00  0.00    +0.000 HD
BRANCH  16  27
ATOM     20  C   UNL     1       8.780   6.054  13.044  0.00  0.00    +0.000 C 
ATOM     21  C   UNL     1       7.667   5.061  12.817  0.00  0.00    +0.000 A 
ATOM     22  C   UNL     1       7.723   4.325  11.607  0.00  0.00    +0.000 A 
ATOM     23  C   UNL     1       6.754   3.378  11.288  0.00  0.00    +0.000 A 
ATOM     24  C   UNL     1       5.743   3.131  12.194  0.00  0.00    +0.000 A 
ATOM     25  F   UNL     1       4.815   2.206  11.916  0.00  0.00    +0.000 F 
ATOM     26  C   UNL     1       5.669   3.827  13.391  0.00  0.00    +0.000 A 
ATOM     27  C   UNL     1       6.599   4.833  13.718  0.00  0.00    +0.000 A 
ENDBRANCH  16  27
ENDBRANCH  15  17
ENDBRANCH   1  15
BRANCH   4  28
ATOM     28  O   UNL     1       2.051   7.804  18.138  0.00  0.00    +0.000 OA
BRANCH  28  29
ATOM     29  C   UNL     1       1.373   8.801  18.857  0.00  0.00    +0.000 A 
ATOM     30  C   UNL     1       1.427   8.768  20.247  0.00  0.00    +0.000 A 
ATOM     31  C   UNL     1       0.707   9.717  20.982  0.00  0.00    +0.000 A 
ATOM     32  C   UNL     1      -0.066  10.697  20.332  0.00  0.00    +0.000 A 
ATOM     33  C   UNL     1      -0.042  10.752  18.932  0.00  0.00    +0.000 A 
ATOM     34  C   UNL     1       0.695   9.830  18.200  0.00  0.00    +0.000 A 
BRANCH  32  35
ATOM     35  C   UNL     1      -0.939  11.649  21.132  0.00  0.00    +0.000 C 
ATOM     36  C   UNL     1      -0.949  11.303  22.623  0.00  0.00    +0.000 C 
ATOM     37  C   UNL     1      -0.499  13.103  20.925  0.00  0.00    +0.000 C 
ENDBRANCH  32  35
ENDBRANCH  28  29
ENDBRANCH   4  28
TORSDOF 6
ENDMDL
MODEL 5
REMARK VINA RESULT:      -8.7      3.316      6.203
REMARK  Name = 
REMARK  9 active torsions:
REMARK  status: ('A' for Active; 'I' for Inactive)
REMARK    1  A    between atoms: C_1  and  C_2
REMARK    2  A    between atoms: C_8  and  N_9
REMARK    3  A    between atoms: C_10  and  C_12
REMARK    4  A    between atoms: C_12  and  N_13
REMARK    5  A    between atoms: C_16  and  O_17
REMARK    6  A    between atoms: O_17  and  C_18
REMARK    7  A    between atoms: C_21  and  C_22
REMARK    8  A    between atoms: C_22  and  C_23
REMARK    9  A    between atoms: C_22  and  C_24
REMARK                            x       y       z     vdW  Elec       q    Type
REMARK                         _______ _______ _______ _____ _____    ______ ____
ROOT
ATOM      1  N   UNL     1       2.855   8.122  18.132  0.00  0.00    +0.000 N 
ATOM      2  N   UNL     1       3.930   7.502  17.541  0.00  0.00    +0.000 NA
ATOM      3  C   UNL     1       3.984   6.365  18.173  0.00  0.00    +0.000 A 
ATOM      4  C   UNL     1       4.981   5.278  17.971  0.00  0.00    +0.000 A 
ATOM      5  N   UNL     1       4.915   4.144  18.595  0.00  0.00    +0.000 NA
ATOM      6  C   UNL     1       3.901   3.974  19.557  0.00  0.00    +0.000 A 
ATOM      7  C   UNL     1       3.883   2.770  20.261  0.00  0.00    +0.000 A 
ATOM      8  C   UNL     1       2.922   2.541  21.242  0.00  0.00    +0.000 A 
ATOM      9  C   UNL     1       1.976   3.523  21.530  0.00  0.00    +0.000 A 
ATOM     10  C   UNL     1       1.989   4.745  20.844  0.00  0.00    +0.000 A 
ATOM     11  C   UNL     1       2.949   4.975  19.857  0.00  0.00    +0.000 A 
ATOM     12  N   UNL     1       3.035   6.162  19.121  0.00  0.00    +0.000 N 
ATOM     13  C   UNL     1       2.281   7.312  19.135  0.00  0.00    +0.000 A 
ATOM     14  O   UNL     1       1.327   7.601  19.841  0.00  0.00    +0.000 OA
ENDROOT
BRANCH   1  15
ATOM     15  C   UNL     1       2.475   9.470  17.809  0.00  0.00    +0.000 C 
BRANCH  15  17
ATOM     16  N   UNL     1       1.309  10.627  19.693  0.00  0.00    +0.000 N 
ATOM     17  C   UNL     1       1.188   9.945  18.479  0.00  0.00    +0.000 C 
ATOM     18  O   UNL     1       0.124   9.577  17.988  0.00  0.00    +0.000 OA
ATOM     19  H   UNL     1       2.221  10.599  20.145  0.00  0.00    +0.000 HD
BRANCH  16  27
ATOM     20  C   UNL     1      -0.248  13.024  18.653  0.00  0.00    +0.000 C 
ATOM     21  C   UNL     1      -0.515  12.310  19.955  0.00  0.00    +0.000 A 
ATOM     22  C   UNL     1      -1.563  12.833  20.753  0.00  0.00    +0.000 A 
ATOM     23  C   UNL     1      -1.904  12.257  21.973  0.00  0.00    +0.000 A 
ATOM     24  C   UNL     1      -1.225  11.131  22.388  0.00  0.00    +0.000 A 
ATOM     25  F   UNL     1      -1.555  10.548  23.548  0.00  0.00    +0.000 F 
ATOM     26  C   UNL     1      -0.202  10.589  21.624  0.00  0.00    +0.000 A 
ATOM     27  C   UNL     1       0.206  11.182  20.413  0.00  0.00    +0.000 A 
ENDBRANCH  16  27
ENDBRANCH  15  17
ENDBRANCH   1  15
BRANCH   4  28
ATOM     28  O   UNL     1       5.973   5.671  17.102  0.00  0.00    +0.000 OA
BRANCH  28  29
ATOM     29  C   UNL     1       5.956   5.043  15.846  0.00  0.00    +0.000 A 
ATOM     30  C   UNL     1       7.092   5.127  15.049  0.00  0.00    +0.000 A 
ATOM     31  C   UNL     1       7.073   4.560  13.769  0.00  0.00    +0.000 A 
ATOM     32  C   UNL     1       5.922   3.913  13.285  0.00  0.00    +0.000 A 
ATOM     33  C   UNL     1       4.818   3.779  14.138  0.00  0.00    +0.000 A 
ATOM     34  C   UNL     1       4.845   4.314  15.419  0.00  0.00    +0.000 A 
BRANCH  32  35
ATOM     35  C   UNL     1       5.864   3.405  11.855  0.00  0.00    +0.000 C 
ATOM     36  C   UNL     1       6.761   2.183  11.643  0.00  0.00    +0.000 C 
ATOM     37  C   UNL     1       4.423   3.086  11.443  0.00  0.00    +0.000 C 
ENDBRANCH  32  35
ENDBRANCH  28  29
ENDBRANCH   4  28
TORSDOF 6
ENDMDL
MODEL 6
REMARK VINA RESULT:      -8.6      3.566      6.506
REMARK  Name = 
REMARK  9 active torsions:
REMARK  status: ('A' for Active; 'I' for Inactive)
REMARK    1  A    between atoms: C_1  and  C_2
REMARK    2  A    between atoms: C_8  and  N_9
REMARK    3  A    between atoms: C_10  and  C_12
REMARK    4  A    between atoms: C_12  and  N_13
REMARK    5  A    between atoms: C_16  and  O_17
REMARK    6  A    between atoms: O_17  and  C_18
REMARK    7  A    between atoms: C_21  and  C_22
REMARK    8  A    between atoms: C_22  and  C_23
REMARK    9  A    between atoms: C_22  and  C_24
REMARK                            x       y       z     vdW  Elec       q    Type
REMARK                         _______ _______ _______ _____ _____    ______ ____
ROOT
ATOM      1  N   UNL     1       2.049   8.157  19.321  0.00  0.00    +0.000 N 
ATOM      2  N   UNL     1       3.104   7.797  18.516  0.00  0.00    +0.000 NA
ATOM      3  C   UNL     1       3.344   6.575  18.893  0.00  0.00    +0.000 A 
ATOM      4  C   UNL     1       4.413   5.676  18.379  0.00  0.00    +0.000 A 
ATOM      5  N   UNL     1       4.534   4.443  18.759  0.00  0.00    +0.000 NA
ATOM      6  C   UNL     1       3.662   3.970  19.758  0.00  0.00    +0.000 A 
ATOM      7  C   UNL     1       3.846   2.658  20.198  0.00  0.00    +0.000 A 
ATOM      8  C   UNL     1       3.034   2.129  21.198  0.00  0.00    +0.000 A 
ATOM      9  C   UNL     1       2.035   2.916  21.770  0.00  0.00    +0.000 A 
ATOM     10  C   UNL     1       1.846   4.240  21.352  0.00  0.00    +0.000 A 
ATOM     11  C   UNL     1       2.657   4.771  20.346  0.00  0.00    +0.000 A 
ATOM     12  N   UNL     1       2.537   6.079  19.864  0.00  0.00    +0.000 N 
ATOM     13  C   UNL     1       1.680   7.104  20.186  0.00  0.00    +0.000 A 
ATOM     14  O   UNL     1       0.792   7.135  21.023  0.00  0.00    +0.000 OA
ENDROOT
BRANCH   1  15
ATOM     15  C   UNL     1       1.502   9.486  19.319  0.00  0.00    +0.000 C 
BRANCH  15  17
ATOM     16  N   UNL     1      -0.805  10.329  18.853  0.00  0.00    +0.000 N 
ATOM     17  C   UNL     1       0.333   9.690  18.356  0.00  0.00    +0.000 C 
ATOM     18  O   UNL     1       0.410   9.155  17.253  0.00  0.00    +0.000 OA
ATOM     19  H   UNL     1      -0.860  10.449  19.862  0.00  0.00    +0.000 HD
BRANCH  16  27
ATOM     20  C   UNL     1      -2.889  12.343  19.777  0.00  0.00    +0.000 C 
ATOM     21  C   UNL     1      -2.946  11.560  18.489  0.00  0.00    +0.000 A 
ATOM     22  C   UNL     1      -4.085  11.778  17.674  0.00  0.00    +0.000 A 
ATOM     23  C   UNL     1      -4.246  11.114  16.461  0.00  0.00    +0.000 A 
ATOM     24  C   UNL     1      -3.253  10.257  16.035  0.00  0.00    +0.000 A 
ATOM     25  F   UNL     1      -3.380   9.628  14.859  0.00  0.00    +0.000 F 
ATOM     26  C   UNL     1      -2.122  10.033  16.806  0.00  0.00    +0.000 A 
ATOM     27  C   UNL     1      -1.955  10.643  18.064  0.00  0.00    +0.000 A 
ENDBRANCH  16  27
ENDBRANCH  15  17
ENDBRANCH   1  15
BRANCH   4  28
ATOM     28  O   UNL     1       5.253   6.346  17.519  0.00  0.00    +0.000 OA
BRANCH  28  29
ATOM     29  C   UNL     1       5.626   5.636  16.366  0.00  0.00    +0.000 A 
ATOM     30  C   UNL     1       6.981   5.461  16.107  0.00  0.00    +0.000 A 
ATOM     31  C   UNL     1       7.373   4.809  14.931  0.00  0.00    +0.000 A 
ATOM     32  C   UNL     1       6.415   4.334  14.017  0.00  0.00    +0.000 A 
ATOM     33  C   UNL     1       5.057   4.459  14.341  0.00  0.00    +0.000 A 
ATOM     34  C   UNL     1       4.665   5.078  15.520  0.00  0.00    +0.000 A 
BRANCH  32  35
ATOM     35  C   UNL     1       6.844   3.734  12.689  0.00  0.00    +0.000 C 
ATOM     36  C   UNL     1       5.700   2.987  12.000  0.00  0.00    +0.000 C 
ATOM     37  C   UNL     1       7.415   4.811  11.759  0.00  0.00    +0.000 C 
ENDBRANCH  32  35
ENDBRANCH  28  29
ENDBRANCH   4  28
TORSDOF 6
ENDMDL
MODEL 7
REMARK VINA RESULT:      -8.6      3.396      6.147
REMARK  Name = 
REMARK  9 active torsions:
REMARK  status: ('A' for Active; 'I' for Inactive)
REMARK    1  A    between atoms: C_1  and  C_2
REMARK    2  A    between atoms: C_8  and  N_9
REMARK    3  A    between atoms: C_10  and  C_12
REMARK    4  A    between atoms: C_12  and  N_13
REMARK    5  A    between atoms: C_16  and  O_17
REMARK    6  A    between atoms: O_17  and  C_18
REMARK    7  A    between atoms: C_21  and  C_22
REMARK    8  A    between atoms: C_22  and  C_23
REMARK    9  A    between atoms: C_22  and  C_24
REMARK                            x       y       z     vdW  Elec       q    Type
REMARK                         _______ _______ _______ _____ _____    ______ ____
ROOT
ATOM      1  N   UNL     1       2.784   7.958  18.285  0.00  0.00    +0.000 N 
ATOM      2  N   UNL     1       3.916   7.361  17.783  0.00  0.00    +0.000 NA
ATOM      3  C   UNL     1       3.950   6.231  18.427  0.00  0.00    +0.000 A 
ATOM      4  C   UNL     1       4.986   5.168  18.312  0.00  0.00    +0.000 A 
ATOM      5  N   UNL     1       4.901   4.038  18.939  0.00  0.00    +0.000 NA
ATOM      6  C   UNL     1       3.821   3.849  19.823  0.00  0.00    +0.000 A 
ATOM      7  C   UNL     1       3.780   2.650  20.535  0.00  0.00    +0.000 A 
ATOM      8  C   UNL     1       2.753   2.404  21.442  0.00  0.00    +0.000 A 
ATOM      9  C   UNL     1       1.763   3.364  21.648  0.00  0.00    +0.000 A 
ATOM     10  C   UNL     1       1.798   4.580  20.954  0.00  0.00    +0.000 A 
ATOM     11  C   UNL     1       2.825   4.828  20.041  0.00  0.00    +0.000 A 
ATOM     12  N   UNL     1       2.937   6.011  19.302  0.00  0.00    +0.000 N 
ATOM     13  C   UNL     1       2.155   7.141  19.249  0.00  0.00    +0.000 A 
ATOM     14  O   UNL     1       1.144   7.411  19.877  0.00  0.00    +0.000 OA
ENDROOT
BRANCH   1  15
ATOM     15  C   UNL     1       2.396   9.293  17.921  0.00  0.00    +0.000 C 
BRANCH  15  17
ATOM     16  N   UNL     1       1.335  10.303  19.946  0.00  0.00    +0.000 N 
ATOM     17  C   UNL     1       1.159   9.817  18.648  0.00  0.00    +0.000 C 
ATOM     18  O   UNL     1       0.070   9.646  18.107  0.00  0.00    +0.000 OA
ATOM     19  H   UNL     1       2.228  10.107  20.392  0.00  0.00    +0.000 HD
BRANCH  16  27
ATOM     20  C   UNL     1       0.677   9.280  22.735  0.00  0.00    +0.000 C 
ATOM     21  C   UNL     1      -0.045  10.398  22.024  0.00  0.00    +0.000 A 
ATOM     22  C   UNL     1      -1.130  10.985  22.722  0.00  0.00    +0.000 A 
ATOM     23  C   UNL     1      -1.870  12.026  22.169  0.00  0.00    +0.000 A 
ATOM     24  C   UNL     1      -1.507  12.515  20.932  0.00  0.00    +0.000 A 
ATOM     25  F   UNL     1      -2.193  13.533  20.394  0.00  0.00    +0.000 F 
ATOM     26  C   UNL     1      -0.443  11.969  20.230  0.00  0.00    +0.000 A 
ATOM     27  C   UNL     1       0.289  10.876  20.734  0.00  0.00    +0.000 A 
ENDBRANCH  16  27
ENDBRANCH  15  17
ENDBRANCH   1  15
BRANCH   4  28
ATOM     28  O   UNL     1       6.031   5.580  17.517  0.00  0.00    +0.000 OA
BRANCH  28  29
ATOM     29  C   UNL     1       6.027   5.074  16.207  0.00  0.00    +0.000 A 
ATOM     30  C   UNL     1       4.949   4.293  15.804  0.00  0.00    +0.000 A 
ATOM     31  C   UNL     1       4.956   3.729  14.522  0.00  0.00    +0.000 A 
ATOM     32  C   UNL     1       6.036   3.943  13.646  0.00  0.00    +0.000 A 
ATOM     33  C   UNL     1       7.072   4.795  14.053  0.00  0.00    +0.000 A 
ATOM     34  C   UNL     1       7.054   5.379  15.312  0.00  0.00    +0.000 A 
BRANCH  32  35
ATOM     35  C   UNL     1       6.095   3.234  12.304  0.00  0.00    +0.000 C 
ATOM     36  C   UNL     1       4.727   3.189  11.618  0.00  0.00    +0.000 C 
ATOM     37  C   UNL     1       7.132   3.887  11.383  0.00  0.00    +0.000 C 
ENDBRANCH  32  35
ENDBRANCH  28  29
ENDBRANCH   4  28
TORSDOF 6
ENDMDL
MODEL 8
REMARK VINA RESULT:      -8.6      4.586      9.393
REMARK  Name = 
REMARK  9 active torsions:
REMARK  status: ('A' for Active; 'I' for Inactive)
REMARK    1  A    between atoms: C_1  and  C_2
REMARK    2  A    between atoms: C_8  and  N_9
REMARK    3  A    between atoms: C_10  and  C_12
REMARK    4  A    between atoms: C_12  and  N_13
REMARK    5  A    between atoms: C_16  and  O_17
REMARK    6  A    between atoms: O_17  and  C_18
REMARK    7  A    between atoms: C_21  and  C_22
REMARK    8  A    between atoms: C_22  and  C_23
REMARK    9  A    between atoms: C_22  and  C_24
REMARK                            x       y       z     vdW  Elec       q    Type
REMARK                         _______ _______ _______ _____ _____    ______ ____
ROOT
ATOM      1  N   UNL     1       0.502  10.290  21.788  0.00  0.00    +0.000 N 
ATOM      2  N   UNL     1       0.468  11.029  20.629  0.00  0.00    +0.000 NA
ATOM      3  C   UNL     1      -0.578  11.783  20.804  0.00  0.00    +0.000 A 
ATOM      4  C   UNL     1      -1.127  12.783  19.847  0.00  0.00    +0.000 A 
ATOM      5  N   UNL     1      -2.133  13.547  20.135  0.00  0.00    +0.000 NA
ATOM      6  C   UNL     1      -2.775  13.360  21.374  0.00  0.00    +0.000 A 
ATOM      7  C   UNL     1      -3.893  14.150  21.641  0.00  0.00    +0.000 A 
ATOM      8  C   UNL     1      -4.590  14.005  22.838  0.00  0.00    +0.000 A 
ATOM      9  C   UNL     1      -4.173  13.060  23.774  0.00  0.00    +0.000 A 
ATOM     10  C   UNL     1      -3.061  12.247  23.516  0.00  0.00    +0.000 A 
ATOM     11  C   UNL     1      -2.359  12.393  22.318  0.00  0.00    +0.000 A 
ATOM     12  N   UNL     1      -1.237  11.629  21.979  0.00  0.00    +0.000 N 
ATOM     13  C   UNL     1      -0.563  10.635  22.649  0.00  0.00    +0.000 A 
ATOM     14  O   UNL     1      -0.801  10.139  23.738  0.00  0.00    +0.000 OA
ENDROOT
BRANCH   1  15
ATOM     15  C   UNL     1       1.456   9.237  21.998  0.00  0.00    +0.000 C 
BRANCH  15  17
ATOM     16  N   UNL     1       2.215   7.313  20.593  0.00  0.00    +0.000 N 
ATOM     17  C   UNL     1       1.151   7.943  21.245  0.00  0.00    +0.000 C 
ATOM     18  O   UNL     1      -0.027   7.616  21.138  0.00  0.00    +0.000 OA
ATOM     19  H   UNL     1       3.077   7.846  20.502  0.00  0.00    +0.000 HD
BRANCH  16  27
ATOM     20  C   UNL     1       3.277   6.955  17.765  0.00  0.00    +0.000 C 
ATOM     21  C   UNL     1       2.571   5.894  18.571  0.00  0.00    +0.000 A 
ATOM     22  C   UNL     1       2.375   4.647  17.928  0.00  0.00    +0.000 A 
ATOM     23  C   UNL     1       1.738   3.589  18.572  0.00  0.00    +0.000 A 
ATOM     24  C   UNL     1       1.327   3.758  19.877  0.00  0.00    +0.000 A 
ATOM     25  F   UNL     1       0.733   2.745  20.522  0.00  0.00    +0.000 F 
ATOM     26  C   UNL     1       1.515   4.964  20.537  0.00  0.00    +0.000 A 
ATOM     27  C   UNL     1       2.102   6.071  19.895  0.00  0.00    +0.000 A 
ENDBRANCH  16  27
ENDBRANCH  15  17
ENDBRANCH   1  15
BRANCH   4  28
ATOM     28  O   UNL     1      -0.466  12.730  18.641  0.00  0.00    +0.000 OA
BRANCH  28  29
ATOM     29  C   UNL     1       0.736  13.454  18.582  0.00  0.00    +0.000 A 
ATOM     30  C   UNL     1       0.708  14.808  18.900  0.00  0.00    +0.000 A 
ATOM     31  C   UNL     1       1.884  15.560  18.788  0.00  0.00    +0.000 A 
ATOM     32  C   UNL     1       3.083  14.964  18.357  0.00  0.00    +0.000 A 
ATOM     33  C   UNL     1       3.097  13.583  18.114  0.00  0.00    +0.000 A 
ATOM     34  C   UNL     1       1.940  12.829  18.254  0.00  0.00    +0.000 A 
BRANCH  32  35
ATOM     35  C   UNL     1       4.325  15.806  18.122  0.00  0.00    +0.000 C 
ATOM     36  C   UNL     1       4.564  16.805  19.258  0.00  0.00    +0.000 C 
ATOM     37  C   UNL     1       5.560  14.920  17.922  0.00  0.00    +0.000 C 
ENDBRANCH  32  35
ENDBRANCH  28  29
ENDBRANCH   4  28
TORSDOF 6
ENDMDL
MODEL 9
REMARK VINA RESULT:      -8.6      3.629      7.941
REMARK  Name = 
REMARK  9 active torsions:
REMARK  status: ('A' for Active; 'I' for Inactive)
REMARK    1  A    between atoms: C_1  and  C_2
REMARK    2  A    between atoms: C_8  and  N_9
REMARK    3  A    between atoms: C_10  and  C_12
REMARK    4  A    between atoms: C_12  and  N_13
REMARK    5  A    between atoms: C_16  and  O_17
REMARK    6  A    between atoms: O_17  and  C_18
REMARK    7  A    between atoms: C_21  and  C_22
REMARK    8  A    between atoms: C_22  and  C_23
REMARK    9  A    between atoms: C_22  and  C_24
REMARK                            x       y       z     vdW  Elec       q    Type
REMARK                         _______ _______ _______ _____ _____    ______ ____
ROOT
ATOM      1  N   UNL     1       5.706   6.050  17.899  0.00  0.00    +0.000 N 
ATOM      2  N   UNL     1       4.619   6.881  17.768  0.00  0.00    +0.000 NA
ATOM      3  C   UNL     1       3.705   6.263  18.458  0.00  0.00    +0.000 A 
ATOM      4  C   UNL     1       2.292   6.690  18.652  0.00  0.00    +0.000 A 
ATOM      5  N   UNL     1       1.467   6.050  19.419  0.00  0.00    +0.000 NA
ATOM      6  C   UNL     1       1.914   4.861  20.027  0.00  0.00    +0.000 A 
ATOM      7  C   UNL     1       0.993   4.154  20.801  0.00  0.00    +0.000 A 
ATOM      8  C   UNL     1       1.358   2.958  21.415  0.00  0.00    +0.000 A 
ATOM      9  C   UNL     1       2.649   2.459  21.250  0.00  0.00    +0.000 A 
ATOM     10  C   UNL     1       3.582   3.147  20.463  0.00  0.00    +0.000 A 
ATOM     11  C   UNL     1       3.219   4.348  19.850  0.00  0.00    +0.000 A 
ATOM     12  N   UNL     1       4.085   5.104  19.051  0.00  0.00    +0.000 N 
ATOM     13  C   UNL     1       5.398   4.920  18.687  0.00  0.00    +0.000 A 
ATOM     14  O   UNL     1       6.155   4.003  18.963  0.00  0.00    +0.000 OA
ENDROOT
BRANCH   1  15
ATOM     15  C   UNL     1       6.943   6.291  17.208  0.00  0.00    +0.000 C 
BRANCH  15  17
ATOM     16  N   UNL     1       6.448   5.560  14.869  0.00  0.00    +0.000 N 
ATOM     17  C   UNL     1       7.204   5.359  16.027  0.00  0.00    +0.000 C 
ATOM     18  O   UNL     1       7.955   4.405  16.214  0.00  0.00    +0.000 OA
ATOM     19  H   UNL     1       5.648   6.184  14.948  0.00  0.00    +0.000 HD
BRANCH  16  27
ATOM     20  C   UNL     1       8.784   6.041  12.981  0.00  0.00    +0.000 C 
ATOM     21  C   UNL     1       7.682   5.035  12.764  0.00  0.00    +0.000 A 
ATOM     22  C   UNL     1       7.747   4.284  11.564  0.00  0.00    +0.000 A 
ATOM     23  C   UNL     1       6.787   3.324  11.255  0.00  0.00    +0.000 A 
ATOM     24  C   UNL     1       5.776   3.080  12.161  0.00  0.00    +0.000 A 
ATOM     25  F   UNL     1       4.857   2.143  11.892  0.00  0.00    +0.000 F 
ATOM     26  C   UNL     1       5.693   3.791  13.349  0.00  0.00    +0.000 A 
ATOM     27  C   UNL     1       6.613   4.809  13.665  0.00  0.00    +0.000 A 
ENDBRANCH  16  27
ENDBRANCH  15  17
ENDBRANCH   1  15
BRANCH   4  28
ATOM     28  O   UNL     1       1.995   7.788  17.877  0.00  0.00    +0.000 OA
BRANCH  28  29
ATOM     29  C   UNL     1       1.659   8.952  18.586  0.00  0.00    +0.000 A 
ATOM     30  C   UNL     1       1.857  10.182  17.968  0.00  0.00    +0.000 A 
ATOM     31  C   UNL     1       1.585  11.356  18.682  0.00  0.00    +0.000 A 
ATOM     32  C   UNL     1       1.119  11.303  20.008  0.00  0.00    +0.000 A 
ATOM     33  C   UNL     1       0.860  10.049  20.578  0.00  0.00    +0.000 A 
ATOM     34  C   UNL     1       1.099   8.883  19.863  0.00  0.00    +0.000 A 
BRANCH  32  35
ATOM     35  C   UNL     1       0.940  12.576  20.816  0.00  0.00    +0.000 C 
ATOM     36  C   UNL     1       0.841  13.814  19.922  0.00  0.00    +0.000 C 
ATOM     37  C   UNL     1      -0.287  12.478  21.730  0.00  0.00    +0.000 C 
ENDBRANCH  32  35
ENDBRANCH  28  29
ENDBRANCH   4  28
TORSDOF 6
ENDMDL
