MODEL 1
REMARK VINA RESULT:      -6.5      0.000      0.000
REMARK  Name = 
REMARK  4 active torsions:
REMARK  status: ('A' for Active; 'I' for Inactive)
REMARK    1  A    between atoms: C_2  and  C_3
REMARK    2  A    between atoms: C_3  and  N_4
REMARK    3  A    between atoms: C_8  and  C_9
REMARK    4  A    between atoms: C_11  and  C_12
REMARK                            x       y       z     vdW  Elec       q    Type
REMARK                         _______ _______ _______ _____ _____    ______ ____
ROOT
ATOM      1  N   UNL     1       6.697   5.500  17.740  0.00  0.00    +0.000 N 
ATOM      2  C   UNL     1       6.940   5.035  16.493  0.00  0.00    +0.000 A 
ATOM      3  C   UNL     1       6.035   4.187  15.870  0.00  0.00    +0.000 A 
ATOM      4  C   UNL     1       4.879   3.807  16.544  0.00  0.00    +0.000 A 
ATOM      5  C   UNL     1       4.638   4.270  17.840  0.00  0.00    +0.000 A 
ATOM      6  C   UNL     1       5.580   5.133  18.413  0.00  0.00    +0.000 A 
ENDROOT
BRANCH   5   7
ATOM      7  C   UNL     1       3.430   3.933  18.594  0.00  0.00    +0.000 A 
ATOM      8  N   UNL     1       3.410   3.421  19.809  0.00  0.00    +0.000 NA
ATOM      9  C   UNL     1       2.077   3.284  20.206  0.00  0.00    +0.000 A 
ATOM     10  C   UNL     1       1.733   2.806  21.567  0.00  0.00    +0.000 C 
ATOM     11  N   UNL     1       1.106   3.596  19.348  0.00  0.00    +0.000 NA
ATOM     12  S   UNL     1       1.841   4.138  17.961  0.00  0.00    +0.000 S 
ENDBRANCH   5   7
BRANCH   1  13
ATOM     13  C   UNL     1       7.652   6.460  18.350  0.00  0.00    +0.000 C 
BRANCH  13  15
ATOM     14  C   UNL     1       8.221   8.886  18.001  0.00  0.00    +0.000 C 
ATOM     15  C   UNL     1       7.679   7.740  17.570  0.00  0.00    +0.000 C 
ENDBRANCH  13  15
ENDBRANCH   1  13
TORSDOF 3
ENDMDL
MODEL 2
REMARK VINA RESULT:      -6.5      2.062      3.270
REMARK  Name = 
REMARK  4 active torsions:
REMARK  status: ('A' for Active; 'I' for Inactive)
REMARK    1  A    between atoms: C_2  and  C_3
REMARK    2  A    between atoms: C_3  and  N_4
REMARK    3  A    between atoms: C_8  and  C_9
REMARK    4  A    between atoms: C_11  and  C_12
REMARK                            x       y       z     vdW  Elec       q    Type
REMARK                         _______ _______ _______ _____ _____    ______ ____
ROOT
ATOM      1  N   UNL     1       5.524   4.786  15.735  0.00  0.00    +0.000 N 
ATOM      2  C   UNL     1       5.485   6.135  15.824  0.00  0.00    +0.000 A 
ATOM      3  C   UNL     1       4.685   6.756  16.773  0.00  0.00    +0.000 A 
ATOM      4  C   UNL     1       3.910   5.978  17.627  0.00  0.00    +0.000 A 
ATOM      5  C   UNL     1       3.933   4.585  17.522  0.00  0.00    +0.000 A 
ATOM      6  C   UNL     1       4.768   4.014  16.555  0.00  0.00    +0.000 A 
ENDROOT
BRANCH   5   7
ATOM      7  C   UNL     1       3.167   3.708  18.408  0.00  0.00    +0.000 A 
ATOM      8  N   UNL     1       2.980   3.907  19.699  0.00  0.00    +0.000 NA
ATOM      9  C   UNL     1       2.162   2.885  20.188  0.00  0.00    +0.000 A 
ATOM     10  C   UNL     1       1.707   2.881  21.599  0.00  0.00    +0.000 C 
ATOM     11  N   UNL     1       1.782   1.905  19.366  0.00  0.00    +0.000 NA
ATOM     12  S   UNL     1       2.421   2.251  17.872  0.00  0.00    +0.000 S 
ENDBRANCH   5   7
BRANCH   1  13
ATOM     13  C   UNL     1       6.442   4.153  14.755  0.00  0.00    +0.000 C 
BRANCH  13  15
ATOM     14  C   UNL     1       6.306   3.461  12.340  0.00  0.00    +0.000 C 
ATOM     15  C   UNL     1       5.718   3.851  13.477  0.00  0.00    +0.000 C 
ENDBRANCH  13  15
ENDBRANCH   1  13
TORSDOF 3
ENDMDL
MODEL 3
REMARK VINA RESULT:      -6.4      1.030      1.030
REMARK  Name = 
REMARK  4 active torsions:
REMARK  status: ('A' for Active; 'I' for Inactive)
REMARK    1  A    between atoms: C_2  and  C_3
REMARK    2  A    between atoms: C_3  and  N_4
REMARK    3  A    between atoms: C_8  and  C_9
REMARK    4  A    between atoms: C_11  and  C_12
REMARK                            x       y       z     vdW  Elec       q    Type
REMARK                         _______ _______ _______ _____ _____    ______ ____
ROOT
ATOM      1  N   UNL     1       6.798   5.620  17.528  0.00  0.00    +0.000 N 
ATOM      2  C   UNL     1       6.989   5.417  16.204  0.00  0.00    +0.000 A 
ATOM      3  C   UNL     1       6.132   4.591  15.488  0.00  0.00    +0.000 A 
ATOM      4  C   UNL     1       5.081   3.962  16.147  0.00  0.00    +0.000 A 
ATOM      5  C   UNL     1       4.896   4.155  17.518  0.00  0.00    +0.000 A 
ATOM      6  C   UNL     1       5.783   5.008  18.186  0.00  0.00    +0.000 A 
ENDROOT
BRANCH   5   7
ATOM      7  C   UNL     1       3.793   3.549  18.266  0.00  0.00    +0.000 A 
ATOM      8  N   UNL     1       3.060   4.166  19.172  0.00  0.00    +0.000 NA
ATOM      9  C   UNL     1       2.083   3.276  19.627  0.00  0.00    +0.000 A 
ATOM     10  C   UNL     1       1.051   3.710  20.599  0.00  0.00    +0.000 C 
ATOM     11  N   UNL     1       2.080   2.023  19.171  0.00  0.00    +0.000 NA
ATOM     12  S   UNL     1       3.323   1.903  18.076  0.00  0.00    +0.000 S 
ENDBRANCH   5   7
BRANCH   1  13
ATOM     13  C   UNL     1       7.691   6.563  18.249  0.00  0.00    +0.000 C 
BRANCH  13  15
ATOM     14  C   UNL     1       8.327   8.988  18.040  0.00  0.00    +0.000 C 
ATOM     15  C   UNL     1       7.655   7.915  17.603  0.00  0.00    +0.000 C 
ENDBRANCH  13  15
ENDBRANCH   1  13
TORSDOF 3
ENDMDL
MODEL 4
REMARK VINA RESULT:      -6.3      2.614      6.068
REMARK  Name = 
REMARK  4 active torsions:
REMARK  status: ('A' for Active; 'I' for Inactive)
REMARK    1  A    between atoms: C_2  and  C_3
REMARK    2  A    between atoms: C_3  and  N_4
REMARK    3  A    between atoms: C_8  and  C_9
REMARK    4  A    between atoms: C_11  and  C_12
REMARK                            x       y       z     vdW  Elec       q    Type
REMARK                         _______ _______ _______ _____ _____    ______ ____
ROOT
ATOM      1  N   UNL     1       3.177   4.297  19.544  0.00  0.00    +0.000 N 
ATOM      2  C   UNL     1       2.539   5.464  19.787  0.00  0.00    +0.000 A 
ATOM      3  C   UNL     1       2.792   6.581  19.002  0.00  0.00    +0.000 A 
ATOM      4  C   UNL     1       3.718   6.494  17.968  0.00  0.00    +0.000 A 
ATOM      5  C   UNL     1       4.394   5.294  17.730  0.00  0.00    +0.000 A 
ATOM      6  C   UNL     1       4.089   4.198  18.546  0.00  0.00    +0.000 A 
ENDROOT
BRANCH   5   7
ATOM      7  C   UNL     1       5.358   5.125  16.642  0.00  0.00    +0.000 A 
ATOM      8  N   UNL     1       5.167   4.384  15.567  0.00  0.00    +0.000 NA
ATOM      9  C   UNL     1       6.288   4.511  14.741  0.00  0.00    +0.000 A 
ATOM     10  C   UNL     1       6.335   3.854  13.413  0.00  0.00    +0.000 C 
ATOM     11  N   UNL     1       7.323   5.243  15.156  0.00  0.00    +0.000 NA
ATOM     12  S   UNL     1       6.913   5.864  16.641  0.00  0.00    +0.000 S 
ENDBRANCH   5   7
BRANCH   1  13
ATOM     13  C   UNL     1       2.834   3.104  20.359  0.00  0.00    +0.000 C 
BRANCH  13  15
ATOM     14  C   UNL     1       0.860   2.486  18.927  0.00  0.00    +0.000 C 
ATOM     15  C   UNL     1       1.407   2.706  20.129  0.00  0.00    +0.000 C 
ENDBRANCH  13  15
ENDBRANCH   1  13
TORSDOF 3
ENDMDL
MODEL 5
REMARK VINA RESULT:      -6.3      2.579      5.966
REMARK  Name = 
REMARK  4 active torsions:
REMARK  status: ('A' for Active; 'I' for Inactive)
REMARK    1  A    between atoms: C_2  and  C_3
REMARK    2  A    between atoms: C_3  and  N_4
REMARK    3  A    between atoms: C_8  and  C_9
REMARK    4  A    between atoms: C_11  and  C_12
REMARK                            x       y       z     vdW  Elec       q    Type
REMARK                         _______ _______ _______ _____ _____    ______ ____
ROOT
ATOM      1  N   UNL     1       2.728   5.899  19.776  0.00  0.00    +0.000 N 
ATOM      2  C   UNL     1       2.167   7.096  19.493  0.00  0.00    +0.000 A 
ATOM      3  C   UNL     1       2.588   7.828  18.390  0.00  0.00    +0.000 A 
ATOM      4  C   UNL     1       3.603   7.324  17.584  0.00  0.00    +0.000 A 
ATOM      5  C   UNL     1       4.198   6.097  17.888  0.00  0.00    +0.000 A 
ATOM      6  C   UNL     1       3.725   5.398  19.004  0.00  0.00    +0.000 A 
ENDROOT
BRANCH   5   7
ATOM      7  C   UNL     1       5.249   5.497  17.066  0.00  0.00    +0.000 A 
ATOM      8  N   UNL     1       5.068   4.959  15.874  0.00  0.00    +0.000 NA
ATOM      9  C   UNL     1       6.308   4.537  15.389  0.00  0.00    +0.000 A 
ATOM     10  C   UNL     1       6.439   3.961  14.029  0.00  0.00    +0.000 C 
ATOM     11  N   UNL     1       7.387   4.663  16.162  0.00  0.00    +0.000 NA
ATOM     12  S   UNL     1       6.890   5.382  17.575  0.00  0.00    +0.000 S 
ENDBRANCH   5   7
BRANCH   1  13
ATOM     13  C   UNL     1       2.208   5.111  20.922  0.00  0.00    +0.000 C 
BRANCH  13  15
ATOM     14  C   UNL     1       1.320   2.773  21.199  0.00  0.00    +0.000 C 
ATOM     15  C   UNL     1       1.558   3.849  20.439  0.00  0.00    +0.000 C 
ENDBRANCH  13  15
ENDBRANCH   1  13
TORSDOF 3
ENDMDL
MODEL 6
REMARK VINA RESULT:      -6.3      1.825      5.899
REMARK  Name = 
REMARK  4 active torsions:
REMARK  status: ('A' for Active; 'I' for Inactive)
REMARK    1  A    between atoms: C_2  and  C_3
REMARK    2  A    between atoms: C_3  and  N_4
REMARK    3  A    between atoms: C_8  and  C_9
REMARK    4  A    between atoms: C_11  and  C_12
REMARK                            x       y       z     vdW  Elec       q    Type
REMARK                         _______ _______ _______ _____ _____    ______ ____
ROOT
ATOM      1  N   UNL     1       2.615   4.366  19.249  0.00  0.00    +0.000 N 
ATOM      2  C   UNL     1       2.059   3.412  18.468  0.00  0.00    +0.000 A 
ATOM      3  C   UNL     1       2.621   3.092  17.239  0.00  0.00    +0.000 A 
ATOM      4  C   UNL     1       3.757   3.772  16.810  0.00  0.00    +0.000 A 
ATOM      5  C   UNL     1       4.319   4.773  17.607  0.00  0.00    +0.000 A 
ATOM      6  C   UNL     1       3.717   5.043  18.841  0.00  0.00    +0.000 A 
ENDROOT
BRANCH   5   7
ATOM      7  C   UNL     1       5.529   5.505  17.230  0.00  0.00    +0.000 A 
ATOM      8  N   UNL     1       5.933   6.636  17.776  0.00  0.00    +0.000 NA
ATOM      9  C   UNL     1       7.147   6.999  17.185  0.00  0.00    +0.000 A 
ATOM     10  C   UNL     1       7.894   8.192  17.651  0.00  0.00    +0.000 C 
ATOM     11  N   UNL     1       7.639   6.253  16.195  0.00  0.00    +0.000 NA
ATOM     12  S   UNL     1       6.586   4.988  15.973  0.00  0.00    +0.000 S 
ENDBRANCH   5   7
BRANCH   1  13
ATOM     13  C   UNL     1       2.029   4.635  20.587  0.00  0.00    +0.000 C 
BRANCH  13  15
ATOM     14  C   UNL     1       1.415   2.522  21.808  0.00  0.00    +0.000 C 
ATOM     15  C   UNL     1       2.295   3.489  21.515  0.00  0.00    +0.000 C 
ENDBRANCH  13  15
ENDBRANCH   1  13
TORSDOF 3
ENDMDL
MODEL 7
REMARK VINA RESULT:      -6.2      1.874      5.713
REMARK  Name = 
REMARK  4 active torsions:
REMARK  status: ('A' for Active; 'I' for Inactive)
REMARK    1  A    between atoms: C_2  and  C_3
REMARK    2  A    between atoms: C_3  and  N_4
REMARK    3  A    between atoms: C_8  and  C_9
REMARK    4  A    between atoms: C_11  and  C_12
REMARK                            x       y       z     vdW  Elec       q    Type
REMARK                         _______ _______ _______ _____ _____    ______ ____
ROOT
ATOM      1  N   UNL     1       3.693   2.782  19.434  0.00  0.00    +0.000 N 
ATOM      2  C   UNL     1       2.719   2.349  18.601  0.00  0.00    +0.000 A 
ATOM      3  C   UNL     1       2.684   2.773  17.279  0.00  0.00    +0.000 A 
ATOM      4  C   UNL     1       3.653   3.658  16.819  0.00  0.00    +0.000 A 
ATOM      5  C   UNL     1       4.647   4.122  17.685  0.00  0.00    +0.000 A 
ATOM      6  C   UNL     1       4.640   3.652  19.003  0.00  0.00    +0.000 A 
ENDROOT
BRANCH   5   7
ATOM      7  C   UNL     1       5.713   5.030  17.259  0.00  0.00    +0.000 A 
ATOM      8  N   UNL     1       6.050   6.147  17.874  0.00  0.00    +0.000 NA
ATOM      9  C   UNL     1       7.136   6.711  17.198  0.00  0.00    +0.000 A 
ATOM     10  C   UNL     1       7.795   7.940  17.704  0.00  0.00    +0.000 C 
ATOM     11  N   UNL     1       7.588   6.125  16.088  0.00  0.00    +0.000 NA
ATOM     12  S   UNL     1       6.665   4.765  15.849  0.00  0.00    +0.000 S 
ENDBRANCH   5   7
BRANCH   1  13
ATOM     13  C   UNL     1       3.741   2.257  20.822  0.00  0.00    +0.000 C 
BRANCH  13  15
ATOM     14  C   UNL     1       2.021   3.942  21.551  0.00  0.00    +0.000 C 
ATOM     15  C   UNL     1       2.538   2.708  21.595  0.00  0.00    +0.000 C 
ENDBRANCH  13  15
ENDBRANCH   1  13
TORSDOF 3
ENDMDL
MODEL 8
REMARK VINA RESULT:      -6.2      1.654      3.101
REMARK  Name = 
REMARK  4 active torsions:
REMARK  status: ('A' for Active; 'I' for Inactive)
REMARK    1  A    between atoms: C_2  and  C_3
REMARK    2  A    between atoms: C_3  and  N_4
REMARK    3  A    between atoms: C_8  and  C_9
REMARK    4  A    between atoms: C_11  and  C_12
REMARK                            x       y       z     vdW  Elec       q    Type
REMARK                         _______ _______ _______ _____ _____    ______ ____
ROOT
ATOM      1  N   UNL     1       5.695   4.920  16.012  0.00  0.00    +0.000 N 
ATOM      2  C   UNL     1       6.794   5.332  16.685  0.00  0.00    +0.000 A 
ATOM      3  C   UNL     1       6.900   5.124  18.054  0.00  0.00    +0.000 A 
ATOM      4  C   UNL     1       5.859   4.499  18.732  0.00  0.00    +0.000 A 
ATOM      5  C   UNL     1       4.714   4.093  18.041  0.00  0.00    +0.000 A 
ATOM      6  C   UNL     1       4.668   4.317  16.661  0.00  0.00    +0.000 A 
ENDROOT
BRANCH   5   7
ATOM      7  C   UNL     1       3.597   3.403  18.688  0.00  0.00    +0.000 A 
ATOM      8  N   UNL     1       3.272   3.513  19.962  0.00  0.00    +0.000 NA
ATOM      9  C   UNL     1       2.128   2.744  20.191  0.00  0.00    +0.000 A 
ATOM     10  C   UNL     1       1.472   2.731  21.521  0.00  0.00    +0.000 C 
ATOM     11  N   UNL     1       1.619   2.020  19.194  0.00  0.00    +0.000 NA
ATOM     12  S   UNL     1       2.560   2.309  17.856  0.00  0.00    +0.000 S 
ENDBRANCH   5   7
BRANCH   1  13
ATOM     13  C   UNL     1       5.643   5.096  14.538  0.00  0.00    +0.000 C 
BRANCH  13  15
ATOM     14  C   UNL     1       5.841   3.468  12.630  0.00  0.00    +0.000 C 
ATOM     15  C   UNL     1       6.206   3.891  13.847  0.00  0.00    +0.000 C 
ENDBRANCH  13  15
ENDBRANCH   1  13
TORSDOF 3
ENDMDL
MODEL 9
REMARK VINA RESULT:      -6.1      1.644      2.921
REMARK  Name = 
REMARK  4 active torsions:
REMARK  status: ('A' for Active; 'I' for Inactive)
REMARK    1  A    between atoms: C_2  and  C_3
REMARK    2  A    between atoms: C_3  and  N_4
REMARK    3  A    between atoms: C_8  and  C_9
REMARK    4  A    between atoms: C_11  and  C_12
REMARK                            x       y       z     vdW  Elec       q    Type
REMARK                         _______ _______ _______ _____ _____    ______ ____
ROOT
ATOM      1  N   UNL     1       6.139   4.269  16.653  0.00  0.00    +0.000 N 
ATOM      2  C   UNL     1       7.269   4.833  17.138  0.00  0.00    +0.000 A 
ATOM      3  C   UNL     1       7.300   5.349  18.427  0.00  0.00    +0.000 A 
ATOM      4  C   UNL     1       6.154   5.294  19.213  0.00  0.00    +0.000 A 
ATOM      5  C   UNL     1       4.980   4.731  18.704  0.00  0.00    +0.000 A 
ATOM      6  C   UNL     1       5.011   4.214  17.403  0.00  0.00    +0.000 A 
ENDROOT
BRANCH   5   7
ATOM      7  C   UNL     1       3.749   4.613  19.487  0.00  0.00    +0.000 A 
ATOM      8  N   UNL     1       3.336   3.516  20.092  0.00  0.00    +0.000 NA
ATOM      9  C   UNL     1       2.150   3.810  20.772  0.00  0.00    +0.000 A 
ATOM     10  C   UNL     1       1.483   2.790  21.617  0.00  0.00    +0.000 C 
ATOM     11  N   UNL     1       1.620   5.029  20.661  0.00  0.00    +0.000 NA
ATOM     12  S   UNL     1       2.641   5.915  19.696  0.00  0.00    +0.000 S 
ENDBRANCH   5   7
BRANCH   1  13
ATOM     13  C   UNL     1       6.160   3.665  15.296  0.00  0.00    +0.000 C 
BRANCH  13  15
ATOM     14  C   UNL     1       6.904   4.384  13.003  0.00  0.00    +0.000 C 
ATOM     15  C   UNL     1       6.637   4.663  14.285  0.00  0.00    +0.000 C 
ENDBRANCH  13  15
ENDBRANCH   1  13
TORSDOF 3
ENDMDL
