MODEL 1
REMARK VINA RESULT:      -7.8      0.000      0.000
REMARK  Name = 
REMARK  5 active torsions:
REMARK  status: ('A' for Active; 'I' for Inactive)
REMARK    1  A    between atoms: N_2  and  C_4
REMARK    2  A    between atoms: C_9  and  O_10
REMARK    3  A    between atoms: C_11  and  C_12
REMARK    4  A    between atoms: C_13  and  O_14
REMARK    5  A    between atoms: C_13  and  C_15
REMARK                            x       y       z     vdW  Elec       q    Type
REMARK                         _______ _______ _______ _____ _____    ______ ____
ROOT
ATOM      1  C   UNL     1       5.625   4.903  16.613  0.00  0.00    +0.000 A 
ATOM      2  C   UNL     1       5.111   3.606  16.564  0.00  0.00    +0.000 A 
ATOM      3  C   UNL     1       4.033   3.277  17.383  0.00  0.00    +0.000 A 
ATOM      4  C   UNL     1       3.456   4.215  18.229  0.00  0.00    +0.000 A 
ATOM      5  N   UNL     1       2.419   3.833  18.989  0.00  0.00    +0.000 NA
ATOM      6  C   UNL     1       1.880   4.792  19.759  0.00  0.00    +0.000 A 
ATOM      7  C   UNL     1       2.331   6.110  19.798  0.00  0.00    +0.000 A 
ATOM      8  N   UNL     1       3.401   6.495  19.046  0.00  0.00    +0.000 NA
ATOM      9  C   UNL     1       3.964   5.545  18.261  0.00  0.00    +0.000 A 
ATOM     10  C   UNL     1       5.053   5.863  17.459  0.00  0.00    +0.000 A 
ENDROOT
BRANCH   1  12
ATOM     11  O   UNL     1       7.443   6.245  16.093  0.00  0.00    +0.000 OA
ATOM     12  N   UNL     1       6.770   5.259  15.766  0.00  0.00    +0.000 N 
ATOM     13  O   UNL     1       6.992   4.551  14.775  0.00  0.00    +0.000 OA
ENDBRANCH   1  12
BRANCH   6  14
ATOM     14  O   UNL     1       0.824   4.345  20.484  0.00  0.00    +0.000 OA
ATOM     15  H   UNL     1       0.122   4.936  20.154  0.00  0.00    +0.000 HD
ENDBRANCH   6  14
BRANCH   7  16
ATOM     16  C   UNL     1       1.637   7.133  20.598  0.00  0.00    +0.000 C 
ATOM     17  C   UNL     1       1.334   8.395  20.240  0.00  0.00    +0.000 C 
BRANCH  17  18
ATOM     18  C   UNL     1       0.528   9.288  21.109  0.00  0.00    +0.000 A 
ATOM     19  C   UNL     1       0.323   8.987  22.463  0.00  0.00    +0.000 A 
ATOM     20  C   UNL     1      -0.401   9.853  23.293  0.00  0.00    +0.000 A 
ATOM     21  C   UNL     1      -0.927  11.038  22.780  0.00  0.00    +0.000 A 
ATOM     22  C   UNL     1      -0.728  11.358  21.441  0.00  0.00    +0.000 A 
ATOM     23  C   UNL     1      -0.004  10.492  20.616  0.00  0.00    +0.000 A 
ENDBRANCH  17  18
BRANCH  17  24
ATOM     24  O   UNL     1       1.720   8.950  19.038  0.00  0.00    +0.000 OA
ATOM     25  H   UNL     1       2.089   9.835  19.242  0.00  0.00    +0.000 HD
ENDBRANCH  17  24
ENDBRANCH   7  16
TORSDOF 5
ENDMDL
MODEL 2
REMARK VINA RESULT:      -7.8      0.215      1.206
REMARK  Name = 
REMARK  5 active torsions:
REMARK  status: ('A' for Active; 'I' for Inactive)
REMARK    1  A    between atoms: N_2  and  C_4
REMARK    2  A    between atoms: C_9  and  O_10
REMARK    3  A    between atoms: C_11  and  C_12
REMARK    4  A    between atoms: C_13  and  O_14
REMARK    5  A    between atoms: C_13  and  C_15
REMARK                            x       y       z     vdW  Elec       q    Type
REMARK                         _______ _______ _______ _____ _____    ______ ____
ROOT
ATOM      1  C   UNL     1       5.487   4.939  16.387  0.00  0.00    +0.000 A 
ATOM      2  C   UNL     1       4.971   3.642  16.390  0.00  0.00    +0.000 A 
ATOM      3  C   UNL     1       3.944   3.327  17.277  0.00  0.00    +0.000 A 
ATOM      4  C   UNL     1       3.418   4.280  18.140  0.00  0.00    +0.000 A 
ATOM      5  N   UNL     1       2.428   3.911  18.967  0.00  0.00    +0.000 NA
ATOM      6  C   UNL     1       1.936   4.883  19.752  0.00  0.00    +0.000 A 
ATOM      7  C   UNL     1       2.389   6.201  19.743  0.00  0.00    +0.000 A 
ATOM      8  N   UNL     1       3.412   6.572  18.922  0.00  0.00    +0.000 NA
ATOM      9  C   UNL     1       3.927   5.610  18.121  0.00  0.00    +0.000 A 
ATOM     10  C   UNL     1       4.967   5.913  17.251  0.00  0.00    +0.000 A 
ENDROOT
BRANCH   1  12
ATOM     11  O   UNL     1       6.579   4.746  14.351  0.00  0.00    +0.000 OA
ATOM     12  N   UNL     1       6.580   5.280  15.468  0.00  0.00    +0.000 N 
ATOM     13  O   UNL     1       7.437   6.079  15.868  0.00  0.00    +0.000 OA
ENDBRANCH   1  12
BRANCH   6  14
ATOM     14  O   UNL     1       0.924   4.449  20.545  0.00  0.00    +0.000 OA
ATOM     15  H   UNL     1       0.503   5.298  20.772  0.00  0.00    +0.000 HD
ENDBRANCH   6  14
BRANCH   7  16
ATOM     16  C   UNL     1       1.744   7.238  20.566  0.00  0.00    +0.000 C 
ATOM     17  C   UNL     1       1.380   8.479  20.194  0.00  0.00    +0.000 C 
BRANCH  17  18
ATOM     18  C   UNL     1       0.632   9.386  21.100  0.00  0.00    +0.000 A 
ATOM     19  C   UNL     1       0.157  10.626  20.651  0.00  0.00    +0.000 A 
ATOM     20  C   UNL     1      -0.587  11.462  21.493  0.00  0.00    +0.000 A 
ATOM     21  C   UNL     1      -0.872  11.066  22.799  0.00  0.00    +0.000 A 
ATOM     22  C   UNL     1      -0.415   9.836  23.261  0.00  0.00    +0.000 A 
ATOM     23  C   UNL     1       0.326   9.003  22.417  0.00  0.00    +0.000 A 
ENDBRANCH  17  18
BRANCH  17  24
ATOM     24  O   UNL     1       1.644   8.998  18.943  0.00  0.00    +0.000 OA
ATOM     25  H   UNL     1       2.448   8.543  18.614  0.00  0.00    +0.000 HD
ENDBRANCH  17  24
ENDBRANCH   7  16
TORSDOF 5
ENDMDL
MODEL 3
REMARK VINA RESULT:      -7.5      2.180      2.650
REMARK  Name = 
REMARK  5 active torsions:
REMARK  status: ('A' for Active; 'I' for Inactive)
REMARK    1  A    between atoms: N_2  and  C_4
REMARK    2  A    between atoms: C_9  and  O_10
REMARK    3  A    between atoms: C_11  and  C_12
REMARK    4  A    between atoms: C_13  and  O_14
REMARK    5  A    between atoms: C_13  and  C_15
REMARK                            x       y       z     vdW  Elec       q    Type
REMARK                         _______ _______ _______ _____ _____    ______ ____
ROOT
ATOM      1  C   UNL     1       5.941   5.128  16.440  0.00  0.00    +0.000 A 
ATOM      2  C   UNL     1       6.083   4.221  17.492  0.00  0.00    +0.000 A 
ATOM      3  C   UNL     1       5.269   4.359  18.614  0.00  0.00    +0.000 A 
ATOM      4  C   UNL     1       4.315   5.365  18.695  0.00  0.00    +0.000 A 
ATOM      5  N   UNL     1       3.563   5.440  19.803  0.00  0.00    +0.000 NA
ATOM      6  C   UNL     1       2.635   6.410  19.809  0.00  0.00    +0.000 A 
ATOM      7  C   UNL     1       2.429   7.302  18.759  0.00  0.00    +0.000 A 
ATOM      8  N   UNL     1       3.209   7.245  17.643  0.00  0.00    +0.000 NA
ATOM      9  C   UNL     1       4.154   6.276  17.613  0.00  0.00    +0.000 A 
ATOM     10  C   UNL     1       4.983   6.149  16.504  0.00  0.00    +0.000 A 
ENDROOT
BRANCH   1  12
ATOM     11  O   UNL     1       6.535   4.112  14.442  0.00  0.00    +0.000 OA
ATOM     12  N   UNL     1       6.804   5.003  15.257  0.00  0.00    +0.000 N 
ATOM     13  O   UNL     1       7.747   5.797  15.150  0.00  0.00    +0.000 OA
ENDBRANCH   1  12
BRANCH   6  14
ATOM     14  O   UNL     1       1.896   6.415  20.947  0.00  0.00    +0.000 OA
ATOM     15  H   UNL     1       1.534   5.510  20.925  0.00  0.00    +0.000 HD
ENDBRANCH   6  14
BRANCH   7  16
ATOM     16  C   UNL     1       1.333   8.285  18.794  0.00  0.00    +0.000 C 
ATOM     17  C   UNL     1       1.238   9.441  18.111  0.00  0.00    +0.000 C 
BRANCH  17  18
ATOM     18  C   UNL     1       0.019  10.285  18.156  0.00  0.00    +0.000 A 
ATOM     19  C   UNL     1      -1.186   9.849  17.586  0.00  0.00    +0.000 A 
ATOM     20  C   UNL     1      -2.347  10.627  17.669  0.00  0.00    +0.000 A 
ATOM     21  C   UNL     1      -2.322  11.855  18.330  0.00  0.00    +0.000 A 
ATOM     22  C   UNL     1      -1.139  12.303  18.907  0.00  0.00    +0.000 A 
ATOM     23  C   UNL     1       0.019  11.522  18.825  0.00  0.00    +0.000 A 
ENDBRANCH  17  18
BRANCH  17  24
ATOM     24  O   UNL     1       2.244   9.919  17.296  0.00  0.00    +0.000 OA
ATOM     25  H   UNL     1       2.818  10.479  17.860  0.00  0.00    +0.000 HD
ENDBRANCH  17  24
ENDBRANCH   7  16
TORSDOF 5
ENDMDL
MODEL 4
REMARK VINA RESULT:      -7.5      2.011      2.319
REMARK  Name = 
REMARK  5 active torsions:
REMARK  status: ('A' for Active; 'I' for Inactive)
REMARK    1  A    between atoms: N_2  and  C_4
REMARK    2  A    between atoms: C_9  and  O_10
REMARK    3  A    between atoms: C_11  and  C_12
REMARK    4  A    between atoms: C_13  and  O_14
REMARK    5  A    between atoms: C_13  and  C_15
REMARK                            x       y       z     vdW  Elec       q    Type
REMARK                         _______ _______ _______ _____ _____    ______ ____
ROOT
ATOM      1  C   UNL     1       5.590   5.075  16.103  0.00  0.00    +0.000 A 
ATOM      2  C   UNL     1       5.510   3.948  16.922  0.00  0.00    +0.000 A 
ATOM      3  C   UNL     1       4.712   3.999  18.063  0.00  0.00    +0.000 A 
ATOM      4  C   UNL     1       3.987   5.140  18.386  0.00  0.00    +0.000 A 
ATOM      5  N   UNL     1       3.237   5.122  19.497  0.00  0.00    +0.000 NA
ATOM      6  C   UNL     1       2.532   6.239  19.739  0.00  0.00    +0.000 A 
ATOM      7  C   UNL     1       2.545   7.365  18.919  0.00  0.00    +0.000 A 
ATOM      8  N   UNL     1       3.327   7.396  17.802  0.00  0.00    +0.000 NA
ATOM      9  C   UNL     1       4.049   6.282  17.538  0.00  0.00    +0.000 A 
ATOM     10  C   UNL     1       4.864   6.233  16.413  0.00  0.00    +0.000 A 
ENDROOT
BRANCH   1  12
ATOM     11  O   UNL     1       6.041   4.378  13.937  0.00  0.00    +0.000 OA
ATOM     12  N   UNL     1       6.440   5.039  14.905  0.00  0.00    +0.000 N 
ATOM     13  O   UNL     1       7.504   5.670  14.939  0.00  0.00    +0.000 OA
ENDBRANCH   1  12
BRANCH   6  14
ATOM     14  O   UNL     1       1.778   6.145  20.864  0.00  0.00    +0.000 OA
ATOM     15  H   UNL     1       1.828   7.065  21.185  0.00  0.00    +0.000 HD
ENDBRANCH   6  14
BRANCH   7  16
ATOM     16  C   UNL     1       1.678   8.523  19.194  0.00  0.00    +0.000 C 
ATOM     17  C   UNL     1       1.462   9.597  18.413  0.00  0.00    +0.000 C 
BRANCH  17  18
ATOM     18  C   UNL     1       0.470  10.643  18.767  0.00  0.00    +0.000 A 
ATOM     19  C   UNL     1       0.879  11.933  19.134  0.00  0.00    +0.000 A 
ATOM     20  C   UNL     1      -0.059  12.931  19.425  0.00  0.00    +0.000 A 
ATOM     21  C   UNL     1      -1.424  12.655  19.348  0.00  0.00    +0.000 A 
ATOM     22  C   UNL     1      -1.849  11.383  18.979  0.00  0.00    +0.000 A 
ATOM     23  C   UNL     1      -0.910  10.389  18.688  0.00  0.00    +0.000 A 
ENDBRANCH  17  18
BRANCH  17  24
ATOM     24  O   UNL     1       2.117   9.802  17.216  0.00  0.00    +0.000 OA
ATOM     25  H   UNL     1       1.437  10.084  16.568  0.00  0.00    +0.000 HD
ENDBRANCH  17  24
ENDBRANCH   7  16
TORSDOF 5
ENDMDL
MODEL 5
REMARK VINA RESULT:      -7.4      1.685      1.942
REMARK  Name = 
REMARK  5 active torsions:
REMARK  status: ('A' for Active; 'I' for Inactive)
REMARK    1  A    between atoms: N_2  and  C_4
REMARK    2  A    between atoms: C_9  and  O_10
REMARK    3  A    between atoms: C_11  and  C_12
REMARK    4  A    between atoms: C_13  and  O_14
REMARK    5  A    between atoms: C_13  and  C_15
REMARK                            x       y       z     vdW  Elec       q    Type
REMARK                         _______ _______ _______ _____ _____    ______ ____
ROOT
ATOM      1  C   UNL     1       5.532   4.853  15.988  0.00  0.00    +0.000 A 
ATOM      2  C   UNL     1       5.258   3.658  16.655  0.00  0.00    +0.000 A 
ATOM      3  C   UNL     1       4.391   3.678  17.745  0.00  0.00    +0.000 A 
ATOM      4  C   UNL     1       3.787   4.856  18.166  0.00  0.00    +0.000 A 
ATOM      5  N   UNL     1       2.961   4.805  19.221  0.00  0.00    +0.000 NA
ATOM      6  C   UNL     1       2.379   5.968  19.558  0.00  0.00    +0.000 A 
ATOM      7  C   UNL     1       2.587   7.171  18.887  0.00  0.00    +0.000 A 
ATOM      8  N   UNL     1       3.445   7.231  17.830  0.00  0.00    +0.000 NA
ATOM      9  C   UNL     1       4.046   6.072  17.471  0.00  0.00    +0.000 A 
ATOM     10  C   UNL     1       4.929   6.051  16.398  0.00  0.00    +0.000 A 
ENDROOT
BRANCH   1  12
ATOM     11  O   UNL     1       7.475   5.546  14.929  0.00  0.00    +0.000 OA
ATOM     12  N   UNL     1       6.456   4.848  14.846  0.00  0.00    +0.000 N 
ATOM     13  O   UNL     1       6.157   4.147  13.871  0.00  0.00    +0.000 OA
ENDBRANCH   1  12
BRANCH   6  14
ATOM     14  O   UNL     1       1.540   5.841  20.618  0.00  0.00    +0.000 OA
ATOM     15  H   UNL     1       2.141   5.434  21.269  0.00  0.00    +0.000 HD
ENDBRANCH   6  14
BRANCH   7  16
ATOM     16  C   UNL     1       1.847   8.390  19.254  0.00  0.00    +0.000 C 
ATOM     17  C   UNL     1       1.601   9.469  18.488  0.00  0.00    +0.000 C 
BRANCH  17  18
ATOM     18  C   UNL     1       0.741  10.585  18.952  0.00  0.00    +0.000 A 
ATOM     19  C   UNL     1      -0.522  10.342  19.510  0.00  0.00    +0.000 A 
ATOM     20  C   UNL     1      -1.314  11.393  19.988  0.00  0.00    +0.000 A 
ATOM     21  C   UNL     1      -0.852  12.706  19.920  0.00  0.00    +0.000 A 
ATOM     22  C   UNL     1       0.401  12.968  19.376  0.00  0.00    +0.000 A 
ATOM     23  C   UNL     1       1.191  11.916  18.901  0.00  0.00    +0.000 A 
ENDBRANCH  17  18
BRANCH  17  24
ATOM     24  O   UNL     1       2.100   9.614  17.210  0.00  0.00    +0.000 OA
ATOM     25  H   UNL     1       1.599   8.993  16.641  0.00  0.00    +0.000 HD
ENDBRANCH  17  24
ENDBRANCH   7  16
TORSDOF 5
ENDMDL
MODEL 6
REMARK VINA RESULT:      -7.3      1.327      1.984
REMARK  Name = 
REMARK  5 active torsions:
REMARK  status: ('A' for Active; 'I' for Inactive)
REMARK    1  A    between atoms: N_2  and  C_4
REMARK    2  A    between atoms: C_9  and  O_10
REMARK    3  A    between atoms: C_11  and  C_12
REMARK    4  A    between atoms: C_13  and  O_14
REMARK    5  A    between atoms: C_13  and  C_15
REMARK                            x       y       z     vdW  Elec       q    Type
REMARK                         _______ _______ _______ _____ _____    ______ ____
ROOT
ATOM      1  C   UNL     1       5.801   4.796  15.615  0.00  0.00    +0.000 A 
ATOM      2  C   UNL     1       5.420   3.523  16.044  0.00  0.00    +0.000 A 
ATOM      3  C   UNL     1       4.496   3.411  17.082  0.00  0.00    +0.000 A 
ATOM      4  C   UNL     1       3.941   4.535  17.679  0.00  0.00    +0.000 A 
ATOM      5  N   UNL     1       3.056   4.357  18.671  0.00  0.00    +0.000 NA
ATOM      6  C   UNL     1       2.527   5.479  19.185  0.00  0.00    +0.000 A 
ATOM      7  C   UNL     1       2.843   6.764  18.750  0.00  0.00    +0.000 A 
ATOM      8  N   UNL     1       3.761   6.950  17.759  0.00  0.00    +0.000 NA
ATOM      9  C   UNL     1       4.311   5.833  17.225  0.00  0.00    +0.000 A 
ATOM     10  C   UNL     1       5.250   5.941  16.205  0.00  0.00    +0.000 A 
ENDROOT
BRANCH   1  12
ATOM     11  O   UNL     1       6.575   4.301  13.486  0.00  0.00    +0.000 OA
ATOM     12  N   UNL     1       6.785   4.928  14.532  0.00  0.00    +0.000 N 
ATOM     13  O   UNL     1       7.764   5.658  14.734  0.00  0.00    +0.000 OA
ENDBRANCH   1  12
BRANCH   6  14
ATOM     14  O   UNL     1       1.625   5.226  20.167  0.00  0.00    +0.000 OA
ATOM     15  H   UNL     1       2.222   4.956  20.888  0.00  0.00    +0.000 HD
ENDBRANCH   6  14
BRANCH   7  16
ATOM     16  C   UNL     1       2.158   7.947  19.296  0.00  0.00    +0.000 C 
ATOM     17  C   UNL     1       1.756   9.047  18.634  0.00  0.00    +0.000 C 
BRANCH  17  18
ATOM     18  C   UNL     1       0.972  10.121  19.292  0.00  0.00    +0.000 A 
ATOM     19  C   UNL     1       0.896  11.406  18.736  0.00  0.00    +0.000 A 
ATOM     20  C   UNL     1       0.120  12.407  19.335  0.00  0.00    +0.000 A 
ATOM     21  C   UNL     1      -0.597  12.135  20.499  0.00  0.00    +0.000 A 
ATOM     22  C   UNL     1      -0.539  10.865  21.063  0.00  0.00    +0.000 A 
ATOM     23  C   UNL     1       0.235   9.868  20.462  0.00  0.00    +0.000 A 
ENDBRANCH  17  18
BRANCH  17  24
ATOM     24  O   UNL     1       2.011   9.255  17.293  0.00  0.00    +0.000 OA
ATOM     25  H   UNL     1       2.946   9.543  17.227  0.00  0.00    +0.000 HD
ENDBRANCH  17  24
ENDBRANCH   7  16
TORSDOF 5
ENDMDL
MODEL 7
REMARK VINA RESULT:      -7.3      2.467      3.827
REMARK  Name = 
REMARK  5 active torsions:
REMARK  status: ('A' for Active; 'I' for Inactive)
REMARK    1  A    between atoms: N_2  and  C_4
REMARK    2  A    between atoms: C_9  and  O_10
REMARK    3  A    between atoms: C_11  and  C_12
REMARK    4  A    between atoms: C_13  and  O_14
REMARK    5  A    between atoms: C_13  and  C_15
REMARK                            x       y       z     vdW  Elec       q    Type
REMARK                         _______ _______ _______ _____ _____    ______ ____
ROOT
ATOM      1  C   UNL     1       3.624   4.440  19.408  0.00  0.00    +0.000 A 
ATOM      2  C   UNL     1       4.244   4.746  18.195  0.00  0.00    +0.000 A 
ATOM      3  C   UNL     1       3.972   5.971  17.589  0.00  0.00    +0.000 A 
ATOM      4  C   UNL     1       3.114   6.892  18.176  0.00  0.00    +0.000 A 
ATOM      5  N   UNL     1       2.897   8.053  17.541  0.00  0.00    +0.000 NA
ATOM      6  C   UNL     1       2.088   8.918  18.174  0.00  0.00    +0.000 A 
ATOM      7  C   UNL     1       1.492   8.671  19.409  0.00  0.00    +0.000 A 
ATOM      8  N   UNL     1       1.690   7.482  20.045  0.00  0.00    +0.000 NA
ATOM      9  C   UNL     1       2.501   6.591  19.426  0.00  0.00    +0.000 A 
ATOM     10  C   UNL     1       2.757   5.359  20.016  0.00  0.00    +0.000 A 
ENDROOT
BRANCH   1  12
ATOM     11  O   UNL     1       2.959   2.603  20.657  0.00  0.00    +0.000 OA
ATOM     12  N   UNL     1       3.891   3.146  20.050  0.00  0.00    +0.000 N 
ATOM     13  O   UNL     1       5.032   2.679  19.945  0.00  0.00    +0.000 OA
ENDBRANCH   1  12
BRANCH   6  14
ATOM     14  O   UNL     1       1.930  10.079  17.489  0.00  0.00    +0.000 OA
ATOM     15  H   UNL     1       1.100   9.890  17.013  0.00  0.00    +0.000 HD
ENDBRANCH   6  14
BRANCH   7  16
ATOM     16  C   UNL     1       0.687   9.700  20.089  0.00  0.00    +0.000 C 
ATOM     17  C   UNL     1       0.714  10.042  21.391  0.00  0.00    +0.000 C 
BRANCH  17  18
ATOM     18  C   UNL     1      -0.075  11.180  21.922  0.00  0.00    +0.000 A 
ATOM     19  C   UNL     1       0.117  12.483  21.438  0.00  0.00    +0.000 A 
ATOM     20  C   UNL     1      -0.660  13.549  21.909  0.00  0.00    +0.000 A 
ATOM     21  C   UNL     1      -1.646  13.327  22.870  0.00  0.00    +0.000 A 
ATOM     22  C   UNL     1      -1.856  12.042  23.358  0.00  0.00    +0.000 A 
ATOM     23  C   UNL     1      -1.080  10.979  22.884  0.00  0.00    +0.000 A 
ENDBRANCH  17  18
BRANCH  17  24
ATOM     24  O   UNL     1       1.491   9.389  22.325  0.00  0.00    +0.000 OA
ATOM     25  H   UNL     1       2.241   9.985  22.533  0.00  0.00    +0.000 HD
ENDBRANCH  17  24
ENDBRANCH   7  16
TORSDOF 5
ENDMDL
MODEL 8
REMARK VINA RESULT:      -7.3      2.479      3.238
REMARK  Name = 
REMARK  5 active torsions:
REMARK  status: ('A' for Active; 'I' for Inactive)
REMARK    1  A    between atoms: N_2  and  C_4
REMARK    2  A    between atoms: C_9  and  O_10
REMARK    3  A    between atoms: C_11  and  C_12
REMARK    4  A    between atoms: C_13  and  O_14
REMARK    5  A    between atoms: C_13  and  C_15
REMARK                            x       y       z     vdW  Elec       q    Type
REMARK                         _______ _______ _______ _____ _____    ______ ____
ROOT
ATOM      1  C   UNL     1       4.192   3.610  19.049  0.00  0.00    +0.000 A 
ATOM      2  C   UNL     1       4.881   3.975  17.891  0.00  0.00    +0.000 A 
ATOM      3  C   UNL     1       4.642   5.229  17.333  0.00  0.00    +0.000 A 
ATOM      4  C   UNL     1       3.749   6.120  17.913  0.00  0.00    +0.000 A 
ATOM      5  N   UNL     1       3.567   7.312  17.326  0.00  0.00    +0.000 NA
ATOM      6  C   UNL     1       2.719   8.143  17.952  0.00  0.00    +0.000 A 
ATOM      7  C   UNL     1       2.051   7.835  19.135  0.00  0.00    +0.000 A 
ATOM      8  N   UNL     1       2.214   6.615  19.721  0.00  0.00    +0.000 NA
ATOM      9  C   UNL     1       3.063   5.757  19.108  0.00  0.00    +0.000 A 
ATOM     10  C   UNL     1       3.288   4.497  19.649  0.00  0.00    +0.000 A 
ENDROOT
BRANCH   1  12
ATOM     11  O   UNL     1       5.062   2.232  20.699  0.00  0.00    +0.000 OA
ATOM     12  N   UNL     1       4.424   2.285  19.639  0.00  0.00    +0.000 N 
ATOM     13  O   UNL     1       3.968   1.303  19.040  0.00  0.00    +0.000 OA
ENDBRANCH   1  12
BRANCH   6  14
ATOM     14  O   UNL     1       2.599   9.338  17.318  0.00  0.00    +0.000 OA
ATOM     15  H   UNL     1       3.224   9.208  16.581  0.00  0.00    +0.000 HD
ENDBRANCH   6  14
BRANCH   7  16
ATOM     16  C   UNL     1       1.205   8.829  19.817  0.00  0.00    +0.000 C 
ATOM     17  C   UNL     1       1.115   9.069  21.139  0.00  0.00    +0.000 C 
BRANCH  17  18
ATOM     18  C   UNL     1       0.300  10.182  21.683  0.00  0.00    +0.000 A 
ATOM     19  C   UNL     1      -0.629   9.963  22.711  0.00  0.00    +0.000 A 
ATOM     20  C   UNL     1      -1.366  11.022  23.255  0.00  0.00    +0.000 A 
ATOM     21  C   UNL     1      -1.181  12.321  22.782  0.00  0.00    +0.000 A 
ATOM     22  C   UNL     1      -0.260  12.560  21.768  0.00  0.00    +0.000 A 
ATOM     23  C   UNL     1       0.476  11.500  21.228  0.00  0.00    +0.000 A 
ENDBRANCH  17  18
BRANCH  17  24
ATOM     24  O   UNL     1       1.788   8.325  22.086  0.00  0.00    +0.000 OA
ATOM     25  H   UNL     1       1.242   8.348  22.900  0.00  0.00    +0.000 HD
ENDBRANCH  17  24
ENDBRANCH   7  16
TORSDOF 5
ENDMDL
MODEL 9
REMARK VINA RESULT:      -7.2      2.471      3.703
REMARK  Name = 
REMARK  5 active torsions:
REMARK  status: ('A' for Active; 'I' for Inactive)
REMARK    1  A    between atoms: N_2  and  C_4
REMARK    2  A    between atoms: C_9  and  O_10
REMARK    3  A    between atoms: C_11  and  C_12
REMARK    4  A    between atoms: C_13  and  O_14
REMARK    5  A    between atoms: C_13  and  C_15
REMARK                            x       y       z     vdW  Elec       q    Type
REMARK                         _______ _______ _______ _____ _____    ______ ____
ROOT
ATOM      1  C   UNL     1       3.659   4.343  19.508  0.00  0.00    +0.000 A 
ATOM      2  C   UNL     1       4.282   4.607  18.287  0.00  0.00    +0.000 A 
ATOM      3  C   UNL     1       4.021   5.816  17.646  0.00  0.00    +0.000 A 
ATOM      4  C   UNL     1       3.172   6.762  18.205  0.00  0.00    +0.000 A 
ATOM      5  N   UNL     1       2.966   7.906  17.537  0.00  0.00    +0.000 NA
ATOM      6  C   UNL     1       2.165   8.796  18.143  0.00  0.00    +0.000 A 
ATOM      7  C   UNL     1       1.565   8.591  19.384  0.00  0.00    +0.000 A 
ATOM      8  N   UNL     1       1.752   7.419  20.054  0.00  0.00    +0.000 NA
ATOM      9  C   UNL     1       2.555   6.503  19.462  0.00  0.00    +0.000 A 
ATOM     10  C   UNL     1       2.800   5.286  20.088  0.00  0.00    +0.000 A 
ENDROOT
BRANCH   1  12
ATOM     11  O   UNL     1       3.072   2.673  21.007  0.00  0.00    +0.000 OA
ATOM     12  N   UNL     1       3.913   3.065  20.187  0.00  0.00    +0.000 N 
ATOM     13  O   UNL     1       4.953   2.461  19.899  0.00  0.00    +0.000 OA
ENDBRANCH   1  12
BRANCH   6  14
ATOM     14  O   UNL     1       2.018   9.938  17.425  0.00  0.00    +0.000 OA
ATOM     15  H   UNL     1       2.776  10.453  17.758  0.00  0.00    +0.000 HD
ENDBRANCH   6  14
BRANCH   7  16
ATOM     16  C   UNL     1       0.769   9.646  20.034  0.00  0.00    +0.000 C 
ATOM     17  C   UNL     1       0.650   9.898  21.350  0.00  0.00    +0.000 C 
BRANCH  17  18
ATOM     18  C   UNL     1      -0.101  11.070  21.864  0.00  0.00    +0.000 A 
ATOM     19  C   UNL     1      -1.106  10.919  22.829  0.00  0.00    +0.000 A 
ATOM     20  C   UNL     1      -1.784  12.031  23.346  0.00  0.00    +0.000 A 
ATOM     21  C   UNL     1      -1.461  13.314  22.907  0.00  0.00    +0.000 A 
ATOM     22  C   UNL     1      -0.462  13.486  21.954  0.00  0.00    +0.000 A 
ATOM     23  C   UNL     1       0.214  12.374  21.442  0.00  0.00    +0.000 A 
ENDBRANCH  17  18
BRANCH  17  24
ATOM     24  O   UNL     1       1.233   9.112  22.323  0.00  0.00    +0.000 OA
ATOM     25  H   UNL     1       2.201   9.151  22.173  0.00  0.00    +0.000 HD
ENDBRANCH  17  24
ENDBRANCH   7  16
TORSDOF 5
ENDMDL
