MODEL 1
REMARK VINA RESULT:      -7.3      0.000      0.000
REMARK  Name = 
REMARK  8 active torsions:
REMARK  status: ('A' for Active; 'I' for Inactive)
REMARK    1  A    between atoms: C_1  and  O_2
REMARK    2  A    between atoms: O_2  and  C_3
REMARK    3  A    between atoms: C_9  and  C_10
REMARK    4  A    between atoms: C_10  and  C_11
REMARK    5  A    between atoms: C_11  and  C_12
REMARK    6  A    between atoms: C_12  and  O_14
REMARK    7  A    between atoms: C_15  and  C_16
REMARK    8  A    between atoms: C_18  and  C_20
REMARK                            x       y       z     vdW  Elec       q    Type
REMARK                         _______ _______ _______ _____ _____    ______ ____
ROOT
ATOM      1  C   UNL     1       2.551   3.648  20.810  0.00  0.00    +0.000 A 
ATOM      2  C   UNL     1       1.550   4.607  20.866  0.00  0.00    +0.000 A 
ATOM      3  C   UNL     1       1.583   5.727  20.031  0.00  0.00    +0.000 A 
ATOM      4  C   UNL     1       2.681   5.919  19.169  0.00  0.00    +0.000 A 
ATOM      5  C   UNL     1       3.663   4.934  19.043  0.00  0.00    +0.000 A 
ATOM      6  C   UNL     1       3.590   3.794  19.880  0.00  0.00    +0.000 A 
ATOM      7  C   UNL     1       4.539   5.325  17.983  0.00  0.00    +0.000 A 
ATOM      8  C   UNL     1       4.102   6.564  17.529  0.00  0.00    +0.000 A 
ATOM      9  C   UNL     1       4.658   7.424  16.441  0.00  0.00    +0.000 C 
ATOM     10  N   UNL     1       3.015   6.976  18.313  0.00  0.00    +0.000 N 
ATOM     11  C   UNL     1       2.368   8.245  18.243  0.00  0.00    +0.000 C 
ATOM     12  O   UNL     1       2.480   8.899  17.207  0.00  0.00    +0.000 OA
ENDROOT
BRANCH  11  13
ATOM     13  C   UNL     1       1.573   8.863  19.334  0.00  0.00    +0.000 A 
ATOM     14  C   UNL     1       1.841   8.580  20.680  0.00  0.00    +0.000 A 
ATOM     15  C   UNL     1       1.008   9.091  21.678  0.00  0.00    +0.000 A 
ATOM     16  C   UNL     1      -0.053   9.928  21.334  0.00  0.00    +0.000 A 
ATOM     17 CL   UNL     1      -1.106  10.514  22.560  0.00  0.00    +0.000 Cl
ATOM     18  C   UNL     1      -0.272  10.284  20.003  0.00  0.00    +0.000 A 
ATOM     19  C   UNL     1       0.543   9.753  19.000  0.00  0.00    +0.000 A 
ENDBRANCH  11  13
BRANCH   1  21
ATOM     20  C   UNL     1       1.393   2.075  22.164  0.00  0.00    +0.000 C 
ATOM     21  O   UNL     1       2.615   2.521  21.582  0.00  0.00    +0.000 OA
ENDBRANCH   1  21
BRANCH   7  22
ATOM     22  C   UNL     1       5.672   4.498  17.432  0.00  0.00    +0.000 C 
BRANCH  22  23
ATOM     23  C   UNL     1       5.370   3.869  16.076  0.00  0.00    +0.000 C 
BRANCH  23  24
ATOM     24  C   UNL     1       6.485   4.133  15.091  0.00  0.00    +0.000 C 
ATOM     25  O   UNL     1       7.445   4.860  15.287  0.00  0.00    +0.000 OA
BRANCH  24  26
ATOM     26  O   UNL     1       6.314   3.462  13.930  0.00  0.00    +0.000 OA
ATOM     27  H   UNL     1       7.126   3.042  13.590  0.00  0.00    +0.000 HD
ENDBRANCH  24  26
ENDBRANCH  23  24
ENDBRANCH  22  23
ENDBRANCH   7  22
TORSDOF 6
ENDMDL
MODEL 2
REMARK VINA RESULT:      -7.3      8.326     10.613
REMARK  Name = 
REMARK  8 active torsions:
REMARK  status: ('A' for Active; 'I' for Inactive)
REMARK    1  A    between atoms: C_1  and  O_2
REMARK    2  A    between atoms: O_2  and  C_3
REMARK    3  A    between atoms: C_9  and  C_10
REMARK    4  A    between atoms: C_10  and  C_11
REMARK    5  A    between atoms: C_11  and  C_12
REMARK    6  A    between atoms: C_12  and  O_14
REMARK    7  A    between atoms: C_15  and  C_16
REMARK    8  A    between atoms: C_18  and  C_20
REMARK                            x       y       z     vdW  Elec       q    Type
REMARK                         _______ _______ _______ _____ _____    ______ ____
ROOT
ATOM      1  C   UNL     1      -3.744  10.985  16.427  0.00  0.00    +0.000 A 
ATOM      2  C   UNL     1      -2.464  11.116  16.944  0.00  0.00    +0.000 A 
ATOM      3  C   UNL     1      -2.262  11.571  18.250  0.00  0.00    +0.000 A 
ATOM      4  C   UNL     1      -3.369  11.965  19.027  0.00  0.00    +0.000 A 
ATOM      5  C   UNL     1      -4.669  11.776  18.555  0.00  0.00    +0.000 A 
ATOM      6  C   UNL     1      -4.847  11.286  17.239  0.00  0.00    +0.000 A 
ATOM      7  C   UNL     1      -5.570  12.101  19.617  0.00  0.00    +0.000 A 
ATOM      8  C   UNL     1      -4.797  12.534  20.688  0.00  0.00    +0.000 A 
ATOM      9  C   UNL     1      -5.230  12.996  22.042  0.00  0.00    +0.000 C 
ATOM     10  N   UNL     1      -3.449  12.539  20.302  0.00  0.00    +0.000 N 
ATOM     11  C   UNL     1      -2.361  13.036  21.077  0.00  0.00    +0.000 C 
ATOM     12  O   UNL     1      -2.505  13.122  22.296  0.00  0.00    +0.000 OA
ENDROOT
BRANCH  11  13
ATOM     13  C   UNL     1      -1.053  13.482  20.532  0.00  0.00    +0.000 A 
ATOM     14  C   UNL     1      -0.932  14.685  19.826  0.00  0.00    +0.000 A 
ATOM     15  C   UNL     1       0.286  15.024  19.233  0.00  0.00    +0.000 A 
ATOM     16  C   UNL     1       1.393  14.190  19.395  0.00  0.00    +0.000 A 
ATOM     17 CL   UNL     1       2.876  14.585  18.621  0.00  0.00    +0.000 Cl
ATOM     18  C   UNL     1       1.300  13.035  20.170  0.00  0.00    +0.000 A 
ATOM     19  C   UNL     1       0.076  12.679  20.742  0.00  0.00    +0.000 A 
ENDBRANCH  11  13
BRANCH   1  21
ATOM     20  C   UNL     1      -2.983   9.998  14.403  0.00  0.00    +0.000 C 
ATOM     21  O   UNL     1      -4.051  10.554  15.165  0.00  0.00    +0.000 OA
ENDBRANCH   1  21
BRANCH   7  22
ATOM     22  C   UNL     1      -7.067  11.929  19.580  0.00  0.00    +0.000 C 
BRANCH  22  23
ATOM     23  C   UNL     1      -7.602  10.987  20.654  0.00  0.00    +0.000 C 
BRANCH  23  24
ATOM     24  C   UNL     1      -7.472   9.544  20.227  0.00  0.00    +0.000 C 
ATOM     25  O   UNL     1      -7.343   8.592  20.979  0.00  0.00    +0.000 OA
BRANCH  24  26
ATOM     26  O   UNL     1      -7.515   9.400  18.884  0.00  0.00    +0.000 OA
ATOM     27  H   UNL     1      -8.354   9.691  18.479  0.00  0.00    +0.000 HD
ENDBRANCH  24  26
ENDBRANCH  23  24
ENDBRANCH  22  23
ENDBRANCH   7  22
TORSDOF 6
ENDMDL
MODEL 3
REMARK VINA RESULT:      -7.2      2.103      4.580
REMARK  Name = 
REMARK  8 active torsions:
REMARK  status: ('A' for Active; 'I' for Inactive)
REMARK    1  A    between atoms: C_1  and  O_2
REMARK    2  A    between atoms: O_2  and  C_3
REMARK    3  A    between atoms: C_9  and  C_10
REMARK    4  A    between atoms: C_10  and  C_11
REMARK    5  A    between atoms: C_11  and  C_12
REMARK    6  A    between atoms: C_12  and  O_14
REMARK    7  A    between atoms: C_15  and  C_16
REMARK    8  A    between atoms: C_18  and  C_20
REMARK                            x       y       z     vdW  Elec       q    Type
REMARK                         _______ _______ _______ _____ _____    ______ ____
ROOT
ATOM      1  C   UNL     1       5.095   5.735  16.067  0.00  0.00    +0.000 A 
ATOM      2  C   UNL     1       4.939   6.940  16.736  0.00  0.00    +0.000 A 
ATOM      3  C   UNL     1       4.048   7.055  17.807  0.00  0.00    +0.000 A 
ATOM      4  C   UNL     1       3.249   5.951  18.167  0.00  0.00    +0.000 A 
ATOM      5  C   UNL     1       3.439   4.710  17.556  0.00  0.00    +0.000 A 
ATOM      6  C   UNL     1       4.370   4.614  16.493  0.00  0.00    +0.000 A 
ATOM      7  C   UNL     1       2.621   3.758  18.240  0.00  0.00    +0.000 A 
ATOM      8  C   UNL     1       1.912   4.454  19.212  0.00  0.00    +0.000 A 
ATOM      9  C   UNL     1       0.915   3.946  20.204  0.00  0.00    +0.000 C 
ATOM     10  N   UNL     1       2.225   5.817  19.114  0.00  0.00    +0.000 N 
ATOM     11  C   UNL     1       1.611   6.871  19.851  0.00  0.00    +0.000 C 
ATOM     12  O   UNL     1       1.047   6.590  20.908  0.00  0.00    +0.000 OA
ENDROOT
BRANCH  11  13
ATOM     13  C   UNL     1       1.578   8.298  19.442  0.00  0.00    +0.000 A 
ATOM     14  C   UNL     1       1.893   8.686  18.133  0.00  0.00    +0.000 A 
ATOM     15  C   UNL     1       1.958  10.043  17.806  0.00  0.00    +0.000 A 
ATOM     16  C   UNL     1       1.652  11.004  18.770  0.00  0.00    +0.000 A 
ATOM     17 CL   UNL     1       1.783  12.673  18.378  0.00  0.00    +0.000 Cl
ATOM     18  C   UNL     1       1.254  10.621  20.050  0.00  0.00    +0.000 A 
ATOM     19  C   UNL     1       1.214   9.266  20.388  0.00  0.00    +0.000 A 
ENDBRANCH  11  13
BRANCH   1  21
ATOM     20  C   UNL     1       5.857   4.240  14.384  0.00  0.00    +0.000 C 
ATOM     21  O   UNL     1       5.934   5.518  15.009  0.00  0.00    +0.000 OA
ENDBRANCH   1  21
BRANCH   7  22
ATOM     22  C   UNL     1       2.603   2.273  17.984  0.00  0.00    +0.000 C 
BRANCH  22  23
ATOM     23  C   UNL     1       3.824   1.542  18.533  0.00  0.00    +0.000 C 
BRANCH  23  24
ATOM     24  C   UNL     1       4.343   2.210  19.785  0.00  0.00    +0.000 C 
ATOM     25  O   UNL     1       3.864   2.094  20.901  0.00  0.00    +0.000 OA
BRANCH  24  26
ATOM     26  O   UNL     1       5.430   2.977  19.543  0.00  0.00    +0.000 OA
ATOM     27  H   UNL     1       6.235   2.684  20.009  0.00  0.00    +0.000 HD
ENDBRANCH  24  26
ENDBRANCH  23  24
ENDBRANCH  22  23
ENDBRANCH   7  22
TORSDOF 6
ENDMDL
MODEL 4
REMARK VINA RESULT:      -7.2      1.060      1.472
REMARK  Name = 
REMARK  8 active torsions:
REMARK  status: ('A' for Active; 'I' for Inactive)
REMARK    1  A    between atoms: C_1  and  O_2
REMARK    2  A    between atoms: O_2  and  C_3
REMARK    3  A    between atoms: C_9  and  C_10
REMARK    4  A    between atoms: C_10  and  C_11
REMARK    5  A    between atoms: C_11  and  C_12
REMARK    6  A    between atoms: C_12  and  O_14
REMARK    7  A    between atoms: C_15  and  C_16
REMARK    8  A    between atoms: C_18  and  C_20
REMARK                            x       y       z     vdW  Elec       q    Type
REMARK                         _______ _______ _______ _____ _____    ______ ____
ROOT
ATOM      1  C   UNL     1       2.457   3.601  20.717  0.00  0.00    +0.000 A 
ATOM      2  C   UNL     1       1.469   4.562  20.870  0.00  0.00    +0.000 A 
ATOM      3  C   UNL     1       1.467   5.719  20.088  0.00  0.00    +0.000 A 
ATOM      4  C   UNL     1       2.520   5.945  19.178  0.00  0.00    +0.000 A 
ATOM      5  C   UNL     1       3.485   4.961  18.955  0.00  0.00    +0.000 A 
ATOM      6  C   UNL     1       3.447   3.784  19.742  0.00  0.00    +0.000 A 
ATOM      7  C   UNL     1       4.308   5.396  17.870  0.00  0.00    +0.000 A 
ATOM      8  C   UNL     1       3.858   6.658  17.498  0.00  0.00    +0.000 A 
ATOM      9  C   UNL     1       4.364   7.565  16.423  0.00  0.00    +0.000 C 
ATOM     10  N   UNL     1       2.817   7.039  18.357  0.00  0.00    +0.000 N 
ATOM     11  C   UNL     1       2.179   8.314  18.380  0.00  0.00    +0.000 C 
ATOM     12  O   UNL     1       2.242   9.015  17.371  0.00  0.00    +0.000 OA
ENDROOT
BRANCH  11  13
ATOM     13  C   UNL     1       1.447   8.885  19.540  0.00  0.00    +0.000 A 
ATOM     14  C   UNL     1       1.817   8.578  20.855  0.00  0.00    +0.000 A 
ATOM     15  C   UNL     1       1.044   9.043  21.922  0.00  0.00    +0.000 A 
ATOM     16  C   UNL     1      -0.060   9.859  21.674  0.00  0.00    +0.000 A 
ATOM     17 CL   UNL     1      -1.038  10.388  22.985  0.00  0.00    +0.000 Cl
ATOM     18  C   UNL     1      -0.381  10.240  20.372  0.00  0.00    +0.000 A 
ATOM     19  C   UNL     1       0.374   9.754  19.301  0.00  0.00    +0.000 A 
ENDBRANCH  11  13
BRANCH   1  21
ATOM     20  C   UNL     1       1.425   2.084  22.229  0.00  0.00    +0.000 C 
ATOM     21  O   UNL     1       2.552   2.438  21.432  0.00  0.00    +0.000 OA
ENDBRANCH   1  21
BRANCH   7  22
ATOM     22  C   UNL     1       5.403   4.589  17.222  0.00  0.00    +0.000 C 
BRANCH  22  23
ATOM     23  C   UNL     1       6.751   4.708  17.926  0.00  0.00    +0.000 C 
BRANCH  23  24
ATOM     24  C   UNL     1       7.457   5.986  17.540  0.00  0.00    +0.000 C 
ATOM     25  O   UNL     1       7.628   6.384  16.399  0.00  0.00    +0.000 OA
BRANCH  24  26
ATOM     26  O   UNL     1       7.897   6.675  18.617  0.00  0.00    +0.000 OA
ATOM     27  H   UNL     1       8.821   6.479  18.864  0.00  0.00    +0.000 HD
ENDBRANCH  24  26
ENDBRANCH  23  24
ENDBRANCH  22  23
ENDBRANCH   7  22
TORSDOF 6
ENDMDL
MODEL 5
REMARK VINA RESULT:      -7.2      0.672      1.214
REMARK  Name = 
REMARK  8 active torsions:
REMARK  status: ('A' for Active; 'I' for Inactive)
REMARK    1  A    between atoms: C_1  and  O_2
REMARK    2  A    between atoms: O_2  and  C_3
REMARK    3  A    between atoms: C_9  and  C_10
REMARK    4  A    between atoms: C_10  and  C_11
REMARK    5  A    between atoms: C_11  and  C_12
REMARK    6  A    between atoms: C_12  and  O_14
REMARK    7  A    between atoms: C_15  and  C_16
REMARK    8  A    between atoms: C_18  and  C_20
REMARK                            x       y       z     vdW  Elec       q    Type
REMARK                         _______ _______ _______ _____ _____    ______ ____
ROOT
ATOM      1  C   UNL     1       3.001   3.382  20.592  0.00  0.00    +0.000 A 
ATOM      2  C   UNL     1       1.925   4.250  20.706  0.00  0.00    +0.000 A 
ATOM      3  C   UNL     1       1.846   5.402  19.919  0.00  0.00    +0.000 A 
ATOM      4  C   UNL     1       2.906   5.721  19.047  0.00  0.00    +0.000 A 
ATOM      5  C   UNL     1       3.964   4.829  18.863  0.00  0.00    +0.000 A 
ATOM      6  C   UNL     1       4.005   3.654  19.652  0.00  0.00    +0.000 A 
ATOM      7  C   UNL     1       4.783   5.337  17.806  0.00  0.00    +0.000 A 
ATOM      8  C   UNL     1       4.234   6.552  17.413  0.00  0.00    +0.000 A 
ATOM      9  C   UNL     1       4.694   7.500  16.353  0.00  0.00    +0.000 C 
ATOM     10  N   UNL     1       3.133   6.838  18.232  0.00  0.00    +0.000 N 
ATOM     11  C   UNL     1       2.380   8.049  18.228  0.00  0.00    +0.000 C 
ATOM     12  O   UNL     1       2.415   8.752  17.218  0.00  0.00    +0.000 OA
ENDROOT
BRANCH  11  13
ATOM     13  C   UNL     1       1.558   8.551  19.357  0.00  0.00    +0.000 A 
ATOM     14  C   UNL     1       0.472   9.409  19.141  0.00  0.00    +0.000 A 
ATOM     15  C   UNL     1      -0.215   9.950  20.231  0.00  0.00    +0.000 A 
ATOM     16  C   UNL     1       0.148   9.589  21.528  0.00  0.00    +0.000 A 
ATOM     17 CL   UNL     1      -0.666  10.296  22.867  0.00  0.00    +0.000 Cl
ATOM     18  C   UNL     1       1.171   8.668  21.746  0.00  0.00    +0.000 A 
ATOM     19  C   UNL     1       1.878   8.145  20.660  0.00  0.00    +0.000 A 
ENDBRANCH  11  13
BRANCH   1  21
ATOM     20  C   UNL     1       4.409   1.545  21.132  0.00  0.00    +0.000 C 
ATOM     21  O   UNL     1       3.175   2.234  21.315  0.00  0.00    +0.000 OA
ENDBRANCH   1  21
BRANCH   7  22
ATOM     22  C   UNL     1       5.970   4.632  17.201  0.00  0.00    +0.000 C 
BRANCH  22  23
ATOM     23  C   UNL     1       5.669   3.961  15.865  0.00  0.00    +0.000 C 
BRANCH  23  24
ATOM     24  C   UNL     1       6.599   4.459  14.783  0.00  0.00    +0.000 C 
ATOM     25  O   UNL     1       7.504   5.261  14.941  0.00  0.00    +0.000 OA
BRANCH  24  26
ATOM     26  O   UNL     1       6.325   3.910  13.578  0.00  0.00    +0.000 OA
ATOM     27  H   UNL     1       7.043   3.353  13.222  0.00  0.00    +0.000 HD
ENDBRANCH  24  26
ENDBRANCH  23  24
ENDBRANCH  22  23
ENDBRANCH   7  22
TORSDOF 6
ENDMDL
MODEL 6
REMARK VINA RESULT:      -7.2      1.323      1.995
REMARK  Name = 
REMARK  8 active torsions:
REMARK  status: ('A' for Active; 'I' for Inactive)
REMARK    1  A    between atoms: C_1  and  O_2
REMARK    2  A    between atoms: O_2  and  C_3
REMARK    3  A    between atoms: C_9  and  C_10
REMARK    4  A    between atoms: C_10  and  C_11
REMARK    5  A    between atoms: C_11  and  C_12
REMARK    6  A    between atoms: C_12  and  O_14
REMARK    7  A    between atoms: C_15  and  C_16
REMARK    8  A    between atoms: C_18  and  C_20
REMARK                            x       y       z     vdW  Elec       q    Type
REMARK                         _______ _______ _______ _____ _____    ______ ____
ROOT
ATOM      1  C   UNL     1       2.952   3.499  20.749  0.00  0.00    +0.000 A 
ATOM      2  C   UNL     1       1.875   4.360  20.899  0.00  0.00    +0.000 A 
ATOM      3  C   UNL     1       1.753   5.501  20.103  0.00  0.00    +0.000 A 
ATOM      4  C   UNL     1       2.771   5.818  19.181  0.00  0.00    +0.000 A 
ATOM      5  C   UNL     1       3.827   4.932  18.961  0.00  0.00    +0.000 A 
ATOM      6  C   UNL     1       3.912   3.767  19.762  0.00  0.00    +0.000 A 
ATOM      7  C   UNL     1       4.594   5.432  17.863  0.00  0.00    +0.000 A 
ATOM      8  C   UNL     1       4.019   6.638  17.480  0.00  0.00    +0.000 A 
ATOM      9  C   UNL     1       4.423   7.576  16.389  0.00  0.00    +0.000 C 
ATOM     10  N   UNL     1       2.952   6.926  18.344  0.00  0.00    +0.000 N 
ATOM     11  C   UNL     1       2.190   8.131  18.357  0.00  0.00    +0.000 C 
ATOM     12  O   UNL     1       2.176   8.822  17.339  0.00  0.00    +0.000 OA
ENDROOT
BRANCH  11  13
ATOM     13  C   UNL     1       1.415   8.642  19.516  0.00  0.00    +0.000 A 
ATOM     14  C   UNL     1       0.287   9.452  19.336  0.00  0.00    +0.000 A 
ATOM     15  C   UNL     1      -0.358  10.004  20.445  0.00  0.00    +0.000 A 
ATOM     16  C   UNL     1       0.091   9.700  21.731  0.00  0.00    +0.000 A 
ATOM     17 CL   UNL     1      -0.673  10.422  23.091  0.00  0.00    +0.000 Cl
ATOM     18  C   UNL     1       1.159   8.824  21.918  0.00  0.00    +0.000 A 
ATOM     19  C   UNL     1       1.823   8.291  20.811  0.00  0.00    +0.000 A 
ENDBRANCH  11  13
BRANCH   1  21
ATOM     20  C   UNL     1       4.367   1.644  21.201  0.00  0.00    +0.000 C 
ATOM     21  O   UNL     1       3.168   2.362  21.477  0.00  0.00    +0.000 OA
ENDBRANCH   1  21
BRANCH   7  22
ATOM     22  C   UNL     1       5.759   4.729  17.215  0.00  0.00    +0.000 C 
BRANCH  22  23
ATOM     23  C   UNL     1       7.058   4.838  18.007  0.00  0.00    +0.000 C 
BRANCH  23  24
ATOM     24  C   UNL     1       7.668   6.213  17.867  0.00  0.00    +0.000 C 
ATOM     25  O   UNL     1       7.718   6.864  16.836  0.00  0.00    +0.000 OA
BRANCH  24  26
ATOM     26  O   UNL     1       8.171   6.673  19.034  0.00  0.00    +0.000 OA
ATOM     27  H   UNL     1       7.747   6.293  19.827  0.00  0.00    +0.000 HD
ENDBRANCH  24  26
ENDBRANCH  23  24
ENDBRANCH  22  23
ENDBRANCH   7  22
TORSDOF 6
ENDMDL
MODEL 7
REMARK VINA RESULT:      -7.1      0.861      1.138
REMARK  Name = 
REMARK  8 active torsions:
REMARK  status: ('A' for Active; 'I' for Inactive)
REMARK    1  A    between atoms: C_1  and  O_2
REMARK    2  A    between atoms: O_2  and  C_3
REMARK    3  A    between atoms: C_9  and  C_10
REMARK    4  A    between atoms: C_10  and  C_11
REMARK    5  A    between atoms: C_11  and  C_12
REMARK    6  A    between atoms: C_12  and  O_14
REMARK    7  A    between atoms: C_15  and  C_16
REMARK    8  A    between atoms: C_18  and  C_20
REMARK                            x       y       z     vdW  Elec       q    Type
REMARK                         _______ _______ _______ _____ _____    ______ ____
ROOT
ATOM      1  C   UNL     1       3.159   3.186  20.361  0.00  0.00    +0.000 A 
ATOM      2  C   UNL     1       2.112   4.079  20.528  0.00  0.00    +0.000 A 
ATOM      3  C   UNL     1       2.033   5.244  19.760  0.00  0.00    +0.000 A 
ATOM      4  C   UNL     1       3.068   5.548  18.852  0.00  0.00    +0.000 A 
ATOM      5  C   UNL     1       4.094   4.632  18.616  0.00  0.00    +0.000 A 
ATOM      6  C   UNL     1       4.134   3.445  19.388  0.00  0.00    +0.000 A 
ATOM      7  C   UNL     1       4.885   5.133  17.535  0.00  0.00    +0.000 A 
ATOM      8  C   UNL     1       4.354   6.367  17.180  0.00  0.00    +0.000 A 
ATOM      9  C   UNL     1       4.798   7.318  16.116  0.00  0.00    +0.000 C 
ATOM     10  N   UNL     1       3.292   6.670  18.044  0.00  0.00    +0.000 N 
ATOM     11  C   UNL     1       2.572   7.900  18.084  0.00  0.00    +0.000 C 
ATOM     12  O   UNL     1       2.588   8.616  17.084  0.00  0.00    +0.000 OA
ENDROOT
BRANCH  11  13
ATOM     13  C   UNL     1       1.807   8.407  19.251  0.00  0.00    +0.000 A 
ATOM     14  C   UNL     1       2.023   7.900  20.539  0.00  0.00    +0.000 A 
ATOM     15  C   UNL     1       1.213   8.320  21.597  0.00  0.00    +0.000 A 
ATOM     16  C   UNL     1       0.232   9.286  21.378  0.00  0.00    +0.000 A 
ATOM     17 CL   UNL     1      -0.796   9.763  22.671  0.00  0.00    +0.000 Cl
ATOM     18  C   UNL     1       0.071   9.859  20.117  0.00  0.00    +0.000 A 
ATOM     19  C   UNL     1       0.861   9.422  19.050  0.00  0.00    +0.000 A 
ENDBRANCH  11  13
BRANCH   1  21
ATOM     20  C   UNL     1       4.644   1.471  21.071  0.00  0.00    +0.000 C 
ATOM     21  O   UNL     1       3.331   2.024  21.062  0.00  0.00    +0.000 OA
ENDBRANCH   1  21
BRANCH   7  22
ATOM     22  C   UNL     1       6.030   4.407  16.876  0.00  0.00    +0.000 C 
BRANCH  22  23
ATOM     23  C   UNL     1       5.695   3.863  15.491  0.00  0.00    +0.000 C 
BRANCH  23  24
ATOM     24  C   UNL     1       6.636   4.415  14.446  0.00  0.00    +0.000 C 
ATOM     25  O   UNL     1       6.640   4.111  13.265  0.00  0.00    +0.000 OA
BRANCH  24  26
ATOM     26  O   UNL     1       7.505   5.313  14.962  0.00  0.00    +0.000 OA
ATOM     27  H   UNL     1       7.868   5.937  14.306  0.00  0.00    +0.000 HD
ENDBRANCH  24  26
ENDBRANCH  23  24
ENDBRANCH  22  23
ENDBRANCH   7  22
TORSDOF 6
ENDMDL
MODEL 8
REMARK VINA RESULT:      -7.0      1.232      1.746
REMARK  Name = 
REMARK  8 active torsions:
REMARK  status: ('A' for Active; 'I' for Inactive)
REMARK    1  A    between atoms: C_1  and  O_2
REMARK    2  A    between atoms: O_2  and  C_3
REMARK    3  A    between atoms: C_9  and  C_10
REMARK    4  A    between atoms: C_10  and  C_11
REMARK    5  A    between atoms: C_11  and  C_12
REMARK    6  A    between atoms: C_12  and  O_14
REMARK    7  A    between atoms: C_15  and  C_16
REMARK    8  A    between atoms: C_18  and  C_20
REMARK                            x       y       z     vdW  Elec       q    Type
REMARK                         _______ _______ _______ _____ _____    ______ ____
ROOT
ATOM      1  C   UNL     1       2.011   3.332  20.286  0.00  0.00    +0.000 A 
ATOM      2  C   UNL     1       1.078   4.348  20.430  0.00  0.00    +0.000 A 
ATOM      3  C   UNL     1       1.218   5.553  19.737  0.00  0.00    +0.000 A 
ATOM      4  C   UNL     1       2.357   5.765  18.934  0.00  0.00    +0.000 A 
ATOM      5  C   UNL     1       3.272   4.733  18.718  0.00  0.00    +0.000 A 
ATOM      6  C   UNL     1       3.091   3.511  19.410  0.00  0.00    +0.000 A 
ATOM      7  C   UNL     1       4.211   5.182  17.738  0.00  0.00    +0.000 A 
ATOM      8  C   UNL     1       3.877   6.494  17.425  0.00  0.00    +0.000 A 
ATOM      9  C   UNL     1       4.530   7.434  16.463  0.00  0.00    +0.000 C 
ATOM     10  N   UNL     1       2.793   6.889  18.222  0.00  0.00    +0.000 N 
ATOM     11  C   UNL     1       2.238   8.201  18.287  0.00  0.00    +0.000 C 
ATOM     12  O   UNL     1       2.432   8.963  17.341  0.00  0.00    +0.000 OA
ENDROOT
BRANCH  11  13
ATOM     13  C   UNL     1       1.448   8.741  19.422  0.00  0.00    +0.000 A 
ATOM     14  C   UNL     1       0.408   9.656  19.214  0.00  0.00    +0.000 A 
ATOM     15  C   UNL     1      -0.245  10.228  20.308  0.00  0.00    +0.000 A 
ATOM     16  C   UNL     1       0.103   9.843  21.603  0.00  0.00    +0.000 A 
ATOM     17 CL   UNL     1      -0.667  10.587  22.948  0.00  0.00    +0.000 Cl
ATOM     18  C   UNL     1       1.078   8.868  21.813  0.00  0.00    +0.000 A 
ATOM     19  C   UNL     1       1.752   8.314  20.722  0.00  0.00    +0.000 A 
ENDBRANCH  11  13
BRANCH   1  21
ATOM     20  C   UNL     1       1.440   2.108  22.242  0.00  0.00    +0.000 C 
ATOM     21  O   UNL     1       1.970   2.120  20.919  0.00  0.00    +0.000 OA
ENDBRANCH   1  21
BRANCH   7  22
ATOM     22  C   UNL     1       5.304   4.345  17.123  0.00  0.00    +0.000 C 
BRANCH  22  23
ATOM     23  C   UNL     1       6.630   5.084  16.972  0.00  0.00    +0.000 C 
BRANCH  23  24
ATOM     24  C   UNL     1       7.546   4.807  18.141  0.00  0.00    +0.000 C 
ATOM     25  O   UNL     1       7.438   5.293  19.255  0.00  0.00    +0.000 OA
BRANCH  24  26
ATOM     26  O   UNL     1       8.530   3.936  17.826  0.00  0.00    +0.000 OA
ATOM     27  H   UNL     1       8.217   3.031  17.644  0.00  0.00    +0.000 HD
ENDBRANCH  24  26
ENDBRANCH  23  24
ENDBRANCH  22  23
ENDBRANCH   7  22
TORSDOF 6
ENDMDL
MODEL 9
REMARK VINA RESULT:      -7.0      4.798      9.507
REMARK  Name = 
REMARK  8 active torsions:
REMARK  status: ('A' for Active; 'I' for Inactive)
REMARK    1  A    between atoms: C_1  and  O_2
REMARK    2  A    between atoms: O_2  and  C_3
REMARK    3  A    between atoms: C_9  and  C_10
REMARK    4  A    between atoms: C_10  and  C_11
REMARK    5  A    between atoms: C_11  and  C_12
REMARK    6  A    between atoms: C_12  and  O_14
REMARK    7  A    between atoms: C_15  and  C_16
REMARK    8  A    between atoms: C_18  and  C_20
REMARK                            x       y       z     vdW  Elec       q    Type
REMARK                         _______ _______ _______ _____ _____    ______ ____
ROOT
ATOM      1  C   UNL     1      -2.641  10.924  16.700  0.00  0.00    +0.000 A 
ATOM      2  C   UNL     1      -1.887   9.774  16.879  0.00  0.00    +0.000 A 
ATOM      3  C   UNL     1      -1.232   9.526  18.088  0.00  0.00    +0.000 A 
ATOM      4  C   UNL     1      -1.283  10.490  19.115  0.00  0.00    +0.000 A 
ATOM      5  C   UNL     1      -2.093  11.620  18.986  0.00  0.00    +0.000 A 
ATOM      6  C   UNL     1      -2.769  11.832  17.760  0.00  0.00    +0.000 A 
ATOM      7  C   UNL     1      -2.077  12.313  20.237  0.00  0.00    +0.000 A 
ATOM      8  C   UNL     1      -1.215  11.618  21.076  0.00  0.00    +0.000 A 
ATOM      9  C   UNL     1      -0.832  11.908  22.492  0.00  0.00    +0.000 C 
ATOM     10  N   UNL     1      -0.654  10.547  20.365  0.00  0.00    +0.000 N 
ATOM     11  C   UNL     1       0.371   9.676  20.838  0.00  0.00    +0.000 C 
ATOM     12  O   UNL     1       0.533   9.573  22.053  0.00  0.00    +0.000 OA
ENDROOT
BRANCH  11  13
ATOM     13  C   UNL     1       1.283   8.881  19.978  0.00  0.00    +0.000 A 
ATOM     14  C   UNL     1       1.753   9.381  18.757  0.00  0.00    +0.000 A 
ATOM     15  C   UNL     1       2.522   8.569  17.921  0.00  0.00    +0.000 A 
ATOM     16  C   UNL     1       2.868   7.281  18.332  0.00  0.00    +0.000 A 
ATOM     17 CL   UNL     1       3.772   6.267  17.279  0.00  0.00    +0.000 Cl
ATOM     18  C   UNL     1       2.477   6.809  19.585  0.00  0.00    +0.000 A 
ATOM     19  C   UNL     1       1.685   7.610  20.412  0.00  0.00    +0.000 A 
ENDBRANCH  11  13
BRANCH   1  21
ATOM     20  C   UNL     1      -3.416  10.256  14.554  0.00  0.00    +0.000 C 
ATOM     21  O   UNL     1      -3.316  11.262  15.559  0.00  0.00    +0.000 OA
ENDBRANCH   1  21
BRANCH   7  22
ATOM     22  C   UNL     1      -2.905  13.525  20.578  0.00  0.00    +0.000 C 
BRANCH  22  23
ATOM     23  C   UNL     1      -4.372  13.208  20.853  0.00  0.00    +0.000 C 
BRANCH  23  24
ATOM     24  C   UNL     1      -4.619  13.008  22.330  0.00  0.00    +0.000 C 
ATOM     25  O   UNL     1      -3.938  13.471  23.231  0.00  0.00    +0.000 OA
BRANCH  24  26
ATOM     26  O   UNL     1      -5.706  12.242  22.570  0.00  0.00    +0.000 OA
ATOM     27  H   UNL     1      -5.498  11.333  22.853  0.00  0.00    +0.000 HD
ENDBRANCH  24  26
ENDBRANCH  23  24
ENDBRANCH  22  23
ENDBRANCH   7  22
TORSDOF 6
ENDMDL
