MODEL 1
REMARK VINA RESULT:      -7.0      0.000      0.000
REMARK  Name = 
REMARK  8 active torsions:
REMARK  status: ('A' for Active; 'I' for Inactive)
REMARK    1  A    between atoms: C_2  and  C_3
REMARK    2  A    between atoms: C_3  and  O_4
REMARK    3  A    between atoms: O_4  and  C_5
REMARK    4  A    between atoms: C_5  and  C_7
REMARK    5  A    between atoms: C_8  and  C_9
REMARK    6  A    between atoms: N_14  and  C_15
REMARK    7  A    between atoms: C_15  and  C_16
REMARK    8  A    between atoms: C_16  and  N_17
REMARK                            x       y       z     vdW  Elec       q    Type
REMARK                         _______ _______ _______ _____ _____    ______ ____
ROOT
ATOM      1  O   UNL     1       2.223   7.277  18.072  0.00  0.00    +0.000 OA
ATOM      2  C   UNL     1       3.247   6.689  18.406  0.00  0.00    +0.000 C 
ATOM      3  N   UNL     1       3.321   5.894  19.533  0.00  0.00    +0.000 N 
ATOM      4  H   UNL     1       4.194   5.416  19.726  0.00  0.00    +0.000 HD
ENDROOT
BRANCH   2   5
ATOM      5  C   UNL     1       4.521   6.710  17.555  0.00  0.00    +0.000 C 
BRANCH   5   6
ATOM      6  O   UNL     1       5.692   6.287  18.259  0.00  0.00    +0.000 OA
BRANCH   6   7
ATOM      7  C   UNL     1       6.083   5.019  17.968  0.00  0.00    +0.000 C 
ATOM      8  O   UNL     1       5.981   4.044  18.692  0.00  0.00    +0.000 OA
BRANCH   7   9
ATOM      9  C   UNL     1       6.652   5.008  16.610  0.00  0.00    +0.000 C 
ATOM     10  C   UNL     1       5.930   4.519  15.591  0.00  0.00    +0.000 C 
BRANCH  10  11
ATOM     11  C   UNL     1       6.465   4.487  14.275  0.00  0.00    +0.000 A 
ATOM     12  C   UNL     1       6.159   3.626  13.228  0.00  0.00    +0.000 A 
ATOM     13  C   UNL     1       6.963   3.983  12.120  0.00  0.00    +0.000 A 
ATOM     14  C   UNL     1       7.721   5.046  12.534  0.00  0.00    +0.000 A 
ATOM     15  O   UNL     1       7.433   5.359  13.819  0.00  0.00    +0.000 OA
ENDBRANCH  10  11
ENDBRANCH   7   9
ENDBRANCH   6   7
ENDBRANCH   5   6
ENDBRANCH   2   5
BRANCH   3  16
ATOM     16  C   UNL     1       2.222   5.782  20.479  0.00  0.00    +0.000 C 
BRANCH  16  17
ATOM     17  C   UNL     1       1.358   4.533  20.254  0.00  0.00    +0.000 C 
BRANCH  17  18
ATOM     18  N   UNL     1       2.042   3.523  19.455  0.00  0.00    +0.000 N 
ATOM     19  C   UNL     1       1.812   3.392  18.107  0.00  0.00    +0.000 C 
ATOM     20  O   UNL     1       1.043   4.087  17.455  0.00  0.00    +0.000 OA
ATOM     21  C   UNL     1       2.616   2.276  17.493  0.00  0.00    +0.000 C 
ATOM     22  S   UNL     1       3.531   1.517  18.845  0.00  0.00    +0.000 S 
ATOM     23  C   UNL     1       2.872   2.609  20.038  0.00  0.00    +0.000 C 
ATOM     24  O   UNL     1       3.132   2.518  21.226  0.00  0.00    +0.000 OA
ENDBRANCH  17  18
ENDBRANCH  16  17
ENDBRANCH   3  16
TORSDOF 8
ENDMDL
MODEL 2
REMARK VINA RESULT:      -7.0      1.996      3.325
REMARK  Name = 
REMARK  8 active torsions:
REMARK  status: ('A' for Active; 'I' for Inactive)
REMARK    1  A    between atoms: C_2  and  C_3
REMARK    2  A    between atoms: C_3  and  O_4
REMARK    3  A    between atoms: O_4  and  C_5
REMARK    4  A    between atoms: C_5  and  C_7
REMARK    5  A    between atoms: C_8  and  C_9
REMARK    6  A    between atoms: N_14  and  C_15
REMARK    7  A    between atoms: C_15  and  C_16
REMARK    8  A    between atoms: C_16  and  N_17
REMARK                            x       y       z     vdW  Elec       q    Type
REMARK                         _______ _______ _______ _____ _____    ______ ____
ROOT
ATOM      1  O   UNL     1       7.232   5.923  18.720  0.00  0.00    +0.000 OA
ATOM      2  C   UNL     1       6.902   4.940  18.063  0.00  0.00    +0.000 C 
ATOM      3  N   UNL     1       5.873   4.099  18.438  0.00  0.00    +0.000 N 
ATOM      4  H   UNL     1       5.640   3.324  17.827  0.00  0.00    +0.000 HD
ENDROOT
BRANCH   2   5
ATOM      5  C   UNL     1       7.545   4.601  16.714  0.00  0.00    +0.000 C 
BRANCH   5   6
ATOM      6  O   UNL     1       7.389   5.625  15.727  0.00  0.00    +0.000 OA
BRANCH   6   7
ATOM      7  C   UNL     1       6.199   5.584  15.073  0.00  0.00    +0.000 C 
ATOM      8  O   UNL     1       5.315   6.422  15.124  0.00  0.00    +0.000 OA
BRANCH   7   9
ATOM      9  C   UNL     1       6.149   4.350  14.273  0.00  0.00    +0.000 C 
ATOM     10  C   UNL     1       6.483   4.386  12.975  0.00  0.00    +0.000 C 
BRANCH  10  11
ATOM     11  C   UNL     1       6.429   3.208  12.182  0.00  0.00    +0.000 A 
ATOM     12  C   UNL     1       5.330   2.419  11.863  0.00  0.00    +0.000 A 
ATOM     13  C   UNL     1       5.781   1.347  11.056  0.00  0.00    +0.000 A 
ATOM     14  C   UNL     1       7.131   1.530  10.912  0.00  0.00    +0.000 A 
ATOM     15  O   UNL     1       7.531   2.638  11.578  0.00  0.00    +0.000 OA
ENDBRANCH  10  11
ENDBRANCH   7   9
ENDBRANCH   6   7
ENDBRANCH   5   6
ENDBRANCH   2   5
BRANCH   3  16
ATOM     16  C   UNL     1       5.172   4.244  19.704  0.00  0.00    +0.000 C 
BRANCH  16  17
ATOM     17  C   UNL     1       3.833   4.983  19.570  0.00  0.00    +0.000 C 
BRANCH  17  18
ATOM     18  N   UNL     1       2.697   4.070  19.546  0.00  0.00    +0.000 N 
ATOM     19  C   UNL     1       2.058   3.682  20.700  0.00  0.00    +0.000 C 
ATOM     20  O   UNL     1       2.358   4.053  21.827  0.00  0.00    +0.000 OA
ATOM     21  C   UNL     1       0.925   2.726  20.435  0.00  0.00    +0.000 C 
ATOM     22  S   UNL     1       0.920   2.436  18.657  0.00  0.00    +0.000 S 
ATOM     23  C   UNL     1       2.282   3.494  18.380  0.00  0.00    +0.000 C 
ATOM     24  O   UNL     1       2.775   3.653  17.276  0.00  0.00    +0.000 OA
ENDBRANCH  17  18
ENDBRANCH  16  17
ENDBRANCH   3  16
TORSDOF 8
ENDMDL
MODEL 3
REMARK VINA RESULT:      -6.9      4.172      5.545
REMARK  Name = 
REMARK  8 active torsions:
REMARK  status: ('A' for Active; 'I' for Inactive)
REMARK    1  A    between atoms: C_2  and  C_3
REMARK    2  A    between atoms: C_3  and  O_4
REMARK    3  A    between atoms: O_4  and  C_5
REMARK    4  A    between atoms: C_5  and  C_7
REMARK    5  A    between atoms: C_8  and  C_9
REMARK    6  A    between atoms: N_14  and  C_15
REMARK    7  A    between atoms: C_15  and  C_16
REMARK    8  A    between atoms: C_16  and  N_17
REMARK                            x       y       z     vdW  Elec       q    Type
REMARK                         _______ _______ _______ _____ _____    ______ ____
ROOT
ATOM      1  O   UNL     1       5.656   4.779  19.743  0.00  0.00    +0.000 OA
ATOM      2  C   UNL     1       5.713   5.440  18.711  0.00  0.00    +0.000 C 
ATOM      3  N   UNL     1       4.689   6.267  18.292  0.00  0.00    +0.000 N 
ATOM      4  H   UNL     1       4.824   6.805  17.443  0.00  0.00    +0.000 HD
ENDROOT
BRANCH   2   5
ATOM      5  C   UNL     1       6.967   5.480  17.830  0.00  0.00    +0.000 C 
BRANCH   5   6
ATOM      6  O   UNL     1       7.978   6.372  18.306  0.00  0.00    +0.000 OA
BRANCH   6   7
ATOM      7  C   UNL     1       7.861   7.641  17.838  0.00  0.00    +0.000 C 
ATOM      8  O   UNL     1       7.140   8.014  16.928  0.00  0.00    +0.000 OA
BRANCH   7   9
ATOM      9  C   UNL     1       8.751   8.512  18.622  0.00  0.00    +0.000 C 
ATOM     10  C   UNL     1       8.641   9.844  18.516  0.00  0.00    +0.000 C 
BRANCH  10  11
ATOM     11  C   UNL     1       9.500  10.701  19.254  0.00  0.00    +0.000 A 
ATOM     12  C   UNL     1       9.349  11.183  20.550  0.00  0.00    +0.000 A 
ATOM     13  C   UNL     1      10.460  12.011  20.839  0.00  0.00    +0.000 A 
ATOM     14  C   UNL     1      11.241  11.997  19.714  0.00  0.00    +0.000 A 
ATOM     15  O   UNL     1      10.680  11.217  18.760  0.00  0.00    +0.000 OA
ENDBRANCH  10  11
ENDBRANCH   7   9
ENDBRANCH   6   7
ENDBRANCH   5   6
ENDBRANCH   2   5
BRANCH   3  16
ATOM     16  C   UNL     1       3.411   6.332  18.982  0.00  0.00    +0.000 C 
BRANCH  16  17
ATOM     17  C   UNL     1       2.270   5.664  18.200  0.00  0.00    +0.000 C 
BRANCH  17  18
ATOM     18  N   UNL     1       2.233   4.220  18.399  0.00  0.00    +0.000 N 
ATOM     19  C   UNL     1       2.920   3.360  17.577  0.00  0.00    +0.000 C 
ATOM     20  O   UNL     1       3.617   3.700  16.629  0.00  0.00    +0.000 OA
ATOM     21  C   UNL     1       2.724   1.917  17.963  0.00  0.00    +0.000 C 
ATOM     22  S   UNL     1       1.582   1.922  19.355  0.00  0.00    +0.000 S 
ATOM     23  C   UNL     1       1.438   3.663  19.359  0.00  0.00    +0.000 C 
ATOM     24  O   UNL     1       0.700   4.258  20.126  0.00  0.00    +0.000 OA
ENDBRANCH  17  18
ENDBRANCH  16  17
ENDBRANCH   3  16
TORSDOF 8
ENDMDL
MODEL 4
REMARK VINA RESULT:      -6.9      1.863      2.616
REMARK  Name = 
REMARK  8 active torsions:
REMARK  status: ('A' for Active; 'I' for Inactive)
REMARK    1  A    between atoms: C_2  and  C_3
REMARK    2  A    between atoms: C_3  and  O_4
REMARK    3  A    between atoms: O_4  and  C_5
REMARK    4  A    between atoms: C_5  and  C_7
REMARK    5  A    between atoms: C_8  and  C_9
REMARK    6  A    between atoms: N_14  and  C_15
REMARK    7  A    between atoms: C_15  and  C_16
REMARK    8  A    between atoms: C_16  and  N_17
REMARK                            x       y       z     vdW  Elec       q    Type
REMARK                         _______ _______ _______ _____ _____    ______ ____
ROOT
ATOM      1  O   UNL     1       5.432   5.863  19.146  0.00  0.00    +0.000 OA
ATOM      2  C   UNL     1       5.280   6.391  18.048  0.00  0.00    +0.000 C 
ATOM      3  N   UNL     1       4.042   6.747  17.552  0.00  0.00    +0.000 N 
ATOM      4  H   UNL     1       4.001   7.207  16.649  0.00  0.00    +0.000 HD
ENDROOT
BRANCH   2   5
ATOM      5  C   UNL     1       6.463   6.787  17.158  0.00  0.00    +0.000 C 
BRANCH   5   6
ATOM      6  O   UNL     1       6.525   6.063  15.926  0.00  0.00    +0.000 OA
BRANCH   6   7
ATOM      7  C   UNL     1       7.063   4.821  16.043  0.00  0.00    +0.000 C 
ATOM      8  O   UNL     1       7.890   4.463  16.864  0.00  0.00    +0.000 OA
BRANCH   7   9
ATOM      9  C   UNL     1       6.473   3.958  15.006  0.00  0.00    +0.000 C 
ATOM     10  C   UNL     1       6.496   4.350  13.724  0.00  0.00    +0.000 C 
BRANCH  10  11
ATOM     11  C   UNL     1       5.920   3.538  12.710  0.00  0.00    +0.000 A 
ATOM     12  C   UNL     1       6.477   2.457  12.035  0.00  0.00    +0.000 A 
ATOM     13  C   UNL     1       5.519   1.981  11.108  0.00  0.00    +0.000 A 
ATOM     14  C   UNL     1       4.420   2.785  11.259  0.00  0.00    +0.000 A 
ATOM     15  O   UNL     1       4.646   3.718  12.213  0.00  0.00    +0.000 OA
ENDBRANCH  10  11
ENDBRANCH   7   9
ENDBRANCH   6   7
ENDBRANCH   5   6
ENDBRANCH   2   5
BRANCH   3  16
ATOM     16  C   UNL     1       2.804   6.419  18.241  0.00  0.00    +0.000 C 
BRANCH  16  17
ATOM     17  C   UNL     1       2.251   5.038  17.860  0.00  0.00    +0.000 C 
BRANCH  17  18
ATOM     18  N   UNL     1       2.679   3.995  18.785  0.00  0.00    +0.000 N 
ATOM     19  C   UNL     1       2.196   3.927  20.070  0.00  0.00    +0.000 C 
ATOM     20  O   UNL     1       1.380   4.700  20.556  0.00  0.00    +0.000 OA
ATOM     21  C   UNL     1       2.789   2.780  20.846  0.00  0.00    +0.000 C 
ATOM     22  S   UNL     1       3.969   1.986  19.741  0.00  0.00    +0.000 S 
ATOM     23  C   UNL     1       3.648   3.100  18.435  0.00  0.00    +0.000 C 
ATOM     24  O   UNL     1       4.247   3.056  17.373  0.00  0.00    +0.000 OA
ENDBRANCH  17  18
ENDBRANCH  16  17
ENDBRANCH   3  16
TORSDOF 8
ENDMDL
MODEL 5
REMARK VINA RESULT:      -6.9      3.931      5.388
REMARK  Name = 
REMARK  8 active torsions:
REMARK  status: ('A' for Active; 'I' for Inactive)
REMARK    1  A    between atoms: C_2  and  C_3
REMARK    2  A    between atoms: C_3  and  O_4
REMARK    3  A    between atoms: O_4  and  C_5
REMARK    4  A    between atoms: C_5  and  C_7
REMARK    5  A    between atoms: C_8  and  C_9
REMARK    6  A    between atoms: N_14  and  C_15
REMARK    7  A    between atoms: C_15  and  C_16
REMARK    8  A    between atoms: C_16  and  N_17
REMARK                            x       y       z     vdW  Elec       q    Type
REMARK                         _______ _______ _______ _____ _____    ______ ____
ROOT
ATOM      1  O   UNL     1       4.517   6.035  16.702  0.00  0.00    +0.000 OA
ATOM      2  C   UNL     1       4.977   5.142  17.407  0.00  0.00    +0.000 C 
ATOM      3  N   UNL     1       4.356   3.919  17.569  0.00  0.00    +0.000 N 
ATOM      4  H   UNL     1       4.814   3.221  18.144  0.00  0.00    +0.000 HD
ENDROOT
BRANCH   2   5
ATOM      5  C   UNL     1       6.334   5.267  18.109  0.00  0.00    +0.000 C 
BRANCH   5   6
ATOM      6  O   UNL     1       6.690   6.612  18.440  0.00  0.00    +0.000 OA
BRANCH   6   7
ATOM      7  C   UNL     1       7.585   7.173  17.587  0.00  0.00    +0.000 C 
ATOM      8  O   UNL     1       7.685   6.951  16.392  0.00  0.00    +0.000 OA
BRANCH   7   9
ATOM      9  C   UNL     1       8.424   8.115  18.345  0.00  0.00    +0.000 C 
ATOM     10  C   UNL     1       8.375   9.425  18.063  0.00  0.00    +0.000 C 
BRANCH  10  11
ATOM     11  C   UNL     1       9.187  10.348  18.775  0.00  0.00    +0.000 A 
ATOM     12  C   UNL     1      10.165  11.208  18.287  0.00  0.00    +0.000 A 
ATOM     13  C   UNL     1      10.704  11.922  19.383  0.00  0.00    +0.000 A 
ATOM     14  C   UNL     1      10.030  11.475  20.489  0.00  0.00    +0.000 A 
ATOM     15  O   UNL     1       9.121  10.535  20.140  0.00  0.00    +0.000 OA
ENDBRANCH  10  11
ENDBRANCH   7   9
ENDBRANCH   6   7
ENDBRANCH   5   6
ENDBRANCH   2   5
BRANCH   3  16
ATOM     16  C   UNL     1       3.046   3.632  17.007  0.00  0.00    +0.000 C 
BRANCH  16  17
ATOM     17  C   UNL     1       1.907   4.364  17.733  0.00  0.00    +0.000 C 
BRANCH  17  18
ATOM     18  N   UNL     1       1.835   4.013  19.146  0.00  0.00    +0.000 N 
ATOM     19  C   UNL     1       2.441   4.779  20.112  0.00  0.00    +0.000 C 
ATOM     20  O   UNL     1       3.077   5.804  19.899  0.00  0.00    +0.000 OA
ATOM     21  C   UNL     1       2.246   4.218  21.496  0.00  0.00    +0.000 C 
ATOM     22  S   UNL     1       1.316   2.690  21.290  0.00  0.00    +0.000 S 
ATOM     23  C   UNL     1       1.235   2.856  19.553  0.00  0.00    +0.000 C 
ATOM     24  O   UNL     1       0.717   2.015  18.837  0.00  0.00    +0.000 OA
ENDBRANCH  17  18
ENDBRANCH  16  17
ENDBRANCH   3  16
TORSDOF 8
ENDMDL
MODEL 6
REMARK VINA RESULT:      -6.8      3.769      5.091
REMARK  Name = 
REMARK  8 active torsions:
REMARK  status: ('A' for Active; 'I' for Inactive)
REMARK    1  A    between atoms: C_2  and  C_3
REMARK    2  A    between atoms: C_3  and  O_4
REMARK    3  A    between atoms: O_4  and  C_5
REMARK    4  A    between atoms: C_5  and  C_7
REMARK    5  A    between atoms: C_8  and  C_9
REMARK    6  A    between atoms: N_14  and  C_15
REMARK    7  A    between atoms: C_15  and  C_16
REMARK    8  A    between atoms: C_16  and  N_17
REMARK                            x       y       z     vdW  Elec       q    Type
REMARK                         _______ _______ _______ _____ _____    ______ ____
ROOT
ATOM      1  O   UNL     1       3.948   5.912  18.962  0.00  0.00    +0.000 OA
ATOM      2  C   UNL     1       4.684   5.672  18.010  0.00  0.00    +0.000 C 
ATOM      3  N   UNL     1       5.271   4.438  17.809  0.00  0.00    +0.000 N 
ATOM      4  H   UNL     1       5.843   4.308  16.982  0.00  0.00    +0.000 HD
ENDROOT
BRANCH   2   5
ATOM      5  C   UNL     1       4.954   6.695  16.902  0.00  0.00    +0.000 C 
BRANCH   5   6
ATOM      6  O   UNL     1       5.908   7.697  17.262  0.00  0.00    +0.000 OA
BRANCH   6   7
ATOM      7  C   UNL     1       7.201   7.305  17.122  0.00  0.00    +0.000 C 
ATOM      8  O   UNL     1       7.615   6.420  16.392  0.00  0.00    +0.000 OA
BRANCH   7   9
ATOM      9  C   UNL     1       8.038   8.137  18.000  0.00  0.00    +0.000 C 
ATOM     10  C   UNL     1       8.237   9.429  17.700  0.00  0.00    +0.000 C 
BRANCH  10  11
ATOM     11  C   UNL     1       9.053  10.247  18.528  0.00  0.00    +0.000 A 
ATOM     12  C   UNL     1       9.999  11.196  18.158  0.00  0.00    +0.000 A 
ATOM     13  C   UNL     1      10.557  11.739  19.340  0.00  0.00    +0.000 A 
ATOM     14  C   UNL     1       9.927  11.104  20.377  0.00  0.00    +0.000 A 
ATOM     15  O   UNL     1       9.025  10.211  19.907  0.00  0.00    +0.000 OA
ENDBRANCH  10  11
ENDBRANCH   7   9
ENDBRANCH   6   7
ENDBRANCH   5   6
ENDBRANCH   2   5
BRANCH   3  16
ATOM     16  C   UNL     1       5.157   3.356  18.774  0.00  0.00    +0.000 C 
BRANCH  16  17
ATOM     17  C   UNL     1       3.964   2.428  18.501  0.00  0.00    +0.000 C 
BRANCH  17  18
ATOM     18  N   UNL     1       2.830   2.713  19.372  0.00  0.00    +0.000 N 
ATOM     19  C   UNL     1       1.661   3.245  18.884  0.00  0.00    +0.000 C 
ATOM     20  O   UNL     1       1.451   3.520  17.709  0.00  0.00    +0.000 OA
ATOM     21  C   UNL     1       0.636   3.468  19.965  0.00  0.00    +0.000 C 
ATOM     22  S   UNL     1       1.424   2.979  21.509  0.00  0.00    +0.000 S 
ATOM     23  C   UNL     1       2.922   2.544  20.723  0.00  0.00    +0.000 C 
ATOM     24  O   UNL     1       3.900   2.161  21.343  0.00  0.00    +0.000 OA
ENDBRANCH  17  18
ENDBRANCH  16  17
ENDBRANCH   3  16
TORSDOF 8
ENDMDL
MODEL 7
REMARK VINA RESULT:      -6.7      2.499      6.395
REMARK  Name = 
REMARK  8 active torsions:
REMARK  status: ('A' for Active; 'I' for Inactive)
REMARK    1  A    between atoms: C_2  and  C_3
REMARK    2  A    between atoms: C_3  and  O_4
REMARK    3  A    between atoms: O_4  and  C_5
REMARK    4  A    between atoms: C_5  and  C_7
REMARK    5  A    between atoms: C_8  and  C_9
REMARK    6  A    between atoms: N_14  and  C_15
REMARK    7  A    between atoms: C_15  and  C_16
REMARK    8  A    between atoms: C_16  and  N_17
REMARK                            x       y       z     vdW  Elec       q    Type
REMARK                         _______ _______ _______ _____ _____    ______ ____
ROOT
ATOM      1  O   UNL     1       0.884   4.173  17.159  0.00  0.00    +0.000 OA
ATOM      2  C   UNL     1       1.626   3.597  17.949  0.00  0.00    +0.000 C 
ATOM      3  N   UNL     1       3.002   3.617  17.836  0.00  0.00    +0.000 N 
ATOM      4  H   UNL     1       3.548   3.142  18.546  0.00  0.00    +0.000 HD
ENDROOT
BRANCH   2   5
ATOM      5  C   UNL     1       1.098   2.873  19.192  0.00  0.00    +0.000 C 
BRANCH   5   6
ATOM      6  O   UNL     1       2.102   2.610  20.176  0.00  0.00    +0.000 OA
BRANCH   6   7
ATOM      7  C   UNL     1       2.034   3.419  21.265  0.00  0.00    +0.000 C 
ATOM      8  O   UNL     1       2.334   3.123  22.409  0.00  0.00    +0.000 OA
BRANCH   7   9
ATOM      9  C   UNL     1       1.539   4.737  20.835  0.00  0.00    +0.000 C 
ATOM     10  C   UNL     1       2.377   5.784  20.804  0.00  0.00    +0.000 C 
BRANCH  10  11
ATOM     11  C   UNL     1       1.917   7.067  20.404  0.00  0.00    +0.000 A 
ATOM     12  C   UNL     1       1.179   7.996  21.130  0.00  0.00    +0.000 A 
ATOM     13  C   UNL     1       0.954   9.119  20.299  0.00  0.00    +0.000 A 
ATOM     14  C   UNL     1       1.565   8.832  19.107  0.00  0.00    +0.000 A 
ATOM     15  O   UNL     1       2.145   7.610  19.156  0.00  0.00    +0.000 OA
ENDBRANCH  10  11
ENDBRANCH   7   9
ENDBRANCH   6   7
ENDBRANCH   5   6
ENDBRANCH   2   5
BRANCH   3  16
ATOM     16  C   UNL     1       3.680   4.224  16.702  0.00  0.00    +0.000 C 
BRANCH  16  17
ATOM     17  C   UNL     1       5.159   3.825  16.600  0.00  0.00    +0.000 C 
BRANCH  17  18
ATOM     18  N   UNL     1       6.035   4.762  17.294  0.00  0.00    +0.000 N 
ATOM     19  C   UNL     1       6.748   5.722  16.615  0.00  0.00    +0.000 C 
ATOM     20  O   UNL     1       6.719   5.892  15.403  0.00  0.00    +0.000 OA
ATOM     21  C   UNL     1       7.593   6.565  17.533  0.00  0.00    +0.000 C 
ATOM     22  S   UNL     1       7.352   5.898  19.188  0.00  0.00    +0.000 S 
ATOM     23  C   UNL     1       6.249   4.661  18.638  0.00  0.00    +0.000 C 
ATOM     24  O   UNL     1       5.771   3.827  19.389  0.00  0.00    +0.000 OA
ENDBRANCH  17  18
ENDBRANCH  16  17
ENDBRANCH   3  16
TORSDOF 8
ENDMDL
MODEL 8
REMARK VINA RESULT:      -6.7      3.810      5.476
REMARK  Name = 
REMARK  8 active torsions:
REMARK  status: ('A' for Active; 'I' for Inactive)
REMARK    1  A    between atoms: C_2  and  C_3
REMARK    2  A    between atoms: C_3  and  O_4
REMARK    3  A    between atoms: O_4  and  C_5
REMARK    4  A    between atoms: C_5  and  C_7
REMARK    5  A    between atoms: C_8  and  C_9
REMARK    6  A    between atoms: N_14  and  C_15
REMARK    7  A    between atoms: C_15  and  C_16
REMARK    8  A    between atoms: C_16  and  N_17
REMARK                            x       y       z     vdW  Elec       q    Type
REMARK                         _______ _______ _______ _____ _____    ______ ____
ROOT
ATOM      1  O   UNL     1       6.271   3.954  18.661  0.00  0.00    +0.000 OA
ATOM      2  C   UNL     1       5.414   4.488  17.964  0.00  0.00    +0.000 C 
ATOM      3  N   UNL     1       4.366   3.790  17.397  0.00  0.00    +0.000 N 
ATOM      4  H   UNL     1       3.681   4.307  16.858  0.00  0.00    +0.000 HD
ENDROOT
BRANCH   2   5
ATOM      5  C   UNL     1       5.375   6.001  17.727  0.00  0.00    +0.000 C 
BRANCH   5   6
ATOM      6  O   UNL     1       6.451   6.710  18.349  0.00  0.00    +0.000 OA
BRANCH   6   7
ATOM      7  C   UNL     1       7.434   7.087  17.491  0.00  0.00    +0.000 C 
ATOM      8  O   UNL     1       7.573   6.712  16.339  0.00  0.00    +0.000 OA
BRANCH   7   9
ATOM      9  C   UNL     1       8.315   8.042  18.182  0.00  0.00    +0.000 C 
ATOM     10  C   UNL     1       8.232   9.349  17.895  0.00  0.00    +0.000 C 
BRANCH  10  11
ATOM     11  C   UNL     1       9.082  10.286  18.542  0.00  0.00    +0.000 A 
ATOM     12  C   UNL     1       9.314  10.462  19.901  0.00  0.00    +0.000 A 
ATOM     13  C   UNL     1      10.232  11.529  20.053  0.00  0.00    +0.000 A 
ATOM     14  C   UNL     1      10.525  11.954  18.784  0.00  0.00    +0.000 A 
ATOM     15  O   UNL     1       9.846  11.220  17.872  0.00  0.00    +0.000 OA
ENDBRANCH  10  11
ENDBRANCH   7   9
ENDBRANCH   6   7
ENDBRANCH   5   6
ENDBRANCH   2   5
BRANCH   3  16
ATOM     16  C   UNL     1       4.258   2.342  17.485  0.00  0.00    +0.000 C 
BRANCH  16  17
ATOM     17  C   UNL     1       2.992   1.876  18.219  0.00  0.00    +0.000 C 
BRANCH  17  18
ATOM     18  N   UNL     1       2.524   2.855  19.192  0.00  0.00    +0.000 N 
ATOM     19  C   UNL     1       3.049   2.919  20.461  0.00  0.00    +0.000 C 
ATOM     20  O   UNL     1       3.937   2.195  20.891  0.00  0.00    +0.000 OA
ATOM     21  C   UNL     1       2.405   3.995  21.295  0.00  0.00    +0.000 C 
ATOM     22  S   UNL     1       1.129   4.734  20.261  0.00  0.00    +0.000 S 
ATOM     23  C   UNL     1       1.480   3.687  18.907  0.00  0.00    +0.000 C 
ATOM     24  O   UNL     1       0.840   3.720  17.869  0.00  0.00    +0.000 OA
ENDBRANCH  17  18
ENDBRANCH  16  17
ENDBRANCH   3  16
TORSDOF 8
ENDMDL
MODEL 9
REMARK VINA RESULT:      -6.7      2.015      2.937
REMARK  Name = 
REMARK  8 active torsions:
REMARK  status: ('A' for Active; 'I' for Inactive)
REMARK    1  A    between atoms: C_2  and  C_3
REMARK    2  A    between atoms: C_3  and  O_4
REMARK    3  A    between atoms: O_4  and  C_5
REMARK    4  A    between atoms: C_5  and  C_7
REMARK    5  A    between atoms: C_8  and  C_9
REMARK    6  A    between atoms: N_14  and  C_15
REMARK    7  A    between atoms: C_15  and  C_16
REMARK    8  A    between atoms: C_16  and  N_17
REMARK                            x       y       z     vdW  Elec       q    Type
REMARK                         _______ _______ _______ _____ _____    ______ ____
ROOT
ATOM      1  O   UNL     1       7.190   5.369  19.275  0.00  0.00    +0.000 OA
ATOM      2  C   UNL     1       6.611   5.803  18.284  0.00  0.00    +0.000 C 
ATOM      3  N   UNL     1       5.254   6.061  18.262  0.00  0.00    +0.000 N 
ATOM      4  H   UNL     1       4.854   6.447  17.414  0.00  0.00    +0.000 HD
ENDROOT
BRANCH   2   5
ATOM      5  C   UNL     1       7.354   6.183  16.999  0.00  0.00    +0.000 C 
BRANCH   5   6
ATOM      6  O   UNL     1       7.193   5.237  15.938  0.00  0.00    +0.000 OA
BRANCH   6   7
ATOM      7  C   UNL     1       6.082   5.439  15.183  0.00  0.00    +0.000 C 
ATOM      8  O   UNL     1       5.337   6.403  15.232  0.00  0.00    +0.000 OA
BRANCH   7   9
ATOM      9  C   UNL     1       5.922   4.292  14.275  0.00  0.00    +0.000 C 
ATOM     10  C   UNL     1       6.685   4.203  13.176  0.00  0.00    +0.000 C 
BRANCH  10  11
ATOM     11  C   UNL     1       6.537   3.110  12.280  0.00  0.00    +0.000 A 
ATOM     12  C   UNL     1       7.504   2.479  11.505  0.00  0.00    +0.000 A 
ATOM     13  C   UNL     1       6.869   1.451  10.768  0.00  0.00    +0.000 A 
ATOM     14  C   UNL     1       5.548   1.495  11.126  0.00  0.00    +0.000 A 
ATOM     15  O   UNL     1       5.336   2.481  12.029  0.00  0.00    +0.000 OA
ENDBRANCH  10  11
ENDBRANCH   7   9
ENDBRANCH   6   7
ENDBRANCH   5   6
ENDBRANCH   2   5
BRANCH   3  16
ATOM     16  C   UNL     1       4.381   5.730  19.376  0.00  0.00    +0.000 C 
BRANCH  16  17
ATOM     17  C   UNL     1       2.897   5.679  18.985  0.00  0.00    +0.000 C 
BRANCH  17  18
ATOM     18  N   UNL     1       2.406   4.313  18.852  0.00  0.00    +0.000 N 
ATOM     19  C   UNL     1       2.794   3.505  17.809  0.00  0.00    +0.000 C 
ATOM     20  O   UNL     1       3.569   3.830  16.919  0.00  0.00    +0.000 OA
ATOM     21  C   UNL     1       2.151   2.144  17.868  0.00  0.00    +0.000 C 
ATOM     22  S   UNL     1       1.059   2.168  19.300  0.00  0.00    +0.000 S 
ATOM     23  C   UNL     1       1.470   3.815  19.711  0.00  0.00    +0.000 C 
ATOM     24  O   UNL     1       0.950   4.408  20.642  0.00  0.00    +0.000 OA
ENDBRANCH  17  18
ENDBRANCH  16  17
ENDBRANCH   3  16
TORSDOF 8
ENDMDL
