MODEL 1
REMARK VINA RESULT:      -8.9      0.000      0.000
REMARK  Name = 
REMARK  2 active torsions:
REMARK  status: ('A' for Active; 'I' for Inactive)
REMARK    1  A    between atoms: C_2  and  C_3
REMARK    2  A    between atoms: C_11  and  C_12
REMARK                            x       y       z     vdW  Elec       q    Type
REMARK                         _______ _______ _______ _____ _____    ______ ____
ROOT
ATOM      1  C   UNL     1       3.375   3.346  19.944  0.00  0.00    +0.000 A 
ATOM      2  C   UNL     1       2.583   3.576  21.071  0.00  0.00    +0.000 A 
ATOM      3  N   UNL     1       2.269   2.574  21.985  0.00  0.00    +0.000 N 
ATOM      4  N   UNL     1       1.986   4.759  21.305  0.00  0.00    +0.000 NA
ATOM      5  C   UNL     1       2.165   5.746  20.399  0.00  0.00    +0.000 A 
ATOM      6  C   UNL     1       2.936   5.594  19.254  0.00  0.00    +0.000 A 
ATOM      7  C   UNL     1       3.071   6.643  18.340  0.00  0.00    +0.000 A 
ATOM      8  C   UNL     1       3.858   6.428  17.213  0.00  0.00    +0.000 A 
ATOM      9  C   UNL     1       4.509   5.215  17.040  0.00  0.00    +0.000 A 
ATOM     10  N   UNL     1       4.352   4.199  17.924  0.00  0.00    +0.000 NA
ATOM     11  C   UNL     1       3.575   4.368  19.018  0.00  0.00    +0.000 A 
ATOM     12  C   UNL     1       2.374   7.898  18.625  0.00  0.00    +0.000 A 
ATOM     13  C   UNL     1       2.423   9.030  17.790  0.00  0.00    +0.000 A 
ATOM     14  C   UNL     1       1.733  10.198  18.117  0.00  0.00    +0.000 A 
ATOM     15  C   UNL     1       0.983  10.256  19.284  0.00  0.00    +0.000 A 
ATOM     16  C   UNL     1       0.923   9.147  20.130  0.00  0.00    +0.000 A 
ATOM     17  C   UNL     1       1.615   7.978  19.802  0.00  0.00    +0.000 A 
ATOM     18  O   UNL     1       1.507   6.927  20.694  0.00  0.00    +0.000 OA
ATOM     19  H   UNL     1       3.056   2.013  22.298  0.00  0.00    +0.000 HD
ATOM     20  H   UNL     1       1.744   2.979  22.756  0.00  0.00    +0.000 HD
ENDROOT
BRANCH   9  21
ATOM     21  C   UNL     1       5.406   4.975  15.893  0.00  0.00    +0.000 A 
ATOM     22  C   UNL     1       6.715   5.499  15.862  0.00  0.00    +0.000 A 
ATOM     23  C   UNL     1       7.556   5.304  14.766  0.00  0.00    +0.000 A 
ATOM     24  C   UNL     1       7.111   4.566  13.676  0.00  0.00    +0.000 A 
ATOM     25  C   UNL     1       5.828   4.020  13.687  0.00  0.00    +0.000 A 
ATOM     26  C   UNL     1       4.986   4.221  14.785  0.00  0.00    +0.000 A 
ENDBRANCH   9  21
BRANCH   1  28
ATOM     27  N   UNL     1       4.510   1.054  19.532  0.00  0.00    +0.000 NA
ATOM     28  C   UNL     1       3.989   2.070  19.741  0.00  0.00    +0.000 C 
ENDBRANCH   1  28
TORSDOF 2
ENDMDL
MODEL 2
REMARK VINA RESULT:      -7.0      3.539      6.015
REMARK  Name = 
REMARK  2 active torsions:
REMARK  status: ('A' for Active; 'I' for Inactive)
REMARK    1  A    between atoms: C_2  and  C_3
REMARK    2  A    between atoms: C_11  and  C_12
REMARK                            x       y       z     vdW  Elec       q    Type
REMARK                         _______ _______ _______ _____ _____    ______ ____
ROOT
ATOM      1  C   UNL     1       6.872   5.010  14.631  0.00  0.00    +0.000 A 
ATOM      2  C   UNL     1       6.148   3.884  14.235  0.00  0.00    +0.000 A 
ATOM      3  N   UNL     1       6.374   3.234  13.025  0.00  0.00    +0.000 N 
ATOM      4  N   UNL     1       5.115   3.401  14.950  0.00  0.00    +0.000 NA
ATOM      5  C   UNL     1       4.776   4.051  16.085  0.00  0.00    +0.000 A 
ATOM      6  C   UNL     1       5.446   5.177  16.544  0.00  0.00    +0.000 A 
ATOM      7  C   UNL     1       5.040   5.821  17.716  0.00  0.00    +0.000 A 
ATOM      8  C   UNL     1       5.753   6.944  18.124  0.00  0.00    +0.000 A 
ATOM      9  C   UNL     1       6.852   7.373  17.394  0.00  0.00    +0.000 A 
ATOM     10  N   UNL     1       7.222   6.751  16.247  0.00  0.00    +0.000 NA
ATOM     11  C   UNL     1       6.535   5.670  15.811  0.00  0.00    +0.000 A 
ATOM     12  C   UNL     1       3.889   5.275  18.438  0.00  0.00    +0.000 A 
ATOM     13  C   UNL     1       3.376   5.826  19.628  0.00  0.00    +0.000 A 
ATOM     14  C   UNL     1       2.274   5.258  20.268  0.00  0.00    +0.000 A 
ATOM     15  C   UNL     1       1.665   4.131  19.732  0.00  0.00    +0.000 A 
ATOM     16  C   UNL     1       2.160   3.565  18.555  0.00  0.00    +0.000 A 
ATOM     17  C   UNL     1       3.265   4.133  17.915  0.00  0.00    +0.000 A 
ATOM     18  O   UNL     1       3.694   3.510  16.758  0.00  0.00    +0.000 OA
ATOM     19  H   UNL     1       7.348   3.036  12.815  0.00  0.00    +0.000 HD
ATOM     20  H   UNL     1       5.786   2.406  12.977  0.00  0.00    +0.000 HD
ENDROOT
BRANCH   9  21
ATOM     21  C   UNL     1       7.672   8.519  17.831  0.00  0.00    +0.000 A 
ATOM     22  C   UNL     1       8.647   8.381  18.842  0.00  0.00    +0.000 A 
ATOM     23  C   UNL     1       9.402   9.467  19.284  0.00  0.00    +0.000 A 
ATOM     24  C   UNL     1       9.211  10.720  18.714  0.00  0.00    +0.000 A 
ATOM     25  C   UNL     1       8.269  10.882  17.700  0.00  0.00    +0.000 A 
ATOM     26  C   UNL     1       7.509   9.792  17.262  0.00  0.00    +0.000 A 
ENDBRANCH   9  21
BRANCH   1  28
ATOM     27  N   UNL     1       8.834   5.834  13.152  0.00  0.00    +0.000 NA
ATOM     28  C   UNL     1       7.963   5.484  13.836  0.00  0.00    +0.000 C 
ENDBRANCH   1  28
TORSDOF 2
ENDMDL
MODEL 3
REMARK VINA RESULT:      -6.9      6.364      9.633
REMARK  Name = 
REMARK  2 active torsions:
REMARK  status: ('A' for Active; 'I' for Inactive)
REMARK    1  A    between atoms: C_2  and  C_3
REMARK    2  A    between atoms: C_11  and  C_12
REMARK                            x       y       z     vdW  Elec       q    Type
REMARK                         _______ _______ _______ _____ _____    ______ ____
ROOT
ATOM      1  C   UNL     1      -4.248  11.579  17.566  0.00  0.00    +0.000 A 
ATOM      2  C   UNL     1      -5.410  12.330  17.751  0.00  0.00    +0.000 A 
ATOM      3  N   UNL     1      -6.376  12.476  16.758  0.00  0.00    +0.000 N 
ATOM      4  N   UNL     1      -5.636  13.047  18.867  0.00  0.00    +0.000 NA
ATOM      5  C   UNL     1      -4.687  13.033  19.828  0.00  0.00    +0.000 A 
ATOM      6  C   UNL     1      -3.505  12.313  19.717  0.00  0.00    +0.000 A 
ATOM      7  C   UNL     1      -2.548  12.349  20.736  0.00  0.00    +0.000 A 
ATOM      8  C   UNL     1      -1.386  11.604  20.566  0.00  0.00    +0.000 A 
ATOM      9  C   UNL     1      -1.218  10.827  19.429  0.00  0.00    +0.000 A 
ATOM     10  N   UNL     1      -2.145  10.817  18.440  0.00  0.00    +0.000 NA
ATOM     11  C   UNL     1      -3.276  11.549  18.564  0.00  0.00    +0.000 A 
ATOM     12  C   UNL     1      -2.829  13.172  21.914  0.00  0.00    +0.000 A 
ATOM     13  C   UNL     1      -1.953  13.299  23.008  0.00  0.00    +0.000 A 
ATOM     14  C   UNL     1      -2.278  14.102  24.103  0.00  0.00    +0.000 A 
ATOM     15  C   UNL     1      -3.485  14.790  24.124  0.00  0.00    +0.000 A 
ATOM     16  C   UNL     1      -4.371  14.675  23.052  0.00  0.00    +0.000 A 
ATOM     17  C   UNL     1      -4.045  13.870  21.956  0.00  0.00    +0.000 A 
ATOM     18  O   UNL     1      -4.979  13.808  20.938  0.00  0.00    +0.000 OA
ATOM     19  H   UNL     1      -6.662  11.614  16.304  0.00  0.00    +0.000 HD
ATOM     20  H   UNL     1      -7.161  13.002  17.133  0.00  0.00    +0.000 HD
ENDROOT
BRANCH   9  21
ATOM     21  C   UNL     1      -0.030   9.972  19.245  0.00  0.00    +0.000 A 
ATOM     22  C   UNL     1       0.576   9.819  17.980  0.00  0.00    +0.000 A 
ATOM     23  C   UNL     1       1.679   8.986  17.793  0.00  0.00    +0.000 A 
ATOM     24  C   UNL     1       2.213   8.293  18.873  0.00  0.00    +0.000 A 
ATOM     25  C   UNL     1       1.646   8.439  20.137  0.00  0.00    +0.000 A 
ATOM     26  C   UNL     1       0.538   9.271  20.321  0.00  0.00    +0.000 A 
ENDBRANCH   9  21
BRANCH   1  28
ATOM     27  N   UNL     1      -3.943  10.249  15.363  0.00  0.00    +0.000 NA
ATOM     28  C   UNL     1      -4.055  10.832  16.361  0.00  0.00    +0.000 C 
ENDBRANCH   1  28
TORSDOF 2
ENDMDL
MODEL 4
REMARK VINA RESULT:      -6.6      8.070      9.919
REMARK  Name = 
REMARK  2 active torsions:
REMARK  status: ('A' for Active; 'I' for Inactive)
REMARK    1  A    between atoms: C_2  and  C_3
REMARK    2  A    between atoms: C_11  and  C_12
REMARK                            x       y       z     vdW  Elec       q    Type
REMARK                         _______ _______ _______ _____ _____    ______ ____
ROOT
ATOM      1  C   UNL     1       1.492  13.098  19.851  0.00  0.00    +0.000 A 
ATOM      2  C   UNL     1       2.155  13.772  20.879  0.00  0.00    +0.000 A 
ATOM      3  N   UNL     1       3.536  13.948  20.893  0.00  0.00    +0.000 N 
ATOM      4  N   UNL     1       1.519  14.218  21.978  0.00  0.00    +0.000 NA
ATOM      5  C   UNL     1       0.191  13.986  22.075  0.00  0.00    +0.000 A 
ATOM      6  C   UNL     1      -0.537  13.322  21.097  0.00  0.00    +0.000 A 
ATOM      7  C   UNL     1      -1.907  13.093  21.258  0.00  0.00    +0.000 A 
ATOM      8  C   UNL     1      -2.580  12.424  20.242  0.00  0.00    +0.000 A 
ATOM      9  C   UNL     1      -1.902  12.037  19.096  0.00  0.00    +0.000 A 
ATOM     10  N   UNL     1      -0.569  12.247  18.961  0.00  0.00    +0.000 NA
ATOM     11  C   UNL     1       0.120  12.874  19.942  0.00  0.00    +0.000 A 
ATOM     12  C   UNL     1      -2.544  13.569  22.488  0.00  0.00    +0.000 A 
ATOM     13  C   UNL     1      -3.911  13.403  22.778  0.00  0.00    +0.000 A 
ATOM     14  C   UNL     1      -4.458  13.878  23.971  0.00  0.00    +0.000 A 
ATOM     15  C   UNL     1      -3.649  14.529  24.894  0.00  0.00    +0.000 A 
ATOM     16  C   UNL     1      -2.291  14.709  24.625  0.00  0.00    +0.000 A 
ATOM     17  C   UNL     1      -1.744  14.233  23.430  0.00  0.00    +0.000 A 
ATOM     18  O   UNL     1      -0.392  14.455  23.239  0.00  0.00    +0.000 OA
ATOM     19  H   UNL     1       3.937  14.285  20.024  0.00  0.00    +0.000 HD
ATOM     20  H   UNL     1       3.790  14.521  21.693  0.00  0.00    +0.000 HD
ENDROOT
BRANCH   9  21
ATOM     21  C   UNL     1      -2.596  11.385  17.968  0.00  0.00    +0.000 A 
ATOM     22  C   UNL     1      -1.970  10.380  17.202  0.00  0.00    +0.000 A 
ATOM     23  C   UNL     1      -2.608   9.784  16.114  0.00  0.00    +0.000 A 
ATOM     24  C   UNL     1      -3.898  10.171  15.773  0.00  0.00    +0.000 A 
ATOM     25  C   UNL     1      -4.549  11.148  16.524  0.00  0.00    +0.000 A 
ATOM     26  C   UNL     1      -3.905  11.747  17.611  0.00  0.00    +0.000 A 
ENDBRANCH   9  21
BRANCH   1  28
ATOM     27  N   UNL     1       2.823  12.240  17.801  0.00  0.00    +0.000 NA
ATOM     28  C   UNL     1       2.213  12.645  18.702  0.00  0.00    +0.000 C 
ENDBRANCH   1  28
TORSDOF 2
ENDMDL
MODEL 5
REMARK VINA RESULT:      -6.6      8.509     10.046
REMARK  Name = 
REMARK  2 active torsions:
REMARK  status: ('A' for Active; 'I' for Inactive)
REMARK    1  A    between atoms: C_2  and  C_3
REMARK    2  A    between atoms: C_11  and  C_12
REMARK                            x       y       z     vdW  Elec       q    Type
REMARK                         _______ _______ _______ _____ _____    ______ ____
ROOT
ATOM      1  C   UNL     1      -2.746  13.247  22.483  0.00  0.00    +0.000 A 
ATOM      2  C   UNL     1      -2.133  13.883  23.564  0.00  0.00    +0.000 A 
ATOM      3  N   UNL     1      -2.821  14.214  24.728  0.00  0.00    +0.000 N 
ATOM      4  N   UNL     1      -0.858  14.309  23.523  0.00  0.00    +0.000 NA
ATOM      5  C   UNL     1      -0.164  14.113  22.380  0.00  0.00    +0.000 A 
ATOM      6  C   UNL     1      -0.703  13.489  21.263  0.00  0.00    +0.000 A 
ATOM      7  C   UNL     1       0.055  13.329  20.099  0.00  0.00    +0.000 A 
ATOM      8  C   UNL     1      -0.542  12.695  19.015  0.00  0.00    +0.000 A 
ATOM      9  C   UNL     1      -1.839  12.213  19.118  0.00  0.00    +0.000 A 
ATOM     10  N   UNL     1      -2.570  12.394  20.246  0.00  0.00    +0.000 NA
ATOM     11  C   UNL     1      -2.026  13.027  21.311  0.00  0.00    +0.000 A 
ATOM     12  C   UNL     1       1.426  13.840  20.095  0.00  0.00    +0.000 A 
ATOM     13  C   UNL     1       2.295  13.747  18.992  0.00  0.00    +0.000 A 
ATOM     14  C   UNL     1       3.593  14.257  19.052  0.00  0.00    +0.000 A 
ATOM     15  C   UNL     1       4.046  14.868  20.214  0.00  0.00    +0.000 A 
ATOM     16  C   UNL     1       3.203  14.968  21.322  0.00  0.00    +0.000 A 
ATOM     17  C   UNL     1       1.903  14.456  21.262  0.00  0.00    +0.000 A 
ATOM     18  O   UNL     1       1.134  14.593  22.404  0.00  0.00    +0.000 OA
ATOM     19  H   UNL     1      -3.391  13.470  25.120  0.00  0.00    +0.000 HD
ATOM     20  H   UNL     1      -2.167  14.604  25.402  0.00  0.00    +0.000 HD
ENDROOT
BRANCH   9  21
ATOM     21  C   UNL     1      -2.481  11.476  18.012  0.00  0.00    +0.000 A 
ATOM     22  C   UNL     1      -1.787  10.482  17.291  0.00  0.00    +0.000 A 
ATOM     23  C   UNL     1      -2.377   9.806  16.223  0.00  0.00    +0.000 A 
ATOM     24  C   UNL     1      -3.686  10.099  15.858  0.00  0.00    +0.000 A 
ATOM     25  C   UNL     1      -4.402  11.063  16.565  0.00  0.00    +0.000 A 
ATOM     26  C   UNL     1      -3.807  11.743  17.632  0.00  0.00    +0.000 A 
ENDBRANCH   9  21
BRANCH   1  28
ATOM     27  N   UNL     1      -5.213  12.484  22.700  0.00  0.00    +0.000 NA
ATOM     28  C   UNL     1      -4.105  12.811  22.577  0.00  0.00    +0.000 C 
ENDBRANCH   1  28
TORSDOF 2
ENDMDL
MODEL 6
REMARK VINA RESULT:      -6.6     10.225     12.209
REMARK  Name = 
REMARK  2 active torsions:
REMARK  status: ('A' for Active; 'I' for Inactive)
REMARK    1  A    between atoms: C_2  and  C_3
REMARK    2  A    between atoms: C_11  and  C_12
REMARK                            x       y       z     vdW  Elec       q    Type
REMARK                         _______ _______ _______ _____ _____    ______ ____
ROOT
ATOM      1  C   UNL     1      10.125  11.900  19.379  0.00  0.00    +0.000 A 
ATOM      2  C   UNL     1      10.915  12.401  18.342  0.00  0.00    +0.000 A 
ATOM      3  N   UNL     1      11.277  11.635  17.237  0.00  0.00    +0.000 N 
ATOM      4  N   UNL     1      11.463  13.629  18.381  0.00  0.00    +0.000 NA
ATOM      5  C   UNL     1      11.237  14.386  19.477  0.00  0.00    +0.000 A 
ATOM      6  C   UNL     1      10.464  13.958  20.548  0.00  0.00    +0.000 A 
ATOM      7  C   UNL     1      10.278  14.777  21.666  0.00  0.00    +0.000 A 
ATOM      8  C   UNL     1       9.492  14.291  22.706  0.00  0.00    +0.000 A 
ATOM      9  C   UNL     1       8.892  13.045  22.601  0.00  0.00    +0.000 A 
ATOM     10  N   UNL     1       9.098  12.253  21.520  0.00  0.00    +0.000 NA
ATOM     11  C   UNL     1       9.876  12.686  20.501  0.00  0.00    +0.000 A 
ATOM     12  C   UNL     1      10.924  16.091  21.672  0.00  0.00    +0.000 A 
ATOM     13  C   UNL     1      10.821  17.010  22.732  0.00  0.00    +0.000 A 
ATOM     14  C   UNL     1      11.464  18.248  22.678  0.00  0.00    +0.000 A 
ATOM     15  C   UNL     1      12.220  18.589  21.564  0.00  0.00    +0.000 A 
ATOM     16  C   UNL     1      12.333  17.694  20.498  0.00  0.00    +0.000 A 
ATOM     17  C   UNL     1      11.688  16.455  20.553  0.00  0.00    +0.000 A 
ATOM     18  O   UNL     1      11.847  15.628  19.455  0.00  0.00    +0.000 OA
ATOM     19  H   UNL     1      10.517  11.125  16.797  0.00  0.00    +0.000 HD
ATOM     20  H   UNL     1      11.790  12.218  16.582  0.00  0.00    +0.000 HD
ENDROOT
BRANCH   9  21
ATOM     21  C   UNL     1       7.998  12.526  23.653  0.00  0.00    +0.000 A 
ATOM     22  C   UNL     1       8.326  12.643  25.020  0.00  0.00    +0.000 A 
ATOM     23  C   UNL     1       7.502  12.124  26.019  0.00  0.00    +0.000 A 
ATOM     24  C   UNL     1       6.317  11.486  25.674  0.00  0.00    +0.000 A 
ATOM     25  C   UNL     1       5.957  11.372  24.332  0.00  0.00    +0.000 A 
ATOM     26  C   UNL     1       6.788  11.889  23.333  0.00  0.00    +0.000 A 
ENDBRANCH   9  21
BRANCH   1  28
ATOM     27  N   UNL     1       9.102   9.529  19.164  0.00  0.00    +0.000 NA
ATOM     28  C   UNL     1       9.563  10.587  19.289  0.00  0.00    +0.000 C 
ENDBRANCH   1  28
TORSDOF 2
ENDMDL
MODEL 7
REMARK VINA RESULT:      -6.6      9.641     11.880
REMARK  Name = 
REMARK  2 active torsions:
REMARK  status: ('A' for Active; 'I' for Inactive)
REMARK    1  A    between atoms: C_2  and  C_3
REMARK    2  A    between atoms: C_11  and  C_12
REMARK                            x       y       z     vdW  Elec       q    Type
REMARK                         _______ _______ _______ _____ _____    ______ ____
ROOT
ATOM      1  C   UNL     1       5.885  15.429  20.511  0.00  0.00    +0.000 A 
ATOM      2  C   UNL     1       6.080  15.918  19.218  0.00  0.00    +0.000 A 
ATOM      3  N   UNL     1       5.159  16.749  18.584  0.00  0.00    +0.000 N 
ATOM      4  N   UNL     1       7.123  15.547  18.454  0.00  0.00    +0.000 NA
ATOM      5  C   UNL     1       7.999  14.658  18.973  0.00  0.00    +0.000 A 
ATOM      6  C   UNL     1       7.874  14.126  20.249  0.00  0.00    +0.000 A 
ATOM      7  C   UNL     1       8.800  13.195  20.729  0.00  0.00    +0.000 A 
ATOM      8  C   UNL     1       8.620  12.700  22.016  0.00  0.00    +0.000 A 
ATOM      9  C   UNL     1       7.567  13.156  22.796  0.00  0.00    +0.000 A 
ATOM     10  N   UNL     1       6.664  14.043  22.311  0.00  0.00    +0.000 NA
ATOM     11  C   UNL     1       6.798  14.527  21.054  0.00  0.00    +0.000 A 
ATOM     12  C   UNL     1       9.898  12.799  19.846  0.00  0.00    +0.000 A 
ATOM     13  C   UNL     1      10.896  11.873  20.201  0.00  0.00    +0.000 A 
ATOM     14  C   UNL     1      11.917  11.535  19.312  0.00  0.00    +0.000 A 
ATOM     15  C   UNL     1      11.960  12.118  18.051  0.00  0.00    +0.000 A 
ATOM     16  C   UNL     1      10.983  13.043  17.678  0.00  0.00    +0.000 A 
ATOM     17  C   UNL     1       9.961  13.382  18.570  0.00  0.00    +0.000 A 
ATOM     18  O   UNL     1       9.036  14.308  18.125  0.00  0.00    +0.000 OA
ATOM     19  H   UNL     1       4.829  17.532  19.139  0.00  0.00    +0.000 HD
ATOM     20  H   UNL     1       5.535  17.036  17.684  0.00  0.00    +0.000 HD
ENDROOT
BRANCH   9  21
ATOM     21  C   UNL     1       7.383  12.705  24.189  0.00  0.00    +0.000 A 
ATOM     22  C   UNL     1       6.541  11.618  24.504  0.00  0.00    +0.000 A 
ATOM     23  C   UNL     1       6.336  11.207  25.821  0.00  0.00    +0.000 A 
ATOM     24  C   UNL     1       6.983  11.868  26.859  0.00  0.00    +0.000 A 
ATOM     25  C   UNL     1       7.836  12.933  26.576  0.00  0.00    +0.000 A 
ATOM     26  C   UNL     1       8.035  13.346  25.255  0.00  0.00    +0.000 A 
ENDBRANCH   9  21
BRANCH   1  28
ATOM     27  N   UNL     1       3.828  16.230  21.867  0.00  0.00    +0.000 NA
ATOM     28  C   UNL     1       4.760  15.856  21.283  0.00  0.00    +0.000 C 
ENDBRANCH   1  28
TORSDOF 2
ENDMDL
MODEL 8
REMARK VINA RESULT:      -6.5      8.741     10.823
REMARK  Name = 
REMARK  2 active torsions:
REMARK  status: ('A' for Active; 'I' for Inactive)
REMARK    1  A    between atoms: C_2  and  C_3
REMARK    2  A    between atoms: C_11  and  C_12
REMARK                            x       y       z     vdW  Elec       q    Type
REMARK                         _______ _______ _______ _____ _____    ______ ____
ROOT
ATOM      1  C   UNL     1      -2.329  14.241  23.389  0.00  0.00    +0.000 A 
ATOM      2  C   UNL     1      -3.548  14.063  24.048  0.00  0.00    +0.000 A 
ATOM      3  N   UNL     1      -3.725  14.373  25.393  0.00  0.00    +0.000 N 
ATOM      4  N   UNL     1      -4.611  13.489  23.456  0.00  0.00    +0.000 NA
ATOM      5  C   UNL     1      -4.472  13.068  22.180  0.00  0.00    +0.000 A 
ATOM      6  C   UNL     1      -3.293  13.208  21.459  0.00  0.00    +0.000 A 
ATOM      7  C   UNL     1      -3.199  12.737  20.146  0.00  0.00    +0.000 A 
ATOM      8  C   UNL     1      -1.992  12.909  19.477  0.00  0.00    +0.000 A 
ATOM      9  C   UNL     1      -0.938  13.562  20.100  0.00  0.00    +0.000 A 
ATOM     10  N   UNL     1      -1.037  13.996  21.381  0.00  0.00    +0.000 NA
ATOM     11  C   UNL     1      -2.190  13.824  22.067  0.00  0.00    +0.000 A 
ATOM     12  C   UNL     1      -4.375  12.090  19.561  0.00  0.00    +0.000 A 
ATOM     13  C   UNL     1      -4.415  11.571  18.254  0.00  0.00    +0.000 A 
ATOM     14  C   UNL     1      -5.569  10.963  17.755  0.00  0.00    +0.000 A 
ATOM     15  C   UNL     1      -6.702  10.865  18.552  0.00  0.00    +0.000 A 
ATOM     16  C   UNL     1      -6.686  11.378  19.851  0.00  0.00    +0.000 A 
ATOM     17  C   UNL     1      -5.531  11.987  20.350  0.00  0.00    +0.000 A 
ATOM     18  O   UNL     1      -5.600  12.471  21.643  0.00  0.00    +0.000 OA
ATOM     19  H   UNL     1      -3.377  15.284  25.676  0.00  0.00    +0.000 HD
ATOM     20  H   UNL     1      -4.701  14.231  25.642  0.00  0.00    +0.000 HD
ENDROOT
BRANCH   9  21
ATOM     21  C   UNL     1       0.333  13.822  19.399  0.00  0.00    +0.000 A 
ATOM     22  C   UNL     1       1.083  12.775  18.824  0.00  0.00    +0.000 A 
ATOM     23  C   UNL     1       2.303  13.010  18.189  0.00  0.00    +0.000 A 
ATOM     24  C   UNL     1       2.798  14.305  18.101  0.00  0.00    +0.000 A 
ATOM     25  C   UNL     1       2.070  15.363  18.643  0.00  0.00    +0.000 A 
ATOM     26  C   UNL     1       0.850  15.124  19.283  0.00  0.00    +0.000 A 
ENDBRANCH   9  21
BRANCH   1  28
ATOM     27  N   UNL     1      -0.359  15.406  24.602  0.00  0.00    +0.000 NA
ATOM     28  C   UNL     1      -1.228  14.858  24.062  0.00  0.00    +0.000 C 
ENDBRANCH   1  28
TORSDOF 2
ENDMDL
MODEL 9
REMARK VINA RESULT:      -6.5      8.564     10.158
REMARK  Name = 
REMARK  2 active torsions:
REMARK  status: ('A' for Active; 'I' for Inactive)
REMARK    1  A    between atoms: C_2  and  C_3
REMARK    2  A    between atoms: C_11  and  C_12
REMARK                            x       y       z     vdW  Elec       q    Type
REMARK                         _______ _______ _______ _____ _____    ______ ____
ROOT
ATOM      1  C   UNL     1      -3.219  13.176  22.485  0.00  0.00    +0.000 A 
ATOM      2  C   UNL     1      -2.700  13.800  23.621  0.00  0.00    +0.000 A 
ATOM      3  N   UNL     1      -3.483  14.111  24.730  0.00  0.00    +0.000 N 
ATOM      4  N   UNL     1      -1.429  14.235  23.689  0.00  0.00    +0.000 NA
ATOM      5  C   UNL     1      -0.643  14.058  22.604  0.00  0.00    +0.000 A 
ATOM      6  C   UNL     1      -1.086  13.448  21.438  0.00  0.00    +0.000 A 
ATOM      7  C   UNL     1      -0.235  13.308  20.338  0.00  0.00    +0.000 A 
ATOM      8  C   UNL     1      -0.738  12.687  19.200  0.00  0.00    +0.000 A 
ATOM      9  C   UNL     1      -2.035  12.196  19.191  0.00  0.00    +0.000 A 
ATOM     10  N   UNL     1      -2.856  12.356  20.258  0.00  0.00    +0.000 NA
ATOM     11  C   UNL     1      -2.405  12.977  21.372  0.00  0.00    +0.000 A 
ATOM     12  C   UNL     1       1.129  13.828  20.452  0.00  0.00    +0.000 A 
ATOM     13  C   UNL     1       2.085  13.755  19.422  0.00  0.00    +0.000 A 
ATOM     14  C   UNL     1       3.370  14.271  19.594  0.00  0.00    +0.000 A 
ATOM     15  C   UNL     1       3.723  14.869  20.797  0.00  0.00    +0.000 A 
ATOM     16  C   UNL     1       2.792  14.948  21.835  0.00  0.00    +0.000 A 
ATOM     17  C   UNL     1       1.506  14.430  21.663  0.00  0.00    +0.000 A 
ATOM     18  O   UNL     1       0.645  14.545  22.739  0.00  0.00    +0.000 OA
ATOM     19  H   UNL     1      -4.078  13.359  25.064  0.00  0.00    +0.000 HD
ATOM     20  H   UNL     1      -2.888  14.495  25.460  0.00  0.00    +0.000 HD
ENDROOT
BRANCH   9  21
ATOM     21  C   UNL     1      -2.581  11.471  18.027  0.00  0.00    +0.000 A 
ATOM     22  C   UNL     1      -3.870  11.750  17.526  0.00  0.00    +0.000 A 
ATOM     23  C   UNL     1      -4.405  11.045  16.447  0.00  0.00    +0.000 A 
ATOM     24  C   UNL     1      -3.655  10.051  15.831  0.00  0.00    +0.000 A 
ATOM     25  C   UNL     1      -2.370   9.767  16.292  0.00  0.00    +0.000 A 
ATOM     26  C   UNL     1      -1.839  10.471  17.377  0.00  0.00    +0.000 A 
ENDBRANCH   9  21
BRANCH   1  28
ATOM     27  N   UNL     1      -5.671  12.344  22.398  0.00  0.00    +0.000 NA
ATOM     28  C   UNL     1      -4.579  12.731  22.462  0.00  0.00    +0.000 C 
ENDBRANCH   1  28
TORSDOF 2
ENDMDL
