MODEL 1
REMARK VINA RESULT:      -7.5      0.000      0.000
REMARK  Name = 
REMARK  9 active torsions:
REMARK  status: ('A' for Active; 'I' for Inactive)
REMARK    1  A    between atoms: C_1  and  C_2
REMARK    2  A    between atoms: C_2  and  C_3
REMARK    3  A    between atoms: C_2  and  N_4
REMARK    4  A    between atoms: C_8  and  N_9
REMARK    5  A    between atoms: N_11  and  C_12
REMARK    6  A    between atoms: N_20  and  C_21
REMARK    7  A    between atoms: C_21  and  C_22
REMARK    8  A    between atoms: C_21  and  C_23
REMARK    9  A    between atoms: C_21  and  C_24
REMARK                            x       y       z     vdW  Elec       q    Type
REMARK                         _______ _______ _______ _____ _____    ______ ____
ROOT
ATOM      1  N   UNL     1       4.164   5.757  17.390  0.00  0.00    +0.000 NA
ATOM      2  C   UNL     1       3.282   4.979  17.955  0.00  0.00    +0.000 C 
ATOM      3  N   UNL     1       2.176   5.442  18.628  0.00  0.00    +0.000 N 
ATOM      4  N   UNL     1       3.279   3.604  17.885  0.00  0.00    +0.000 N 
ATOM      5  H   UNL     1       1.392   4.813  18.583  0.00  0.00    +0.000 HD
ATOM      6  H   UNL     1       4.096   3.310  17.337  0.00  0.00    +0.000 HD
ENDROOT
BRANCH   3   7
ATOM      7  C   UNL     1       1.911   6.670  19.258  0.00  0.00    +0.000 A 
ATOM      8  C   UNL     1       1.522   6.778  20.594  0.00  0.00    +0.000 A 
ATOM      9  C   UNL     1       1.232   8.018  21.174  0.00  0.00    +0.000 A 
ATOM     10  C   UNL     1       1.289   9.179  20.417  0.00  0.00    +0.000 A 
ATOM     11 CL   UNL     1       0.903  10.680  21.188  0.00  0.00    +0.000 Cl
ATOM     12  C   UNL     1       1.642   9.091  19.064  0.00  0.00    +0.000 A 
ATOM     13 CL   UNL     1       1.691  10.481  18.033  0.00  0.00    +0.000 Cl
ATOM     14  C   UNL     1       1.949   7.848  18.502  0.00  0.00    +0.000 A 
ENDBRANCH   3   7
BRANCH   1  19
ATOM     15  N   UNL     1       6.562   5.584  17.049  0.00  0.00    +0.000 N 
ATOM     16  C   UNL     1       7.434   5.198  15.971  0.00  0.00    +0.000 C 
ATOM     17  C   UNL     1       6.522   4.242  15.215  0.00  0.00    +0.000 C 
ATOM     18  N   UNL     1       5.123   4.598  15.598  0.00  0.00    +0.000 NA
ATOM     19  C   UNL     1       5.254   5.324  16.689  0.00  0.00    +0.000 C 
BRANCH  15  21
ATOM     20  C   UNL     1       7.971   5.692  19.063  0.00  0.00    +0.000 C 
ATOM     21  C   UNL     1       7.083   6.453  18.085  0.00  0.00    +0.000 C 
ATOM     22  C   UNL     1       7.701   7.706  17.480  0.00  0.00    +0.000 C 
ENDBRANCH  15  21
ENDBRANCH   1  19
BRANCH   4  23
ATOM     23  C   UNL     1       2.856   2.580  18.857  0.00  0.00    +0.000 C 
ATOM     24  C   UNL     1       1.350   2.316  18.686  0.00  0.00    +0.000 C 
ATOM     25  C   UNL     1       3.624   1.286  18.528  0.00  0.00    +0.000 C 
ATOM     26  C   UNL     1       3.150   2.924  20.324  0.00  0.00    +0.000 C 
ENDBRANCH   4  23
TORSDOF 4
ENDMDL
MODEL 2
REMARK VINA RESULT:      -7.5      0.831      1.516
REMARK  Name = 
REMARK  9 active torsions:
REMARK  status: ('A' for Active; 'I' for Inactive)
REMARK    1  A    between atoms: C_1  and  C_2
REMARK    2  A    between atoms: C_2  and  C_3
REMARK    3  A    between atoms: C_2  and  N_4
REMARK    4  A    between atoms: C_8  and  N_9
REMARK    5  A    between atoms: N_11  and  C_12
REMARK    6  A    between atoms: N_20  and  C_21
REMARK    7  A    between atoms: C_21  and  C_22
REMARK    8  A    between atoms: C_21  and  C_23
REMARK    9  A    between atoms: C_21  and  C_24
REMARK                            x       y       z     vdW  Elec       q    Type
REMARK                         _______ _______ _______ _____ _____    ______ ____
ROOT
ATOM      1  N   UNL     1       4.157   5.914  17.244  0.00  0.00    +0.000 NA
ATOM      2  C   UNL     1       3.303   5.270  17.991  0.00  0.00    +0.000 C 
ATOM      3  N   UNL     1       2.185   5.847  18.543  0.00  0.00    +0.000 N 
ATOM      4  N   UNL     1       3.346   3.920  18.256  0.00  0.00    +0.000 N 
ATOM      5  H   UNL     1       1.421   5.202  18.661  0.00  0.00    +0.000 HD
ATOM      6  H   UNL     1       4.170   3.527  17.786  0.00  0.00    +0.000 HD
ENDROOT
BRANCH   3   7
ATOM      7  C   UNL     1       1.881   7.182  18.860  0.00  0.00    +0.000 A 
ATOM      8  C   UNL     1       1.869   8.211  17.915  0.00  0.00    +0.000 A 
ATOM      9  C   UNL     1       1.597   9.534  18.278  0.00  0.00    +0.000 A 
ATOM     10  C   UNL     1       1.366   9.867  19.604  0.00  0.00    +0.000 A 
ATOM     11 CL   UNL     1       1.052  11.525  19.991  0.00  0.00    +0.000 Cl
ATOM     12  C   UNL     1       1.410   8.858  20.575  0.00  0.00    +0.000 A 
ATOM     13 CL   UNL     1       1.183   9.190  22.259  0.00  0.00    +0.000 Cl
ATOM     14  C   UNL     1       1.663   7.536  20.196  0.00  0.00    +0.000 A 
ENDBRANCH   3   7
BRANCH   1  19
ATOM     15  N   UNL     1       6.551   5.538  17.106  0.00  0.00    +0.000 N 
ATOM     16  C   UNL     1       7.469   5.023  16.124  0.00  0.00    +0.000 C 
ATOM     17  C   UNL     1       6.542   4.099  15.347  0.00  0.00    +0.000 C 
ATOM     18  N   UNL     1       5.152   4.583  15.597  0.00  0.00    +0.000 NA
ATOM     19  C   UNL     1       5.258   5.358  16.656  0.00  0.00    +0.000 C 
BRANCH  15  21
ATOM     20  C   UNL     1       7.939   5.676  19.133  0.00  0.00    +0.000 C 
ATOM     21  C   UNL     1       7.061   6.423  18.135  0.00  0.00    +0.000 C 
ATOM     22  C   UNL     1       7.684   7.667  17.517  0.00  0.00    +0.000 C 
ENDBRANCH  15  21
ENDBRANCH   1  19
BRANCH   4  23
ATOM     23  C   UNL     1       2.960   3.149  19.453  0.00  0.00    +0.000 C 
ATOM     24  C   UNL     1       1.744   2.270  19.114  0.00  0.00    +0.000 C 
ATOM     25  C   UNL     1       4.145   2.233  19.813  0.00  0.00    +0.000 C 
ATOM     26  C   UNL     1       2.646   3.998  20.692  0.00  0.00    +0.000 C 
ENDBRANCH   4  23
TORSDOF 4
ENDMDL
MODEL 3
REMARK VINA RESULT:      -7.3      1.380      2.565
REMARK  Name = 
REMARK  9 active torsions:
REMARK  status: ('A' for Active; 'I' for Inactive)
REMARK    1  A    between atoms: C_1  and  C_2
REMARK    2  A    between atoms: C_2  and  C_3
REMARK    3  A    between atoms: C_2  and  N_4
REMARK    4  A    between atoms: C_8  and  N_9
REMARK    5  A    between atoms: N_11  and  C_12
REMARK    6  A    between atoms: N_20  and  C_21
REMARK    7  A    between atoms: C_21  and  C_22
REMARK    8  A    between atoms: C_21  and  C_23
REMARK    9  A    between atoms: C_21  and  C_24
REMARK                            x       y       z     vdW  Elec       q    Type
REMARK                         _______ _______ _______ _____ _____    ______ ____
ROOT
ATOM      1  N   UNL     1       4.533   6.095  18.569  0.00  0.00    +0.000 NA
ATOM      2  C   UNL     1       3.512   5.406  18.999  0.00  0.00    +0.000 C 
ATOM      3  N   UNL     1       2.261   5.939  19.199  0.00  0.00    +0.000 N 
ATOM      4  N   UNL     1       3.513   4.048  19.225  0.00  0.00    +0.000 N 
ATOM      5  H   UNL     1       1.518   5.275  19.058  0.00  0.00    +0.000 HD
ATOM      6  H   UNL     1       4.453   3.690  19.019  0.00  0.00    +0.000 HD
ENDROOT
BRANCH   3   7
ATOM      7  C   UNL     1       1.835   7.255  19.446  0.00  0.00    +0.000 A 
ATOM      8  C   UNL     1       1.842   8.259  18.475  0.00  0.00    +0.000 A 
ATOM      9  C   UNL     1       1.443   9.566  18.772  0.00  0.00    +0.000 A 
ATOM     10  C   UNL     1       1.061   9.911  20.060  0.00  0.00    +0.000 A 
ATOM     11 CL   UNL     1       0.594  11.549  20.367  0.00  0.00    +0.000 Cl
ATOM     12  C   UNL     1       1.081   8.929  21.059  0.00  0.00    +0.000 A 
ATOM     13 CL   UNL     1       0.669   9.280  22.704  0.00  0.00    +0.000 Cl
ATOM     14  C   UNL     1       1.463   7.621  20.745  0.00  0.00    +0.000 A 
ENDBRANCH   3   7
BRANCH   1  19
ATOM     15  N   UNL     1       6.250   5.243  17.078  0.00  0.00    +0.000 N 
ATOM     16  C   UNL     1       7.485   4.517  17.220  0.00  0.00    +0.000 C 
ATOM     17  C   UNL     1       7.888   4.943  18.625  0.00  0.00    +0.000 C 
ATOM     18  N   UNL     1       6.638   5.389  19.309  0.00  0.00    +0.000 NA
ATOM     19  C   UNL     1       5.778   5.584  18.331  0.00  0.00    +0.000 C 
BRANCH  15  21
ATOM     20  C   UNL     1       5.230   6.576  15.279  0.00  0.00    +0.000 C 
ATOM     21  C   UNL     1       5.552   5.183  15.809  0.00  0.00    +0.000 C 
ATOM     22  C   UNL     1       6.279   4.266  14.836  0.00  0.00    +0.000 C 
ENDBRANCH  15  21
ENDBRANCH   1  19
BRANCH   4  23
ATOM     23  C   UNL     1       2.805   3.226  20.222  0.00  0.00    +0.000 C 
ATOM     24  C   UNL     1       1.654   2.475  19.529  0.00  0.00    +0.000 C 
ATOM     25  C   UNL     1       3.809   2.193  20.767  0.00  0.00    +0.000 C 
ATOM     26  C   UNL     1       2.253   4.004  21.425  0.00  0.00    +0.000 C 
ENDBRANCH   4  23
TORSDOF 4
ENDMDL
MODEL 4
REMARK VINA RESULT:      -7.3      0.797      1.718
REMARK  Name = 
REMARK  9 active torsions:
REMARK  status: ('A' for Active; 'I' for Inactive)
REMARK    1  A    between atoms: C_1  and  C_2
REMARK    2  A    between atoms: C_2  and  C_3
REMARK    3  A    between atoms: C_2  and  N_4
REMARK    4  A    between atoms: C_8  and  N_9
REMARK    5  A    between atoms: N_11  and  C_12
REMARK    6  A    between atoms: N_20  and  C_21
REMARK    7  A    between atoms: C_21  and  C_22
REMARK    8  A    between atoms: C_21  and  C_23
REMARK    9  A    between atoms: C_21  and  C_24
REMARK                            x       y       z     vdW  Elec       q    Type
REMARK                         _______ _______ _______ _____ _____    ______ ____
ROOT
ATOM      1  N   UNL     1       4.208   6.083  17.048  0.00  0.00    +0.000 NA
ATOM      2  C   UNL     1       3.279   5.395  17.652  0.00  0.00    +0.000 C 
ATOM      3  N   UNL     1       2.144   5.953  18.191  0.00  0.00    +0.000 N 
ATOM      4  N   UNL     1       3.253   4.022  17.758  0.00  0.00    +0.000 N 
ATOM      5  H   UNL     1       1.351   5.333  18.178  0.00  0.00    +0.000 HD
ATOM      6  H   UNL     1       4.096   3.650  17.303  0.00  0.00    +0.000 HD
ENDROOT
BRANCH   3   7
ATOM      7  C   UNL     1       1.866   7.255  18.641  0.00  0.00    +0.000 A 
ATOM      8  C   UNL     1       1.832   8.367  17.798  0.00  0.00    +0.000 A 
ATOM      9  C   UNL     1       1.586   9.653  18.292  0.00  0.00    +0.000 A 
ATOM     10  C   UNL     1       1.406   9.861  19.652  0.00  0.00    +0.000 A 
ATOM     11 CL   UNL     1       1.123  11.478  20.203  0.00  0.00    +0.000 Cl
ATOM     12  C   UNL     1       1.473   8.765  20.522  0.00  0.00    +0.000 A 
ATOM     13 CL   UNL     1       1.308   8.939  22.236  0.00  0.00    +0.000 Cl
ATOM     14  C   UNL     1       1.698   7.483  20.012  0.00  0.00    +0.000 A 
ENDBRANCH   3   7
BRANCH   1  19
ATOM     15  N   UNL     1       6.605   5.701  16.983  0.00  0.00    +0.000 N 
ATOM     16  C   UNL     1       7.558   5.230  16.013  0.00  0.00    +0.000 C 
ATOM     17  C   UNL     1       6.658   4.349  15.157  0.00  0.00    +0.000 C 
ATOM     18  N   UNL     1       5.261   4.828  15.377  0.00  0.00    +0.000 NA
ATOM     19  C   UNL     1       5.329   5.550  16.476  0.00  0.00    +0.000 C 
BRANCH  15  21
ATOM     20  C   UNL     1       7.917   5.735  19.065  0.00  0.00    +0.000 C 
ATOM     21  C   UNL     1       7.077   6.532  18.073  0.00  0.00    +0.000 C 
ATOM     22  C   UNL     1       7.726   7.803  17.541  0.00  0.00    +0.000 C 
ENDBRANCH  15  21
ENDBRANCH   1  19
BRANCH   4  23
ATOM     23  C   UNL     1       2.753   3.137  18.825  0.00  0.00    +0.000 C 
ATOM     24  C   UNL     1       2.956   3.825  20.186  0.00  0.00    +0.000 C 
ATOM     25  C   UNL     1       1.243   2.940  18.592  0.00  0.00    +0.000 C 
ATOM     26  C   UNL     1       3.395   1.743  18.859  0.00  0.00    +0.000 C 
ENDBRANCH   4  23
TORSDOF 4
ENDMDL
MODEL 5
REMARK VINA RESULT:      -7.1      1.030      1.952
REMARK  Name = 
REMARK  9 active torsions:
REMARK  status: ('A' for Active; 'I' for Inactive)
REMARK    1  A    between atoms: C_1  and  C_2
REMARK    2  A    between atoms: C_2  and  C_3
REMARK    3  A    between atoms: C_2  and  N_4
REMARK    4  A    between atoms: C_8  and  N_9
REMARK    5  A    between atoms: N_11  and  C_12
REMARK    6  A    between atoms: N_20  and  C_21
REMARK    7  A    between atoms: C_21  and  C_22
REMARK    8  A    between atoms: C_21  and  C_23
REMARK    9  A    between atoms: C_21  and  C_24
REMARK                            x       y       z     vdW  Elec       q    Type
REMARK                         _______ _______ _______ _____ _____    ______ ____
ROOT
ATOM      1  N   UNL     1       4.589   5.966  18.512  0.00  0.00    +0.000 NA
ATOM      2  C   UNL     1       3.512   5.249  18.673  0.00  0.00    +0.000 C 
ATOM      3  N   UNL     1       2.277   5.780  18.958  0.00  0.00    +0.000 N 
ATOM      4  N   UNL     1       3.435   3.886  18.494  0.00  0.00    +0.000 N 
ATOM      5  H   UNL     1       1.514   5.233  18.594  0.00  0.00    +0.000 HD
ATOM      6  H   UNL     1       4.369   3.543  18.239  0.00  0.00    +0.000 HD
ENDROOT
BRANCH   3   7
ATOM      7  C   UNL     1       1.897   6.994  19.556  0.00  0.00    +0.000 A 
ATOM      8  C   UNL     1       1.439   7.091  20.871  0.00  0.00    +0.000 A 
ATOM      9  C   UNL     1       1.036   8.314  21.418  0.00  0.00    +0.000 A 
ATOM     10  C   UNL     1       1.046   9.467  20.646  0.00  0.00    +0.000 A 
ATOM     11 CL   UNL     1       0.520  10.946  21.375  0.00  0.00    +0.000 Cl
ATOM     12  C   UNL     1       1.467   9.388  19.313  0.00  0.00    +0.000 A 
ATOM     13 CL   UNL     1       1.466  10.764  18.263  0.00  0.00    +0.000 Cl
ATOM     14  C   UNL     1       1.887   8.162  18.785  0.00  0.00    +0.000 A 
ENDBRANCH   3   7
BRANCH   1  19
ATOM     15  N   UNL     1       6.258   5.235  16.907  0.00  0.00    +0.000 N 
ATOM     16  C   UNL     1       7.488   4.488  16.951  0.00  0.00    +0.000 C 
ATOM     17  C   UNL     1       7.931   4.783  18.377  0.00  0.00    +0.000 C 
ATOM     18  N   UNL     1       6.704   5.178  19.131  0.00  0.00    +0.000 NA
ATOM     19  C   UNL     1       5.822   5.467  18.197  0.00  0.00    +0.000 C 
BRANCH  15  21
ATOM     20  C   UNL     1       5.188   6.731  15.273  0.00  0.00    +0.000 C 
ATOM     21  C   UNL     1       5.528   5.295  15.656  0.00  0.00    +0.000 C 
ATOM     22  C   UNL     1       6.232   4.480  14.580  0.00  0.00    +0.000 C 
ENDBRANCH  15  21
ENDBRANCH   1  19
BRANCH   4  23
ATOM     23  C   UNL     1       2.625   2.858  19.173  0.00  0.00    +0.000 C 
ATOM     24  C   UNL     1       1.196   2.886  18.602  0.00  0.00    +0.000 C 
ATOM     25  C   UNL     1       3.256   1.489  18.856  0.00  0.00    +0.000 C 
ATOM     26  C   UNL     1       2.565   2.991  20.701  0.00  0.00    +0.000 C 
ENDBRANCH   4  23
TORSDOF 4
ENDMDL
MODEL 6
REMARK VINA RESULT:      -7.0      1.330      2.115
REMARK  Name = 
REMARK  9 active torsions:
REMARK  status: ('A' for Active; 'I' for Inactive)
REMARK    1  A    between atoms: C_1  and  C_2
REMARK    2  A    between atoms: C_2  and  C_3
REMARK    3  A    between atoms: C_2  and  N_4
REMARK    4  A    between atoms: C_8  and  N_9
REMARK    5  A    between atoms: N_11  and  C_12
REMARK    6  A    between atoms: N_20  and  C_21
REMARK    7  A    between atoms: C_21  and  C_22
REMARK    8  A    between atoms: C_21  and  C_23
REMARK    9  A    between atoms: C_21  and  C_24
REMARK                            x       y       z     vdW  Elec       q    Type
REMARK                         _______ _______ _______ _____ _____    ______ ____
ROOT
ATOM      1  N   UNL     1       4.672   6.043  18.966  0.00  0.00    +0.000 NA
ATOM      2  C   UNL     1       3.659   5.291  19.297  0.00  0.00    +0.000 C 
ATOM      3  N   UNL     1       2.389   5.771  19.509  0.00  0.00    +0.000 N 
ATOM      4  N   UNL     1       3.691   3.918  19.395  0.00  0.00    +0.000 N 
ATOM      5  H   UNL     1       1.669   5.105  19.283  0.00  0.00    +0.000 HD
ATOM      6  H   UNL     1       4.647   3.605  19.185  0.00  0.00    +0.000 HD
ENDROOT
BRANCH   3   7
ATOM      7  C   UNL     1       1.919   7.047  19.865  0.00  0.00    +0.000 A 
ATOM      8  C   UNL     1       1.306   7.324  21.089  0.00  0.00    +0.000 A 
ATOM      9  C   UNL     1       0.820   8.600  21.391  0.00  0.00    +0.000 A 
ATOM     10  C   UNL     1       0.901   9.623  20.458  0.00  0.00    +0.000 A 
ATOM     11 CL   UNL     1       0.265  11.176  20.886  0.00  0.00    +0.000 Cl
ATOM     12  C   UNL     1       1.477   9.359  19.209  0.00  0.00    +0.000 A 
ATOM     13 CL   UNL     1       1.576  10.561  17.967  0.00  0.00    +0.000 Cl
ATOM     14  C   UNL     1       1.979   8.084  18.928  0.00  0.00    +0.000 A 
ENDBRANCH   3   7
BRANCH   1  19
ATOM     15  N   UNL     1       6.435   5.329  17.457  0.00  0.00    +0.000 N 
ATOM     16  C   UNL     1       7.693   4.640  17.578  0.00  0.00    +0.000 C 
ATOM     17  C   UNL     1       8.064   5.006  19.008  0.00  0.00    +0.000 C 
ATOM     18  N   UNL     1       6.791   5.373  19.697  0.00  0.00    +0.000 NA
ATOM     19  C   UNL     1       5.937   5.588  18.718  0.00  0.00    +0.000 C 
BRANCH  15  21
ATOM     20  C   UNL     1       4.893   4.064  16.015  0.00  0.00    +0.000 C 
ATOM     21  C   UNL     1       5.755   5.312  16.177  0.00  0.00    +0.000 C 
ATOM     22  C   UNL     1       5.045   6.634  15.925  0.00  0.00    +0.000 C 
ENDBRANCH  15  21
ENDBRANCH   1  19
BRANCH   4  23
ATOM     23  C   UNL     1       2.978   2.987  20.288  0.00  0.00    +0.000 C 
ATOM     24  C   UNL     1       1.930   2.211  19.472  0.00  0.00    +0.000 C 
ATOM     25  C   UNL     1       4.014   1.987  20.835  0.00  0.00    +0.000 C 
ATOM     26  C   UNL     1       2.298   3.647  21.495  0.00  0.00    +0.000 C 
ENDBRANCH   4  23
TORSDOF 4
ENDMDL
MODEL 7
REMARK VINA RESULT:      -6.8      3.669      6.000
REMARK  Name = 
REMARK  9 active torsions:
REMARK  status: ('A' for Active; 'I' for Inactive)
REMARK    1  A    between atoms: C_1  and  C_2
REMARK    2  A    between atoms: C_2  and  C_3
REMARK    3  A    between atoms: C_2  and  N_4
REMARK    4  A    between atoms: C_8  and  N_9
REMARK    5  A    between atoms: N_11  and  C_12
REMARK    6  A    between atoms: N_20  and  C_21
REMARK    7  A    between atoms: C_21  and  C_22
REMARK    8  A    between atoms: C_21  and  C_23
REMARK    9  A    between atoms: C_21  and  C_24
REMARK                            x       y       z     vdW  Elec       q    Type
REMARK                         _______ _______ _______ _____ _____    ______ ____
ROOT
ATOM      1  N   UNL     1       6.152   4.241  15.303  0.00  0.00    +0.000 NA
ATOM      2  C   UNL     1       6.393   4.781  16.465  0.00  0.00    +0.000 C 
ATOM      3  N   UNL     1       5.768   4.400  17.628  0.00  0.00    +0.000 N 
ATOM      4  N   UNL     1       7.356   5.734  16.710  0.00  0.00    +0.000 N 
ATOM      5  H   UNL     1       6.341   4.523  18.447  0.00  0.00    +0.000 HD
ATOM      6  H   UNL     1       7.824   5.952  15.823  0.00  0.00    +0.000 HD
ENDROOT
BRANCH   3   7
ATOM      7  C   UNL     1       4.534   3.769  17.864  0.00  0.00    +0.000 A 
ATOM      8  C   UNL     1       3.596   3.519  16.859  0.00  0.00    +0.000 A 
ATOM      9  C   UNL     1       2.364   2.921  17.142  0.00  0.00    +0.000 A 
ATOM     10  C   UNL     1       2.024   2.590  18.445  0.00  0.00    +0.000 A 
ATOM     11 CL   UNL     1       0.477   1.867  18.732  0.00  0.00    +0.000 Cl
ATOM     12  C   UNL     1       2.934   2.865  19.475  0.00  0.00    +0.000 A 
ATOM     13 CL   UNL     1       2.574   2.532  21.135  0.00  0.00    +0.000 Cl
ATOM     14  C   UNL     1       4.171   3.445  19.176  0.00  0.00    +0.000 A 
ENDBRANCH   3   7
BRANCH   1  19
ATOM     15  N   UNL     1       6.431   4.083  12.896  0.00  0.00    +0.000 N 
ATOM     16  C   UNL     1       7.443   4.449  11.940  0.00  0.00    +0.000 C 
ATOM     17  C   UNL     1       8.099   5.610  12.673  0.00  0.00    +0.000 C 
ATOM     18  N   UNL     1       7.783   5.431  14.122  0.00  0.00    +0.000 NA
ATOM     19  C   UNL     1       6.781   4.578  14.137  0.00  0.00    +0.000 C 
BRANCH  15  21
ATOM     20  C   UNL     1       4.245   3.599  11.876  0.00  0.00    +0.000 C 
ATOM     21  C   UNL     1       5.493   3.035  12.546  0.00  0.00    +0.000 C 
ATOM     22  C   UNL     1       6.192   1.914  11.790  0.00  0.00    +0.000 C 
ENDBRANCH  15  21
ENDBRANCH   1  19
BRANCH   4  23
ATOM     23  C   UNL     1       7.390   6.864  17.656  0.00  0.00    +0.000 C 
ATOM     24  C   UNL     1       5.952   7.351  17.909  0.00  0.00    +0.000 C 
ATOM     25  C   UNL     1       7.973   6.340  18.982  0.00  0.00    +0.000 C 
ATOM     26  C   UNL     1       8.258   8.049  17.213  0.00  0.00    +0.000 C 
ENDBRANCH   4  23
TORSDOF 4
ENDMDL
MODEL 8
REMARK VINA RESULT:      -6.7      1.505      4.623
REMARK  Name = 
REMARK  9 active torsions:
REMARK  status: ('A' for Active; 'I' for Inactive)
REMARK    1  A    between atoms: C_1  and  C_2
REMARK    2  A    between atoms: C_2  and  C_3
REMARK    3  A    between atoms: C_2  and  N_4
REMARK    4  A    between atoms: C_8  and  N_9
REMARK    5  A    between atoms: N_11  and  C_12
REMARK    6  A    between atoms: N_20  and  C_21
REMARK    7  A    between atoms: C_21  and  C_22
REMARK    8  A    between atoms: C_21  and  C_23
REMARK    9  A    between atoms: C_21  and  C_24
REMARK                            x       y       z     vdW  Elec       q    Type
REMARK                         _______ _______ _______ _____ _____    ______ ____
ROOT
ATOM      1  N   UNL     1       2.967   4.899  18.683  0.00  0.00    +0.000 NA
ATOM      2  C   UNL     1       3.873   5.768  18.329  0.00  0.00    +0.000 C 
ATOM      3  N   UNL     1       3.750   7.123  18.530  0.00  0.00    +0.000 N 
ATOM      4  N   UNL     1       5.103   5.457  17.796  0.00  0.00    +0.000 N 
ATOM      5  H   UNL     1       4.633   7.586  18.665  0.00  0.00    +0.000 HD
ATOM      6  H   UNL     1       5.164   4.435  17.708  0.00  0.00    +0.000 HD
ENDROOT
BRANCH   3   7
ATOM      7  C   UNL     1       2.622   7.945  18.695  0.00  0.00    +0.000 A 
ATOM      8  C   UNL     1       2.145   8.800  17.700  0.00  0.00    +0.000 A 
ATOM      9  C   UNL     1       1.039   9.630  17.917  0.00  0.00    +0.000 A 
ATOM     10  C   UNL     1       0.407   9.650  19.151  0.00  0.00    +0.000 A 
ATOM     11 CL   UNL     1      -0.946  10.711  19.362  0.00  0.00    +0.000 Cl
ATOM     12  C   UNL     1       0.891   8.828  20.176  0.00  0.00    +0.000 A 
ATOM     13 CL   UNL     1       0.195   8.825  21.761  0.00  0.00    +0.000 Cl
ATOM     14  C   UNL     1       1.984   7.988  19.939  0.00  0.00    +0.000 A 
ENDBRANCH   3   7
BRANCH   1  19
ATOM     15  N   UNL     1       2.405   2.618  19.297  0.00  0.00    +0.000 N 
ATOM     16  C   UNL     1       2.935   1.307  19.028  0.00  0.00    +0.000 C 
ATOM     17  C   UNL     1       3.595   1.555  17.679  0.00  0.00    +0.000 C 
ATOM     18  N   UNL     1       3.845   3.025  17.592  0.00  0.00    +0.000 NA
ATOM     19  C   UNL     1       3.077   3.546  18.525  0.00  0.00    +0.000 C 
BRANCH  15  21
ATOM     20  C   UNL     1       2.444   2.736  21.754  0.00  0.00    +0.000 C 
ATOM     21  C   UNL     1       1.600   2.810  20.487  0.00  0.00    +0.000 C 
ATOM     22  C   UNL     1       0.727   4.051  20.355  0.00  0.00    +0.000 C 
ENDBRANCH  15  21
ENDBRANCH   1  19
BRANCH   4  23
ATOM     23  C   UNL     1       5.942   6.157  16.807  0.00  0.00    +0.000 C 
ATOM     24  C   UNL     1       6.877   5.139  16.130  0.00  0.00    +0.000 C 
ATOM     25  C   UNL     1       5.001   6.747  15.739  0.00  0.00    +0.000 C 
ATOM     26  C   UNL     1       6.774   7.315  17.372  0.00  0.00    +0.000 C 
ENDBRANCH   4  23
TORSDOF 4
ENDMDL
MODEL 9
REMARK VINA RESULT:      -6.7      1.501      4.473
REMARK  Name = 
REMARK  9 active torsions:
REMARK  status: ('A' for Active; 'I' for Inactive)
REMARK    1  A    between atoms: C_1  and  C_2
REMARK    2  A    between atoms: C_2  and  C_3
REMARK    3  A    between atoms: C_2  and  N_4
REMARK    4  A    between atoms: C_8  and  N_9
REMARK    5  A    between atoms: N_11  and  C_12
REMARK    6  A    between atoms: N_20  and  C_21
REMARK    7  A    between atoms: C_21  and  C_22
REMARK    8  A    between atoms: C_21  and  C_23
REMARK    9  A    between atoms: C_21  and  C_24
REMARK                            x       y       z     vdW  Elec       q    Type
REMARK                         _______ _______ _______ _____ _____    ______ ____
ROOT
ATOM      1  N   UNL     1       2.563   5.053  18.518  0.00  0.00    +0.000 NA
ATOM      2  C   UNL     1       3.501   5.896  18.186  0.00  0.00    +0.000 C 
ATOM      3  N   UNL     1       3.455   7.240  18.469  0.00  0.00    +0.000 N 
ATOM      4  N   UNL     1       4.696   5.557  17.593  0.00  0.00    +0.000 N 
ATOM      5  H   UNL     1       4.364   7.651  18.601  0.00  0.00    +0.000 HD
ATOM      6  H   UNL     1       4.701   4.541  17.443  0.00  0.00    +0.000 HD
ENDROOT
BRANCH   3   7
ATOM      7  C   UNL     1       2.377   8.106  18.721  0.00  0.00    +0.000 A 
ATOM      8  C   UNL     1       1.863   8.988  17.769  0.00  0.00    +0.000 A 
ATOM      9  C   UNL     1       0.811   9.860  18.071  0.00  0.00    +0.000 A 
ATOM     10  C   UNL     1       0.272   9.896  19.349  0.00  0.00    +0.000 A 
ATOM     11 CL   UNL     1      -1.016  11.010  19.664  0.00  0.00    +0.000 Cl
ATOM     12  C   UNL     1       0.797   9.047  20.331  0.00  0.00    +0.000 A 
ATOM     13 CL   UNL     1       0.220   9.059  21.963  0.00  0.00    +0.000 Cl
ATOM     14  C   UNL     1       1.834   8.166  20.010  0.00  0.00    +0.000 A 
ENDBRANCH   3   7
BRANCH   1  19
ATOM     15  N   UNL     1       2.897   2.757  19.233  0.00  0.00    +0.000 N 
ATOM     16  C   UNL     1       3.084   1.483  18.589  0.00  0.00    +0.000 C 
ATOM     17  C   UNL     1       2.359   1.737  17.274  0.00  0.00    +0.000 C 
ATOM     18  N   UNL     1       2.327   3.219  17.086  0.00  0.00    +0.000 NA
ATOM     19  C   UNL     1       2.597   3.708  18.278  0.00  0.00    +0.000 C 
BRANCH  15  21
ATOM     20  C   UNL     1       2.239   2.860  21.602  0.00  0.00    +0.000 C 
ATOM     21  C   UNL     1       3.378   2.925  20.590  0.00  0.00    +0.000 C 
ATOM     22  C   UNL     1       4.552   1.996  20.866  0.00  0.00    +0.000 C 
ENDBRANCH  15  21
ENDBRANCH   1  19
BRANCH   4  23
ATOM     23  C   UNL     1       5.538   6.273  16.618  0.00  0.00    +0.000 C 
ATOM     24  C   UNL     1       6.503   7.203  17.375  0.00  0.00    +0.000 C 
ATOM     25  C   UNL     1       6.366   5.218  15.859  0.00  0.00    +0.000 C 
ATOM     26  C   UNL     1       4.764   7.085  15.571  0.00  0.00    +0.000 C 
ENDBRANCH   4  23
TORSDOF 4
ENDMDL
