MODEL 1
REMARK VINA RESULT:      -7.9      0.000      0.000
REMARK  Name = 
REMARK  6 active torsions:
REMARK  status: ('A' for Active; 'I' for Inactive)
REMARK    1  A    between atoms: C_1  and  O_2
REMARK    2  A    between atoms: O_2  and  C_3
REMARK    3  A    between atoms: C_12  and  C_14
REMARK    4  A    between atoms: C_15  and  C_16
REMARK    5  A    between atoms: C_29  and  O_30
REMARK    6  A    between atoms: O_30  and  C_31
REMARK                            x       y       z     vdW  Elec       q    Type
REMARK                         _______ _______ _______ _____ _____    ______ ____
ROOT
ATOM      1  C   UNL     1      -0.724  12.405  19.587  0.00  0.00    +0.000 A 
ATOM      2  C   UNL     1       0.143  11.367  19.228  0.00  0.00    +0.000 A 
ATOM      3  C   UNL     1       0.382  10.284  20.057  0.00  0.00    +0.000 A 
ATOM      4  N   UNL     1       1.175   9.307  19.620  0.00  0.00    +0.000 NA
ATOM      5  C   UNL     1       1.371   8.235  20.398  0.00  0.00    +0.000 A 
ATOM      6  N   UNL     1       2.158   7.219  19.924  0.00  0.00    +0.000 N 
ATOM      7  C   UNL     1       2.391   6.005  20.702  0.00  0.00    +0.000 C 
ATOM      8  C   UNL     1       2.021   4.760  19.871  0.00  0.00    +0.000 C 
ATOM      9  N   UNL     1       2.647   4.781  18.538  0.00  0.00    +0.000 N 
ATOM     10  C   UNL     1       3.234   3.625  18.056  0.00  0.00    +0.000 C 
ATOM     11  O   UNL     1       3.262   2.577  18.698  0.00  0.00    +0.000 OA
ATOM     12  C   UNL     1       2.367   6.015  17.783  0.00  0.00    +0.000 C 
ATOM     13  C   UNL     1       2.759   7.271  18.590  0.00  0.00    +0.000 C 
ATOM     14  N   UNL     1       0.810   8.119  21.610  0.00  0.00    +0.000 NA
ATOM     15  C   UNL     1       0.031   9.116  22.049  0.00  0.00    +0.000 A 
ATOM     16  N   UNL     1      -0.551   8.910  23.307  0.00  0.00    +0.000 N 
ATOM     17  C   UNL     1      -0.243  10.256  21.300  0.00  0.00    +0.000 A 
ATOM     18  C   UNL     1      -1.077  11.325  21.705  0.00  0.00    +0.000 A 
ATOM     19  C   UNL     1      -1.316  12.413  20.860  0.00  0.00    +0.000 A 
ATOM     20  H   UNL     1      -0.175   8.035  23.668  0.00  0.00    +0.000 HD
ATOM     21  H   UNL     1      -0.369   9.683  23.934  0.00  0.00    +0.000 HD
ENDROOT
BRANCH   1  23
ATOM     22  C   UNL     1       0.041  14.412  18.621  0.00  0.00    +0.000 C 
ATOM     23  O   UNL     1      -1.005  13.447  18.732  0.00  0.00    +0.000 OA
ENDBRANCH   1  23
BRANCH  10  24
ATOM     24  C   UNL     1       3.887   3.685  16.720  0.00  0.00    +0.000 C 
ATOM     25  C   UNL     1       5.176   4.045  16.617  0.00  0.00    +0.000 C 
BRANCH  25  26
ATOM     26  C   UNL     1       5.832   4.190  15.318  0.00  0.00    +0.000 A 
ATOM     27  C   UNL     1       5.316   3.526  14.197  0.00  0.00    +0.000 A 
ATOM     28  C   UNL     1       5.942   3.645  12.954  0.00  0.00    +0.000 A 
ATOM     29  C   UNL     1       7.089   4.428  12.821  0.00  0.00    +0.000 A 
ATOM     30  C   UNL     1       7.607   5.094  13.932  0.00  0.00    +0.000 A 
ATOM     31  C   UNL     1       6.982   4.975  15.176  0.00  0.00    +0.000 A 
ENDBRANCH  25  26
ENDBRANCH  10  24
BRANCH  19  32
ATOM     32  O   UNL     1      -2.112  13.483  21.184  0.00  0.00    +0.000 OA
ATOM     33  C   UNL     1      -3.205  13.237  22.066  0.00  0.00    +0.000 C 
ENDBRANCH  19  32
TORSDOF 4
ENDMDL
MODEL 2
REMARK VINA RESULT:      -7.7      2.804     10.916
REMARK  Name = 
REMARK  6 active torsions:
REMARK  status: ('A' for Active; 'I' for Inactive)
REMARK    1  A    between atoms: C_1  and  O_2
REMARK    2  A    between atoms: O_2  and  C_3
REMARK    3  A    between atoms: C_12  and  C_14
REMARK    4  A    between atoms: C_15  and  C_16
REMARK    5  A    between atoms: C_29  and  O_30
REMARK    6  A    between atoms: O_30  and  C_31
REMARK                            x       y       z     vdW  Elec       q    Type
REMARK                         _______ _______ _______ _____ _____    ______ ____
ROOT
ATOM      1  C   UNL     1       2.898   3.612  20.412  0.00  0.00    +0.000 A 
ATOM      2  C   UNL     1       2.351   4.875  20.663  0.00  0.00    +0.000 A 
ATOM      3  C   UNL     1       2.560   5.953  19.819  0.00  0.00    +0.000 A 
ATOM      4  N   UNL     1       1.957   7.108  20.096  0.00  0.00    +0.000 NA
ATOM      5  C   UNL     1       2.116   8.140  19.257  0.00  0.00    +0.000 A 
ATOM      6  N   UNL     1       1.463   9.311  19.530  0.00  0.00    +0.000 N 
ATOM      7  C   UNL     1       1.563  10.469  18.644  0.00  0.00    +0.000 C 
ATOM      8  C   UNL     1       0.157  10.946  18.230  0.00  0.00    +0.000 C 
ATOM      9  N   UNL     1      -0.730  11.122  19.393  0.00  0.00    +0.000 N 
ATOM     10  C   UNL     1      -1.520  12.254  19.468  0.00  0.00    +0.000 C 
ATOM     11  O   UNL     1      -1.509  13.130  18.603  0.00  0.00    +0.000 OA
ATOM     12  C   UNL     1      -0.816   9.923  20.245  0.00  0.00    +0.000 C 
ATOM     13  C   UNL     1       0.583   9.447  20.692  0.00  0.00    +0.000 C 
ATOM     14  N   UNL     1       2.878   8.054  18.156  0.00  0.00    +0.000 NA
ATOM     15  C   UNL     1       3.496   6.895  17.897  0.00  0.00    +0.000 A 
ATOM     16  N   UNL     1       4.243   6.867  16.713  0.00  0.00    +0.000 N 
ATOM     17  C   UNL     1       3.370   5.767  18.703  0.00  0.00    +0.000 A 
ATOM     18  C   UNL     1       3.980   4.513  18.464  0.00  0.00    +0.000 A 
ATOM     19  C   UNL     1       3.761   3.430  19.319  0.00  0.00    +0.000 A 
ATOM     20  H   UNL     1       4.215   7.807  16.322  0.00  0.00    +0.000 HD
ATOM     21  H   UNL     1       5.192   6.557  16.876  0.00  0.00    +0.000 HD
ENDROOT
BRANCH   1  23
ATOM     22  C   UNL     1       1.354   2.570  21.853  0.00  0.00    +0.000 C 
ATOM     23  O   UNL     1       2.635   2.531  21.221  0.00  0.00    +0.000 OA
ENDBRANCH   1  23
BRANCH  10  24
ATOM     24  C   UNL     1      -2.382  12.420  20.669  0.00  0.00    +0.000 C 
ATOM     25  C   UNL     1      -3.713  12.525  20.533  0.00  0.00    +0.000 C 
BRANCH  25  26
ATOM     26  C   UNL     1      -4.587  12.765  21.681  0.00  0.00    +0.000 A 
ATOM     27  C   UNL     1      -4.039  12.865  22.966  0.00  0.00    +0.000 A 
ATOM     28  C   UNL     1      -4.865  13.080  24.073  0.00  0.00    +0.000 A 
ATOM     29  C   UNL     1      -6.244  13.196  23.903  0.00  0.00    +0.000 A 
ATOM     30  C   UNL     1      -6.797  13.101  22.625  0.00  0.00    +0.000 A 
ATOM     31  C   UNL     1      -5.972  12.886  21.518  0.00  0.00    +0.000 A 
ENDBRANCH  25  26
ENDBRANCH  10  24
BRANCH  19  32
ATOM     32  O   UNL     1       4.317   2.186  19.149  0.00  0.00    +0.000 OA
ATOM     33  C   UNL     1       3.712   1.330  18.184  0.00  0.00    +0.000 C 
ENDBRANCH  19  32
TORSDOF 4
ENDMDL
MODEL 3
REMARK VINA RESULT:      -7.7      2.406     10.033
REMARK  Name = 
REMARK  6 active torsions:
REMARK  status: ('A' for Active; 'I' for Inactive)
REMARK    1  A    between atoms: C_1  and  O_2
REMARK    2  A    between atoms: O_2  and  C_3
REMARK    3  A    between atoms: C_12  and  C_14
REMARK    4  A    between atoms: C_15  and  C_16
REMARK    5  A    between atoms: C_29  and  O_30
REMARK    6  A    between atoms: O_30  and  C_31
REMARK                            x       y       z     vdW  Elec       q    Type
REMARK                         _______ _______ _______ _____ _____    ______ ____
ROOT
ATOM      1  C   UNL     1       5.093   6.319  16.742  0.00  0.00    +0.000 A 
ATOM      2  C   UNL     1       4.159   7.345  16.922  0.00  0.00    +0.000 A 
ATOM      3  C   UNL     1       3.307   7.386  18.013  0.00  0.00    +0.000 A 
ATOM      4  N   UNL     1       2.487   8.427  18.145  0.00  0.00    +0.000 NA
ATOM      5  C   UNL     1       1.694   8.495  19.223  0.00  0.00    +0.000 A 
ATOM      6  N   UNL     1       0.882   9.588  19.367  0.00  0.00    +0.000 N 
ATOM      7  C   UNL     1       0.014   9.748  20.532  0.00  0.00    +0.000 C 
ATOM      8  C   UNL     1       0.279  11.105  21.212  0.00  0.00    +0.000 C 
ATOM      9  N   UNL     1       0.248  12.219  20.249  0.00  0.00    +0.000 N 
ATOM     10  C   UNL     1      -0.430  13.377  20.586  0.00  0.00    +0.000 C 
ATOM     11  O   UNL     1      -1.016  13.515  21.659  0.00  0.00    +0.000 OA
ATOM     12  C   UNL     1       1.152  12.023  19.103  0.00  0.00    +0.000 C 
ATOM     13  C   UNL     1       0.881  10.680  18.393  0.00  0.00    +0.000 C 
ATOM     14  N   UNL     1       1.686   7.542  20.166  0.00  0.00    +0.000 NA
ATOM     15  C   UNL     1       2.501   6.490  20.014  0.00  0.00    +0.000 A 
ATOM     16  N   UNL     1       2.467   5.553  21.055  0.00  0.00    +0.000 N 
ATOM     17  C   UNL     1       3.370   6.347  18.937  0.00  0.00    +0.000 A 
ATOM     18  C   UNL     1       4.267   5.270  18.740  0.00  0.00    +0.000 A 
ATOM     19  C   UNL     1       5.126   5.238  17.638  0.00  0.00    +0.000 A 
ATOM     20  H   UNL     1       1.737   5.851  21.699  0.00  0.00    +0.000 HD
ATOM     21  H   UNL     1       2.301   4.616  20.710  0.00  0.00    +0.000 HD
ENDROOT
BRANCH   1  23
ATOM     22  C   UNL     1       5.647   5.403  14.644  0.00  0.00    +0.000 C 
ATOM     23  O   UNL     1       5.979   6.318  15.689  0.00  0.00    +0.000 OA
ENDBRANCH   1  23
BRANCH  10  24
ATOM     24  C   UNL     1      -0.472  14.473  19.580  0.00  0.00    +0.000 C 
ATOM     25  C   UNL     1       0.552  15.336  19.483  0.00  0.00    +0.000 C 
BRANCH  25  26
ATOM     26  C   UNL     1       0.515  16.470  18.561  0.00  0.00    +0.000 A 
ATOM     27  C   UNL     1      -0.707  17.085  18.259  0.00  0.00    +0.000 A 
ATOM     28  C   UNL     1      -0.756  18.161  17.368  0.00  0.00    +0.000 A 
ATOM     29  C   UNL     1       0.415  18.630  16.773  0.00  0.00    +0.000 A 
ATOM     30  C   UNL     1       1.636  18.025  17.072  0.00  0.00    +0.000 A 
ATOM     31  C   UNL     1       1.686  16.949  17.962  0.00  0.00    +0.000 A 
ENDBRANCH  25  26
ENDBRANCH  10  24
BRANCH  19  32
ATOM     32  O   UNL     1       6.021   4.230  17.385  0.00  0.00    +0.000 OA
ATOM     33  C   UNL     1       7.376   4.451  17.765  0.00  0.00    +0.000 C 
ENDBRANCH  19  32
TORSDOF 4
ENDMDL
MODEL 4
REMARK VINA RESULT:      -7.6      2.904     10.718
REMARK  Name = 
REMARK  6 active torsions:
REMARK  status: ('A' for Active; 'I' for Inactive)
REMARK    1  A    between atoms: C_1  and  O_2
REMARK    2  A    between atoms: O_2  and  C_3
REMARK    3  A    between atoms: C_12  and  C_14
REMARK    4  A    between atoms: C_15  and  C_16
REMARK    5  A    between atoms: C_29  and  O_30
REMARK    6  A    between atoms: O_30  and  C_31
REMARK                            x       y       z     vdW  Elec       q    Type
REMARK                         _______ _______ _______ _____ _____    ______ ____
ROOT
ATOM      1  C   UNL     1       3.019   3.493  20.817  0.00  0.00    +0.000 A 
ATOM      2  C   UNL     1       2.494   4.784  20.942  0.00  0.00    +0.000 A 
ATOM      3  C   UNL     1       2.681   5.756  19.973  0.00  0.00    +0.000 A 
ATOM      4  N   UNL     1       2.100   6.943  20.139  0.00  0.00    +0.000 NA
ATOM      5  C   UNL     1       2.238   7.870  19.182  0.00  0.00    +0.000 A 
ATOM      6  N   UNL     1       1.607   9.074  19.344  0.00  0.00    +0.000 N 
ATOM      7  C   UNL     1       1.685  10.122  18.328  0.00  0.00    +0.000 C 
ATOM      8  C   UNL     1       0.269  10.570  17.914  0.00  0.00    +0.000 C 
ATOM      9  N   UNL     1      -0.572  10.888  19.081  0.00  0.00    +0.000 N 
ATOM     10  C   UNL     1      -1.347  12.033  19.055  0.00  0.00    +0.000 C 
ATOM     11  O   UNL     1      -1.361  12.804  18.096  0.00  0.00    +0.000 OA
ATOM     12  C   UNL     1      -0.637   9.796  20.067  0.00  0.00    +0.000 C 
ATOM     13  C   UNL     1       0.773   9.354  20.514  0.00  0.00    +0.000 C 
ATOM     14  N   UNL     1       2.957   7.650  18.071  0.00  0.00    +0.000 NA
ATOM     15  C   UNL     1       3.553   6.460  17.924  0.00  0.00    +0.000 A 
ATOM     16  N   UNL     1       4.254   6.287  16.724  0.00  0.00    +0.000 N 
ATOM     17  C   UNL     1       3.447   5.433  18.858  0.00  0.00    +0.000 A 
ATOM     18  C   UNL     1       4.035   4.152  18.741  0.00  0.00    +0.000 A 
ATOM     19  C   UNL     1       3.838   3.175  19.722  0.00  0.00    +0.000 A 
ATOM     20  H   UNL     1       4.221   7.177  16.230  0.00  0.00    +0.000 HD
ATOM     21  H   UNL     1       5.206   5.985  16.887  0.00  0.00    +0.000 HD
ENDROOT
BRANCH   1  23
ATOM     22  C   UNL     1       1.392   2.317  22.048  0.00  0.00    +0.000 C 
ATOM     23  O   UNL     1       2.775   2.515  21.754  0.00  0.00    +0.000 OA
ENDBRANCH   1  23
BRANCH  10  24
ATOM     24  C   UNL     1      -2.161  12.346  20.260  0.00  0.00    +0.000 C 
ATOM     25  C   UNL     1      -1.654  13.123  21.231  0.00  0.00    +0.000 C 
BRANCH  25  26
ATOM     26  C   UNL     1      -2.392  13.391  22.465  0.00  0.00    +0.000 A 
ATOM     27  C   UNL     1      -2.206  14.605  23.140  0.00  0.00    +0.000 A 
ATOM     28  C   UNL     1      -2.895  14.868  24.327  0.00  0.00    +0.000 A 
ATOM     29  C   UNL     1      -3.774  13.919  24.849  0.00  0.00    +0.000 A 
ATOM     30  C   UNL     1      -3.967  12.710  24.180  0.00  0.00    +0.000 A 
ATOM     31  C   UNL     1      -3.278  12.446  22.994  0.00  0.00    +0.000 A 
ENDBRANCH  25  26
ENDBRANCH  10  24
BRANCH  19  32
ATOM     32  O   UNL     1       4.374   1.913  19.675  0.00  0.00    +0.000 OA
ATOM     33  C   UNL     1       3.935   1.058  18.623  0.00  0.00    +0.000 C 
ENDBRANCH  19  32
TORSDOF 4
ENDMDL
MODEL 5
REMARK VINA RESULT:      -7.3      0.629      1.073
REMARK  Name = 
REMARK  6 active torsions:
REMARK  status: ('A' for Active; 'I' for Inactive)
REMARK    1  A    between atoms: C_1  and  O_2
REMARK    2  A    between atoms: O_2  and  C_3
REMARK    3  A    between atoms: C_12  and  C_14
REMARK    4  A    between atoms: C_15  and  C_16
REMARK    5  A    between atoms: C_29  and  O_30
REMARK    6  A    between atoms: O_30  and  C_31
REMARK                            x       y       z     vdW  Elec       q    Type
REMARK                         _______ _______ _______ _____ _____    ______ ____
ROOT
ATOM      1  C   UNL     1      -0.832  12.731  20.004  0.00  0.00    +0.000 A 
ATOM      2  C   UNL     1       0.089  11.779  19.553  0.00  0.00    +0.000 A 
ATOM      3  C   UNL     1       0.327  10.599  20.238  0.00  0.00    +0.000 A 
ATOM      4  N   UNL     1       1.175   9.716  19.712  0.00  0.00    +0.000 NA
ATOM      5  C   UNL     1       1.373   8.552  20.346  0.00  0.00    +0.000 A 
ATOM      6  N   UNL     1       2.218   7.636  19.779  0.00  0.00    +0.000 N 
ATOM      7  C   UNL     1       2.459   6.333  20.395  0.00  0.00    +0.000 C 
ATOM      8  C   UNL     1       2.174   5.204  19.384  0.00  0.00    +0.000 C 
ATOM      9  N   UNL     1       2.861   5.428  18.101  0.00  0.00    +0.000 N 
ATOM     10  C   UNL     1       3.513   4.368  17.497  0.00  0.00    +0.000 C 
ATOM     11  O   UNL     1       3.548   3.242  17.991  0.00  0.00    +0.000 OA
ATOM     12  C   UNL     1       2.573   6.746  17.508  0.00  0.00    +0.000 C 
ATOM     13  C   UNL     1       2.880   7.889  18.498  0.00  0.00    +0.000 C 
ATOM     14  N   UNL     1       0.760   8.253  21.500  0.00  0.00    +0.000 NA
ATOM     15  C   UNL     1      -0.076   9.156  22.029  0.00  0.00    +0.000 A 
ATOM     16  N   UNL     1      -0.709   8.762  23.215  0.00  0.00    +0.000 N 
ATOM     17  C   UNL     1      -0.355  10.381  21.430  0.00  0.00    +0.000 A 
ATOM     18  C   UNL     1      -1.245  11.359  21.933  0.00  0.00    +0.000 A 
ATOM     19  C   UNL     1      -1.483  12.545  21.234  0.00  0.00    +0.000 A 
ATOM     20  H   UNL     1      -0.319   7.857  23.473  0.00  0.00    +0.000 HD
ATOM     21  H   UNL     1      -0.585   9.445  23.951  0.00  0.00    +0.000 HD
ENDROOT
BRANCH   1  23
ATOM     22  C   UNL     1      -0.073  14.264  18.385  0.00  0.00    +0.000 C 
ATOM     23  O   UNL     1      -1.110  13.872  19.286  0.00  0.00    +0.000 OA
ENDBRANCH   1  23
BRANCH  10  24
ATOM     24  C   UNL     1       4.226   4.632  16.218  0.00  0.00    +0.000 C 
ATOM     25  C   UNL     1       5.213   3.814  15.817  0.00  0.00    +0.000 C 
BRANCH  25  26
ATOM     26  C   UNL     1       5.988   4.081  14.606  0.00  0.00    +0.000 A 
ATOM     27  C   UNL     1       7.036   5.011  14.639  0.00  0.00    +0.000 A 
ATOM     28  C   UNL     1       7.775   5.285  13.485  0.00  0.00    +0.000 A 
ATOM     29  C   UNL     1       7.472   4.632  12.290  0.00  0.00    +0.000 A 
ATOM     30  C   UNL     1       6.432   3.702  12.251  0.00  0.00    +0.000 A 
ATOM     31  C   UNL     1       5.693   3.428  13.404  0.00  0.00    +0.000 A 
ENDBRANCH  25  26
ENDBRANCH  10  24
BRANCH  19  32
ATOM     32  O   UNL     1      -2.333  13.536  21.659  0.00  0.00    +0.000 OA
ATOM     33  C   UNL     1      -3.706  13.414  21.298  0.00  0.00    +0.000 C 
ENDBRANCH  19  32
TORSDOF 4
ENDMDL
MODEL 6
REMARK VINA RESULT:      -7.2      0.878      1.268
REMARK  Name = 
REMARK  6 active torsions:
REMARK  status: ('A' for Active; 'I' for Inactive)
REMARK    1  A    between atoms: C_1  and  O_2
REMARK    2  A    between atoms: O_2  and  C_3
REMARK    3  A    between atoms: C_12  and  C_14
REMARK    4  A    between atoms: C_15  and  C_16
REMARK    5  A    between atoms: C_29  and  O_30
REMARK    6  A    between atoms: O_30  and  C_31
REMARK                            x       y       z     vdW  Elec       q    Type
REMARK                         _______ _______ _______ _____ _____    ______ ____
ROOT
ATOM      1  C   UNL     1       0.197  12.255  19.105  0.00  0.00    +0.000 A 
ATOM      2  C   UNL     1       1.088  11.199  18.886  0.00  0.00    +0.000 A 
ATOM      3  C   UNL     1       1.049  10.032  19.630  0.00  0.00    +0.000 A 
ATOM      4  N   UNL     1       1.893   9.048  19.321  0.00  0.00    +0.000 NA
ATOM      5  C   UNL     1       1.828   7.899  20.007  0.00  0.00    +0.000 A 
ATOM      6  N   UNL     1       2.674   6.882  19.658  0.00  0.00    +0.000 N 
ATOM      7  C   UNL     1       2.639   5.589  20.338  0.00  0.00    +0.000 C 
ATOM      8  C   UNL     1       2.462   4.452  19.313  0.00  0.00    +0.000 C 
ATOM      9  N   UNL     1       3.429   4.552  18.207  0.00  0.00    +0.000 N 
ATOM     10  C   UNL     1       4.081   3.408  17.782  0.00  0.00    +0.000 C 
ATOM     11  O   UNL     1       3.891   2.306  18.295  0.00  0.00    +0.000 OA
ATOM     12  C   UNL     1       3.414   5.864  17.538  0.00  0.00    +0.000 C 
ATOM     13  C   UNL     1       3.618   7.014  18.547  0.00  0.00    +0.000 C 
ATOM     14  N   UNL     1       0.953   7.712  21.006  0.00  0.00    +0.000 NA
ATOM     15  C   UNL     1       0.122   8.714  21.321  0.00  0.00    +0.000 A 
ATOM     16  N   UNL     1      -0.789   8.434  22.348  0.00  0.00    +0.000 N 
ATOM     17  C   UNL     1       0.107   9.933  20.650  0.00  0.00    +0.000 A 
ATOM     18  C   UNL     1      -0.763  11.013  20.926  0.00  0.00    +0.000 A 
ATOM     19  C   UNL     1      -0.720  12.186  20.167  0.00  0.00    +0.000 A 
ATOM     20  H   UNL     1      -0.561   7.508  22.703  0.00  0.00    +0.000 HD
ATOM     21  H   UNL     1      -0.756   9.134  23.078  0.00  0.00    +0.000 HD
ENDROOT
BRANCH   1  23
ATOM     22  C   UNL     1       1.290  14.273  18.576  0.00  0.00    +0.000 C 
ATOM     23  O   UNL     1       0.200  13.385  18.320  0.00  0.00    +0.000 OA
ENDBRANCH   1  23
BRANCH  10  24
ATOM     24  C   UNL     1       5.075   3.546  16.684  0.00  0.00    +0.000 C 
ATOM     25  C   UNL     1       4.725   4.133  15.528  0.00  0.00    +0.000 C 
BRANCH  25  26
ATOM     26  C   UNL     1       5.650   4.219  14.399  0.00  0.00    +0.000 A 
ATOM     27  C   UNL     1       6.772   5.055  14.477  0.00  0.00    +0.000 A 
ATOM     28  C   UNL     1       7.655   5.157  13.399  0.00  0.00    +0.000 A 
ATOM     29  C   UNL     1       7.424   4.425  12.235  0.00  0.00    +0.000 A 
ATOM     30  C   UNL     1       6.311   3.588  12.151  0.00  0.00    +0.000 A 
ATOM     31  C   UNL     1       5.427   3.486  13.228  0.00  0.00    +0.000 A 
ENDBRANCH  25  26
ENDBRANCH  10  24
BRANCH  19  32
ATOM     32  O   UNL     1      -1.533  13.272  20.375  0.00  0.00    +0.000 OA
ATOM     33  C   UNL     1      -2.829  13.022  20.911  0.00  0.00    +0.000 C 
ENDBRANCH  19  32
TORSDOF 4
ENDMDL
MODEL 7
REMARK VINA RESULT:      -7.2      3.530      5.596
REMARK  Name = 
REMARK  6 active torsions:
REMARK  status: ('A' for Active; 'I' for Inactive)
REMARK    1  A    between atoms: C_1  and  O_2
REMARK    2  A    between atoms: O_2  and  C_3
REMARK    3  A    between atoms: C_12  and  C_14
REMARK    4  A    between atoms: C_15  and  C_16
REMARK    5  A    between atoms: C_29  and  O_30
REMARK    6  A    between atoms: O_30  and  C_31
REMARK                            x       y       z     vdW  Elec       q    Type
REMARK                         _______ _______ _______ _____ _____    ______ ____
ROOT
ATOM      1  C   UNL     1      -3.296  13.514  23.784  0.00  0.00    +0.000 A 
ATOM      2  C   UNL     1      -2.746  12.487  23.008  0.00  0.00    +0.000 A 
ATOM      3  C   UNL     1      -2.136  12.728  21.788  0.00  0.00    +0.000 A 
ATOM      4  N   UNL     1      -1.584  11.705  21.138  0.00  0.00    +0.000 NA
ATOM      5  C   UNL     1      -0.951  11.940  19.980  0.00  0.00    +0.000 A 
ATOM      6  N   UNL     1      -0.355  10.888  19.338  0.00  0.00    +0.000 N 
ATOM      7  C   UNL     1       0.381  11.072  18.088  0.00  0.00    +0.000 C 
ATOM      8  C   UNL     1       1.806  10.501  18.220  0.00  0.00    +0.000 C 
ATOM      9  N   UNL     1       1.803   9.126  18.749  0.00  0.00    +0.000 N 
ATOM     10  C   UNL     1       2.615   8.178  18.154  0.00  0.00    +0.000 C 
ATOM     11  O   UNL     1       3.339   8.433  17.193  0.00  0.00    +0.000 OA
ATOM     12  C   UNL     1       1.068   8.994  20.019  0.00  0.00    +0.000 C 
ATOM     13  C   UNL     1      -0.372   9.535  19.897  0.00  0.00    +0.000 C 
ATOM     14  N   UNL     1      -0.870  13.167  19.446  0.00  0.00    +0.000 NA
ATOM     15  C   UNL     1      -1.446  14.185  20.099  0.00  0.00    +0.000 A 
ATOM     16  N   UNL     1      -1.289  15.442  19.501  0.00  0.00    +0.000 N 
ATOM     17  C   UNL     1      -2.106  14.035  21.314  0.00  0.00    +0.000 A 
ATOM     18  C   UNL     1      -2.709  15.078  22.056  0.00  0.00    +0.000 A 
ATOM     19  C   UNL     1      -3.319  14.828  23.289  0.00  0.00    +0.000 A 
ATOM     20  H   UNL     1      -0.812  15.292  18.614  0.00  0.00    +0.000 HD
ATOM     21  H   UNL     1      -2.178  15.909  19.374  0.00  0.00    +0.000 HD
ENDROOT
BRANCH   1  23
ATOM     22  C   UNL     1      -4.927  12.344  25.016  0.00  0.00    +0.000 C 
ATOM     23  O   UNL     1      -3.844  13.275  25.024  0.00  0.00    +0.000 OA
ENDBRANCH   1  23
BRANCH  10  24
ATOM     24  C   UNL     1       2.566   6.791  18.690  0.00  0.00    +0.000 C 
ATOM     25  C   UNL     1       2.005   5.809  17.964  0.00  0.00    +0.000 C 
BRANCH  25  26
ATOM     26  C   UNL     1       1.870   4.450  18.486  0.00  0.00    +0.000 A 
ATOM     27  C   UNL     1       2.366   3.367  17.749  0.00  0.00    +0.000 A 
ATOM     28  C   UNL     1       2.230   2.061  18.230  0.00  0.00    +0.000 A 
ATOM     29  C   UNL     1       1.597   1.830  19.451  0.00  0.00    +0.000 A 
ATOM     30  C   UNL     1       1.103   2.904  20.192  0.00  0.00    +0.000 A 
ATOM     31  C   UNL     1       1.238   4.209  19.711  0.00  0.00    +0.000 A 
ENDBRANCH  25  26
ENDBRANCH  10  24
BRANCH  19  32
ATOM     32  O   UNL     1      -3.921  15.788  24.063  0.00  0.00    +0.000 OA
ATOM     33  C   UNL     1      -3.090  16.822  24.581  0.00  0.00    +0.000 C 
ENDBRANCH  19  32
TORSDOF 4
ENDMDL
MODEL 8
REMARK VINA RESULT:      -7.1      1.075      1.159
REMARK  Name = 
REMARK  6 active torsions:
REMARK  status: ('A' for Active; 'I' for Inactive)
REMARK    1  A    between atoms: C_1  and  O_2
REMARK    2  A    between atoms: O_2  and  C_3
REMARK    3  A    between atoms: C_12  and  C_14
REMARK    4  A    between atoms: C_15  and  C_16
REMARK    5  A    between atoms: C_29  and  O_30
REMARK    6  A    between atoms: O_30  and  C_31
REMARK                            x       y       z     vdW  Elec       q    Type
REMARK                         _______ _______ _______ _____ _____    ______ ____
ROOT
ATOM      1  C   UNL     1      -1.259  11.552  18.650  0.00  0.00    +0.000 A 
ATOM      2  C   UNL     1      -0.244  10.630  18.372  0.00  0.00    +0.000 A 
ATOM      3  C   UNL     1       0.266   9.779  19.337  0.00  0.00    +0.000 A 
ATOM      4  N   UNL     1       1.190   8.888  18.979  0.00  0.00    +0.000 NA
ATOM      5  C   UNL     1       1.653   8.030  19.898  0.00  0.00    +0.000 A 
ATOM      6  N   UNL     1       2.574   7.095  19.512  0.00  0.00    +0.000 N 
ATOM      7  C   UNL     1       3.101   6.105  20.451  0.00  0.00    +0.000 C 
ATOM      8  C   UNL     1       2.904   4.683  19.891  0.00  0.00    +0.000 C 
ATOM      9  N   UNL     1       3.398   4.561  18.509  0.00  0.00    +0.000 N 
ATOM     10  C   UNL     1       4.151   3.454  18.162  0.00  0.00    +0.000 C 
ATOM     11  O   UNL     1       4.433   2.564  18.965  0.00  0.00    +0.000 OA
ATOM     12  C   UNL     1       2.826   5.565  17.596  0.00  0.00    +0.000 C 
ATOM     13  C   UNL     1       3.039   6.998  18.127  0.00  0.00    +0.000 C 
ATOM     14  N   UNL     1       1.230   8.049  21.171  0.00  0.00    +0.000 NA
ATOM     15  C   UNL     1       0.315   8.961  21.524  0.00  0.00    +0.000 A 
ATOM     16  N   UNL     1      -0.107   8.898  22.858  0.00  0.00    +0.000 N 
ATOM     17  C   UNL     1      -0.234   9.877  20.632  0.00  0.00    +0.000 A 
ATOM     18  C   UNL     1      -1.218  10.844  20.946  0.00  0.00    +0.000 A 
ATOM     19  C   UNL     1      -1.730  11.697  19.965  0.00  0.00    +0.000 A 
ATOM     20  H   UNL     1       0.457   8.184  23.315  0.00  0.00    +0.000 HD
ATOM     21  H   UNL     1      -0.023   9.794  23.321  0.00  0.00    +0.000 HD
ENDROOT
BRANCH   1  23
ATOM     22  C   UNL     1      -2.556  11.640  16.686  0.00  0.00    +0.000 C 
ATOM     23  O   UNL     1      -1.805  12.351  17.671  0.00  0.00    +0.000 OA
ENDBRANCH   1  23
BRANCH  10  24
ATOM     24  C   UNL     1       4.664   3.374  16.768  0.00  0.00    +0.000 C 
ATOM     25  C   UNL     1       5.581   4.256  16.337  0.00  0.00    +0.000 C 
BRANCH  25  26
ATOM     26  C   UNL     1       6.053   4.258  14.953  0.00  0.00    +0.000 A 
ATOM     27  C   UNL     1       5.379   3.504  13.984  0.00  0.00    +0.000 A 
ATOM     28  C   UNL     1       5.829   3.487  12.661  0.00  0.00    +0.000 A 
ATOM     29  C   UNL     1       6.957   4.224  12.297  0.00  0.00    +0.000 A 
ATOM     30  C   UNL     1       7.631   4.980  13.256  0.00  0.00    +0.000 A 
ATOM     31  C   UNL     1       7.182   4.997  14.579  0.00  0.00    +0.000 A 
ENDBRANCH  25  26
ENDBRANCH  10  24
BRANCH  19  32
ATOM     32  O   UNL     1      -2.685  12.655  20.196  0.00  0.00    +0.000 OA
ATOM     33  C   UNL     1      -2.442  13.574  21.257  0.00  0.00    +0.000 C 
ENDBRANCH  19  32
TORSDOF 4
ENDMDL
MODEL 9
REMARK VINA RESULT:      -7.1      3.523      6.362
REMARK  Name = 
REMARK  6 active torsions:
REMARK  status: ('A' for Active; 'I' for Inactive)
REMARK    1  A    between atoms: C_1  and  O_2
REMARK    2  A    between atoms: O_2  and  C_3
REMARK    3  A    between atoms: C_12  and  C_14
REMARK    4  A    between atoms: C_15  and  C_16
REMARK    5  A    between atoms: C_29  and  O_30
REMARK    6  A    between atoms: O_30  and  C_31
REMARK                            x       y       z     vdW  Elec       q    Type
REMARK                         _______ _______ _______ _____ _____    ______ ____
ROOT
ATOM      1  C   UNL     1      -5.934  13.034  23.026  0.00  0.00    +0.000 A 
ATOM      2  C   UNL     1      -5.070  12.398  22.127  0.00  0.00    +0.000 A 
ATOM      3  C   UNL     1      -4.096  13.088  21.425  0.00  0.00    +0.000 A 
ATOM      4  N   UNL     1      -3.274  12.402  20.632  0.00  0.00    +0.000 NA
ATOM      5  C   UNL     1      -2.299  13.057  19.988  0.00  0.00    +0.000 A 
ATOM      6  N   UNL     1      -1.437  12.338  19.205  0.00  0.00    +0.000 N 
ATOM      7  C   UNL     1      -0.330  12.978  18.497  0.00  0.00    +0.000 C 
ATOM      8  C   UNL     1       1.001  12.288  18.853  0.00  0.00    +0.000 C 
ATOM      9  N   UNL     1       0.921  10.825  18.700  0.00  0.00    +0.000 N 
ATOM     10  C   UNL     1       1.961  10.159  18.076  0.00  0.00    +0.000 C 
ATOM     11  O   UNL     1       2.952  10.740  17.635  0.00  0.00    +0.000 OA
ATOM     12  C   UNL     1      -0.196  10.222  19.446  0.00  0.00    +0.000 C 
ATOM     13  C   UNL     1      -1.542  10.883  19.081  0.00  0.00    +0.000 C 
ATOM     14  N   UNL     1      -2.134  14.383  20.100  0.00  0.00    +0.000 NA
ATOM     15  C   UNL     1      -2.978  15.065  20.884  0.00  0.00    +0.000 A 
ATOM     16  N   UNL     1      -2.723  16.440  20.983  0.00  0.00    +0.000 N 
ATOM     17  C   UNL     1      -4.005  14.464  21.604  0.00  0.00    +0.000 A 
ATOM     18  C   UNL     1      -4.908  15.134  22.464  0.00  0.00    +0.000 A 
ATOM     19  C   UNL     1      -5.886  14.430  23.172  0.00  0.00    +0.000 A 
ATOM     20  H   UNL     1      -1.957  16.646  20.344  0.00  0.00    +0.000 HD
ATOM     21  H   UNL     1      -3.545  16.989  20.771  0.00  0.00    +0.000 HD
ENDROOT
BRANCH   1  23
ATOM     22  C   UNL     1      -7.910  11.753  22.995  0.00  0.00    +0.000 C 
ATOM     23  O   UNL     1      -6.858  12.333  23.767  0.00  0.00    +0.000 OA
ENDBRANCH   1  23
BRANCH  10  24
ATOM     24  C   UNL     1       1.838   8.686  17.906  0.00  0.00    +0.000 C 
ATOM     25  C   UNL     1       2.896   7.892  18.136  0.00  0.00    +0.000 C 
BRANCH  25  26
ATOM     26  C   UNL     1       2.837   6.449  17.908  0.00  0.00    +0.000 A 
ATOM     27  C   UNL     1       3.977   5.765  17.466  0.00  0.00    +0.000 A 
ATOM     28  C   UNL     1       3.931   4.388  17.231  0.00  0.00    +0.000 A 
ATOM     29  C   UNL     1       2.743   3.685  17.435  0.00  0.00    +0.000 A 
ATOM     30  C   UNL     1       1.605   4.358  17.878  0.00  0.00    +0.000 A 
ATOM     31  C   UNL     1       1.651   5.735  18.113  0.00  0.00    +0.000 A 
ENDBRANCH  25  26
ENDBRANCH  10  24
BRANCH  19  32
ATOM     32  O   UNL     1      -6.793  15.011  24.023  0.00  0.00    +0.000 OA
ATOM     33  C   UNL     1      -7.816  15.810  23.437  0.00  0.00    +0.000 C 
ENDBRANCH  19  32
TORSDOF 4
ENDMDL
