MODEL 1
REMARK VINA RESULT:      -9.6      0.000      0.000
REMARK  Name = 
REMARK  5 active torsions:
REMARK  status: ('A' for Active; 'I' for Inactive)
REMARK    1  A    between atoms: C_1  and  C_2
REMARK    2  A    between atoms: C_4  and  N_5
REMARK    3  A    between atoms: N_5  and  C_6
REMARK    4  A    between atoms: C_19  and  C_20
REMARK    5  A    between atoms: C_20  and  C_21
REMARK                            x       y       z     vdW  Elec       q    Type
REMARK                         _______ _______ _______ _____ _____    ______ ____
ROOT
ATOM      1  C   UNL     1       7.954   6.768  18.510  0.00  0.00    +0.000 C 
ATOM      2  C   UNL     1       7.304   5.855  17.499  0.00  0.00    +0.000 A 
ATOM      3  C   UNL     1       6.326   4.850  18.018  0.00  0.00    +0.000 A 
ATOM      4  C   UNL     1       5.770   4.016  17.119  0.00  0.00    +0.000 A 
ATOM      5  N   UNL     1       6.134   4.180  15.761  0.00  0.00    +0.000 N 
ATOM      6  N   UNL     1       5.732   3.456  14.677  0.00  0.00    +0.000 NA
ATOM      7  C   UNL     1       6.415   4.036  13.673  0.00  0.00    +0.000 A 
ATOM      8  N   UNL     1       7.238   5.067  14.066  0.00  0.00    +0.000 NA
ATOM      9  C   UNL     1       7.054   5.151  15.363  0.00  0.00    +0.000 A 
ATOM     10  N   UNL     1       7.644   5.996  16.254  0.00  0.00    +0.000 NA
ENDROOT
BRANCH   7  11
ATOM     11  C   UNL     1       6.340   3.604  12.226  0.00  0.00    +0.000 C 
ATOM     12  C   UNL     1       4.910   3.438  11.741  0.00  0.00    +0.000 C 
ATOM     13  F   UNL     1       6.961   4.493  11.394  0.00  0.00    +0.000 F 
ATOM     14  F   UNL     1       6.989   2.417  12.038  0.00  0.00    +0.000 F 
ENDBRANCH   7  11
BRANCH   4  15
ATOM     15  N   UNL     1       4.847   3.013  17.454  0.00  0.00    +0.000 N 
ATOM     16  H   UNL     1       5.245   2.400  18.177  0.00  0.00    +0.000 HD
BRANCH  15  17
ATOM     17  C   UNL     1       3.429   3.317  17.726  0.00  0.00    +0.000 C 
ATOM     18  C   UNL     1       3.115   3.157  19.236  0.00  0.00    +0.000 C 
ATOM     19  C   UNL     1       2.648   4.512  19.647  0.00  0.00    +0.000 A 
ATOM     20  C   UNL     1       2.239   4.919  20.905  0.00  0.00    +0.000 A 
ATOM     21  F   UNL     1       2.249   4.058  21.930  0.00  0.00    +0.000 F 
ATOM     22  C   UNL     1       1.807   6.229  21.104  0.00  0.00    +0.000 A 
ATOM     23  C   UNL     1       1.784   7.127  20.027  0.00  0.00    +0.000 A 
ATOM     24  C   UNL     1       2.194   6.706  18.764  0.00  0.00    +0.000 A 
ATOM     25  F   UNL     1       2.160   7.559  17.733  0.00  0.00    +0.000 F 
ATOM     26  C   UNL     1       2.625   5.404  18.578  0.00  0.00    +0.000 A 
ATOM     27  C   UNL     1       3.088   4.773  17.309  0.00  0.00    +0.000 C 
ENDBRANCH  15  17
ENDBRANCH   4  15
TORSDOF 3
ENDMDL
MODEL 2
REMARK VINA RESULT:      -9.1      1.763      2.196
REMARK  Name = 
REMARK  5 active torsions:
REMARK  status: ('A' for Active; 'I' for Inactive)
REMARK    1  A    between atoms: C_1  and  C_2
REMARK    2  A    between atoms: C_4  and  N_5
REMARK    3  A    between atoms: N_5  and  C_6
REMARK    4  A    between atoms: C_19  and  C_20
REMARK    5  A    between atoms: C_20  and  C_21
REMARK                            x       y       z     vdW  Elec       q    Type
REMARK                         _______ _______ _______ _____ _____    ______ ____
ROOT
ATOM      1  C   UNL     1       8.010   6.741  18.635  0.00  0.00    +0.000 C 
ATOM      2  C   UNL     1       7.188   6.147  17.518  0.00  0.00    +0.000 A 
ATOM      3  C   UNL     1       5.711   6.058  17.730  0.00  0.00    +0.000 A 
ATOM      4  C   UNL     1       4.984   5.499  16.746  0.00  0.00    +0.000 A 
ATOM      5  N   UNL     1       5.671   5.073  15.584  0.00  0.00    +0.000 N 
ATOM      6  N   UNL     1       5.169   4.464  14.471  0.00  0.00    +0.000 NA
ATOM      7  C   UNL     1       6.273   4.268  13.727  0.00  0.00    +0.000 A 
ATOM      8  N   UNL     1       7.440   4.698  14.317  0.00  0.00    +0.000 NA
ATOM      9  C   UNL     1       7.056   5.199  15.467  0.00  0.00    +0.000 A 
ATOM     10  N   UNL     1       7.818   5.745  16.456  0.00  0.00    +0.000 NA
ENDROOT
BRANCH   7  11
ATOM     11  C   UNL     1       6.282   3.607  12.367  0.00  0.00    +0.000 C 
ATOM     12  C   UNL     1       4.882   3.399  11.812  0.00  0.00    +0.000 C 
ATOM     13  F   UNL     1       6.990   4.332  11.450  0.00  0.00    +0.000 F 
ATOM     14  F   UNL     1       6.898   2.389  12.422  0.00  0.00    +0.000 F 
ENDBRANCH   7  11
BRANCH   4  15
ATOM     15  N   UNL     1       3.591   5.334  16.804  0.00  0.00    +0.000 N 
ATOM     16  H   UNL     1       3.159   5.701  15.946  0.00  0.00    +0.000 HD
BRANCH  15  17
ATOM     17  C   UNL     1       2.972   4.058  17.214  0.00  0.00    +0.000 C 
ATOM     18  C   UNL     1       3.956   3.224  18.073  0.00  0.00    +0.000 C 
ATOM     19  C   UNL     1       3.242   3.059  19.371  0.00  0.00    +0.000 A 
ATOM     20  C   UNL     1       3.683   2.387  20.499  0.00  0.00    +0.000 A 
ATOM     21  F   UNL     1       4.887   1.802  20.509  0.00  0.00    +0.000 F 
ATOM     22  C   UNL     1       2.865   2.311  21.625  0.00  0.00    +0.000 A 
ATOM     23  C   UNL     1       1.598   2.911  21.609  0.00  0.00    +0.000 A 
ATOM     24  C   UNL     1       1.162   3.582  20.468  0.00  0.00    +0.000 A 
ATOM     25  F   UNL     1      -0.052   4.143  20.448  0.00  0.00    +0.000 F 
ATOM     26  C   UNL     1       1.984   3.654  19.356  0.00  0.00    +0.000 A 
ATOM     27  C   UNL     1       1.689   4.314  18.052  0.00  0.00    +0.000 C 
ENDBRANCH  15  17
ENDBRANCH   4  15
TORSDOF 3
ENDMDL
MODEL 3
REMARK VINA RESULT:      -8.8      3.735      5.788
REMARK  Name = 
REMARK  5 active torsions:
REMARK  status: ('A' for Active; 'I' for Inactive)
REMARK    1  A    between atoms: C_1  and  C_2
REMARK    2  A    between atoms: C_4  and  N_5
REMARK    3  A    between atoms: N_5  and  C_6
REMARK    4  A    between atoms: C_19  and  C_20
REMARK    5  A    between atoms: C_20  and  C_21
REMARK                            x       y       z     vdW  Elec       q    Type
REMARK                         _______ _______ _______ _____ _____    ______ ____
ROOT
ATOM      1  C   UNL     1       1.105   2.065  19.095  0.00  0.00    +0.000 C 
ATOM      2  C   UNL     1       2.114   3.168  18.890  0.00  0.00    +0.000 A 
ATOM      3  C   UNL     1       1.594   4.489  18.420  0.00  0.00    +0.000 A 
ATOM      4  C   UNL     1       2.498   5.463  18.208  0.00  0.00    +0.000 A 
ATOM      5  N   UNL     1       3.856   5.166  18.476  0.00  0.00    +0.000 N 
ATOM      6  N   UNL     1       4.951   5.965  18.320  0.00  0.00    +0.000 NA
ATOM      7  C   UNL     1       5.956   5.153  18.694  0.00  0.00    +0.000 A 
ATOM      8  N   UNL     1       5.559   3.884  19.054  0.00  0.00    +0.000 NA
ATOM      9  C   UNL     1       4.254   3.903  18.918  0.00  0.00    +0.000 A 
ATOM     10  N   UNL     1       3.361   2.895  19.124  0.00  0.00    +0.000 NA
ENDROOT
BRANCH   7  11
ATOM     11  C   UNL     1       7.416   5.547  18.704  0.00  0.00    +0.000 C 
ATOM     12  C   UNL     1       7.669   6.861  17.984  0.00  0.00    +0.000 C 
ATOM     13  F   UNL     1       7.905   5.667  19.975  0.00  0.00    +0.000 F 
ATOM     14  F   UNL     1       8.183   4.586  18.109  0.00  0.00    +0.000 F 
ENDBRANCH   7  11
BRANCH   4  15
ATOM     15  N   UNL     1       2.166   6.750  17.755  0.00  0.00    +0.000 N 
ATOM     16  H   UNL     1       1.192   6.762  17.423  0.00  0.00    +0.000 HD
BRANCH  15  17
ATOM     17  C   UNL     1       2.483   7.960  18.537  0.00  0.00    +0.000 C 
ATOM     18  C   UNL     1       1.747   9.194  17.958  0.00  0.00    +0.000 C 
ATOM     19  C   UNL     1       0.897   9.664  19.090  0.00  0.00    +0.000 A 
ATOM     20  C   UNL     1       0.033  10.746  19.105  0.00  0.00    +0.000 A 
ATOM     21  F   UNL     1      -0.126  11.499  18.010  0.00  0.00    +0.000 F 
ATOM     22  C   UNL     1      -0.668  11.057  20.268  0.00  0.00    +0.000 A 
ATOM     23  C   UNL     1      -0.491  10.276  21.419  0.00  0.00    +0.000 A 
ATOM     24  C   UNL     1       0.384   9.192  21.395  0.00  0.00    +0.000 A 
ATOM     25  F   UNL     1       0.563   8.454  22.497  0.00  0.00    +0.000 F 
ATOM     26  C   UNL     1       1.073   8.890  20.233  0.00  0.00    +0.000 A 
ATOM     27  C   UNL     1       2.051   7.785  20.019  0.00  0.00    +0.000 C 
ENDBRANCH  15  17
ENDBRANCH   4  15
TORSDOF 3
ENDMDL
MODEL 4
REMARK VINA RESULT:      -8.7      3.246      5.500
REMARK  Name = 
REMARK  5 active torsions:
REMARK  status: ('A' for Active; 'I' for Inactive)
REMARK    1  A    between atoms: C_1  and  C_2
REMARK    2  A    between atoms: C_4  and  N_5
REMARK    3  A    between atoms: N_5  and  C_6
REMARK    4  A    between atoms: C_19  and  C_20
REMARK    5  A    between atoms: C_20  and  C_21
REMARK                            x       y       z     vdW  Elec       q    Type
REMARK                         _______ _______ _______ _____ _____    ______ ____
ROOT
ATOM      1  C   UNL     1       1.612   2.768  21.322  0.00  0.00    +0.000 C 
ATOM      2  C   UNL     1       2.445   3.599  20.378  0.00  0.00    +0.000 A 
ATOM      3  C   UNL     1       1.785   4.786  19.751  0.00  0.00    +0.000 A 
ATOM      4  C   UNL     1       2.520   5.508  18.885  0.00  0.00    +0.000 A 
ATOM      5  N   UNL     1       3.858   5.104  18.665  0.00  0.00    +0.000 N 
ATOM      6  N   UNL     1       4.788   5.650  17.829  0.00  0.00    +0.000 NA
ATOM      7  C   UNL     1       5.849   4.843  18.011  0.00  0.00    +0.000 A 
ATOM      8  N   UNL     1       5.633   3.810  18.896  0.00  0.00    +0.000 NA
ATOM      9  C   UNL     1       4.396   3.982  19.299  0.00  0.00    +0.000 A 
ATOM     10  N   UNL     1       3.669   3.224  20.166  0.00  0.00    +0.000 NA
ENDROOT
BRANCH   7  11
ATOM     11  C   UNL     1       7.175   5.001  17.302  0.00  0.00    +0.000 C 
ATOM     12  C   UNL     1       7.078   4.707  15.814  0.00  0.00    +0.000 C 
ATOM     13  F   UNL     1       7.685   6.261  17.445  0.00  0.00    +0.000 F 
ATOM     14  F   UNL     1       8.115   4.166  17.836  0.00  0.00    +0.000 F 
ENDBRANCH   7  11
BRANCH   4  15
ATOM     15  N   UNL     1       2.037   6.639  18.208  0.00  0.00    +0.000 N 
ATOM     16  H   UNL     1       1.044   6.507  17.971  0.00  0.00    +0.000 HD
BRANCH  15  17
ATOM     17  C   UNL     1       2.296   8.009  18.692  0.00  0.00    +0.000 C 
ATOM     18  C   UNL     1       1.380   9.028  17.967  0.00  0.00    +0.000 C 
ATOM     19  C   UNL     1       0.597   9.651  19.073  0.00  0.00    +0.000 A 
ATOM     20  C   UNL     1      -0.372  10.634  18.972  0.00  0.00    +0.000 A 
ATOM     21  F   UNL     1      -0.715  11.125  17.775  0.00  0.00    +0.000 F 
ATOM     22  C   UNL     1      -0.988  11.121  20.123  0.00  0.00    +0.000 A 
ATOM     23  C   UNL     1      -0.619  10.617  21.378  0.00  0.00    +0.000 A 
ATOM     24  C   UNL     1       0.361   9.630  21.469  0.00  0.00    +0.000 A 
ATOM     25  F   UNL     1       0.723   9.158  22.668  0.00  0.00    +0.000 F 
ATOM     26  C   UNL     1       0.963   9.151  20.319  0.00  0.00    +0.000 A 
ATOM     27  C   UNL     1       2.029   8.113  20.218  0.00  0.00    +0.000 C 
ENDBRANCH  15  17
ENDBRANCH   4  15
TORSDOF 3
ENDMDL
MODEL 5
REMARK VINA RESULT:      -8.4      3.650      5.722
REMARK  Name = 
REMARK  5 active torsions:
REMARK  status: ('A' for Active; 'I' for Inactive)
REMARK    1  A    between atoms: C_1  and  C_2
REMARK    2  A    between atoms: C_4  and  N_5
REMARK    3  A    between atoms: N_5  and  C_6
REMARK    4  A    between atoms: C_19  and  C_20
REMARK    5  A    between atoms: C_20  and  C_21
REMARK                            x       y       z     vdW  Elec       q    Type
REMARK                         _______ _______ _______ _____ _____    ______ ____
ROOT
ATOM      1  C   UNL     1       1.568   2.591  21.430  0.00  0.00    +0.000 C 
ATOM      2  C   UNL     1       2.198   3.659  20.570  0.00  0.00    +0.000 A 
ATOM      3  C   UNL     1       1.922   5.082  20.938  0.00  0.00    +0.000 A 
ATOM      4  C   UNL     1       2.459   6.033  20.151  0.00  0.00    +0.000 A 
ATOM      5  N   UNL     1       3.263   5.609  19.065  0.00  0.00    +0.000 N 
ATOM      6  N   UNL     1       3.891   6.368  18.122  0.00  0.00    +0.000 NA
ATOM      7  C   UNL     1       4.467   5.436  17.340  0.00  0.00    +0.000 A 
ATOM      8  N   UNL     1       4.218   4.138  17.724  0.00  0.00    +0.000 NA
ATOM      9  C   UNL     1       3.472   4.255  18.797  0.00  0.00    +0.000 A 
ATOM     10  N   UNL     1       2.926   3.272  19.567  0.00  0.00    +0.000 NA
ENDROOT
BRANCH   7  11
ATOM     11  C   UNL     1       5.298   5.744  16.115  0.00  0.00    +0.000 C 
ATOM     12  C   UNL     1       6.777   5.887  16.435  0.00  0.00    +0.000 C 
ATOM     13  F   UNL     1       5.172   4.778  15.155  0.00  0.00    +0.000 F 
ATOM     14  F   UNL     1       4.881   6.901  15.522  0.00  0.00    +0.000 F 
ENDBRANCH   7  11
BRANCH   4  15
ATOM     15  N   UNL     1       2.279   7.410  20.360  0.00  0.00    +0.000 N 
ATOM     16  H   UNL     1       3.053   7.932  19.928  0.00  0.00    +0.000 HD
BRANCH  15  17
ATOM     17  C   UNL     1       0.983   8.073  20.122  0.00  0.00    +0.000 C 
ATOM     18  C   UNL     1       0.270   8.378  21.464  0.00  0.00    +0.000 C 
ATOM     19  C   UNL     1       0.116   9.861  21.455  0.00  0.00    +0.000 A 
ATOM     20  C   UNL     1      -0.464  10.656  22.429  0.00  0.00    +0.000 A 
ATOM     21  F   UNL     1      -0.954  10.106  23.546  0.00  0.00    +0.000 F 
ATOM     22  C   UNL     1      -0.545  12.034  22.241  0.00  0.00    +0.000 A 
ATOM     23  C   UNL     1      -0.044  12.609  21.064  0.00  0.00    +0.000 A 
ATOM     24  C   UNL     1       0.534  11.799  20.088  0.00  0.00    +0.000 A 
ATOM     25  F   UNL     1       1.001  12.346  18.959  0.00  0.00    +0.000 F 
ATOM     26  C   UNL     1       0.613  10.432  20.287  0.00  0.00    +0.000 A 
ATOM     27  C   UNL     1       1.182   9.411  19.360  0.00  0.00    +0.000 C 
ENDBRANCH  15  17
ENDBRANCH   4  15
TORSDOF 3
ENDMDL
MODEL 6
REMARK VINA RESULT:      -8.4      3.604      5.627
REMARK  Name = 
REMARK  5 active torsions:
REMARK  status: ('A' for Active; 'I' for Inactive)
REMARK    1  A    between atoms: C_1  and  C_2
REMARK    2  A    between atoms: C_4  and  N_5
REMARK    3  A    between atoms: N_5  and  C_6
REMARK    4  A    between atoms: C_19  and  C_20
REMARK    5  A    between atoms: C_20  and  C_21
REMARK                            x       y       z     vdW  Elec       q    Type
REMARK                         _______ _______ _______ _____ _____    ______ ____
ROOT
ATOM      1  C   UNL     1       1.511   2.568  21.319  0.00  0.00    +0.000 C 
ATOM      2  C   UNL     1       2.457   3.537  20.653  0.00  0.00    +0.000 A 
ATOM      3  C   UNL     1       2.082   4.984  20.679  0.00  0.00    +0.000 A 
ATOM      4  C   UNL     1       2.911   5.842  20.058  0.00  0.00    +0.000 A 
ATOM      5  N   UNL     1       4.078   5.310  19.460  0.00  0.00    +0.000 N 
ATOM      6  N   UNL     1       5.051   5.961  18.760  0.00  0.00    +0.000 NA
ATOM      7  C   UNL     1       5.878   4.957  18.413  0.00  0.00    +0.000 A 
ATOM      8  N   UNL     1       5.469   3.712  18.835  0.00  0.00    +0.000 NA
ATOM      9  C   UNL     1       4.353   3.941  19.487  0.00  0.00    +0.000 A 
ATOM     10  N   UNL     1       3.522   3.049  20.094  0.00  0.00    +0.000 NA
ENDROOT
BRANCH   7  11
ATOM     11  C   UNL     1       7.141   5.131  17.601  0.00  0.00    +0.000 C 
ATOM     12  C   UNL     1       6.891   5.036  16.105  0.00  0.00    +0.000 C 
ATOM     13  F   UNL     1       7.745   6.334  17.846  0.00  0.00    +0.000 F 
ATOM     14  F   UNL     1       8.068   4.185  17.935  0.00  0.00    +0.000 F 
ENDBRANCH   7  11
BRANCH   4  15
ATOM     15  N   UNL     1       2.688   7.227  19.986  0.00  0.00    +0.000 N 
ATOM     16  H   UNL     1       3.335   7.650  19.307  0.00  0.00    +0.000 HD
BRANCH  15  17
ATOM     17  C   UNL     1       1.331   7.794  19.862  0.00  0.00    +0.000 C 
ATOM     18  C   UNL     1       0.744   8.116  21.260  0.00  0.00    +0.000 C 
ATOM     19  C   UNL     1       0.489   9.585  21.207  0.00  0.00    +0.000 A 
ATOM     20  C   UNL     1      -0.038  10.387  22.206  0.00  0.00    +0.000 A 
ATOM     21  F   UNL     1      -0.369   9.860  23.391  0.00  0.00    +0.000 F 
ATOM     22  C   UNL     1      -0.233  11.746  21.972  0.00  0.00    +0.000 A 
ATOM     23  C   UNL     1       0.102  12.295  20.725  0.00  0.00    +0.000 A 
ATOM     24  C   UNL     1       0.628  11.479  19.726  0.00  0.00    +0.000 A 
ATOM     25  F   UNL     1       0.935  11.999  18.532  0.00  0.00    +0.000 F 
ATOM     26  C   UNL     1       0.821  10.130  19.970  0.00  0.00    +0.000 A 
ATOM     27  C   UNL     1       1.358   9.105  19.030  0.00  0.00    +0.000 C 
ENDBRANCH  15  17
ENDBRANCH   4  15
TORSDOF 3
ENDMDL
MODEL 7
REMARK VINA RESULT:      -8.4      3.582      5.982
REMARK  Name = 
REMARK  5 active torsions:
REMARK  status: ('A' for Active; 'I' for Inactive)
REMARK    1  A    between atoms: C_1  and  C_2
REMARK    2  A    between atoms: C_4  and  N_5
REMARK    3  A    between atoms: N_5  and  C_6
REMARK    4  A    between atoms: C_19  and  C_20
REMARK    5  A    between atoms: C_20  and  C_21
REMARK                            x       y       z     vdW  Elec       q    Type
REMARK                         _______ _______ _______ _____ _____    ______ ____
ROOT
ATOM      1  C   UNL     1       1.483   2.467  21.616  0.00  0.00    +0.000 C 
ATOM      2  C   UNL     1       2.277   3.444  20.784  0.00  0.00    +0.000 A 
ATOM      3  C   UNL     1       1.583   4.698  20.358  0.00  0.00    +0.000 A 
ATOM      4  C   UNL     1       2.283   5.553  19.590  0.00  0.00    +0.000 A 
ATOM      5  N   UNL     1       3.620   5.211  19.277  0.00  0.00    +0.000 N 
ATOM      6  N   UNL     1       4.517   5.891  18.506  0.00  0.00    +0.000 NA
ATOM      7  C   UNL     1       5.594   5.085  18.539  0.00  0.00    +0.000 A 
ATOM      8  N   UNL     1       5.418   3.929  19.266  0.00  0.00    +0.000 NA
ATOM      9  C   UNL     1       4.191   4.017  19.722  0.00  0.00    +0.000 A 
ATOM     10  N   UNL     1       3.500   3.126  20.486  0.00  0.00    +0.000 NA
ENDROOT
BRANCH   7  11
ATOM     11  C   UNL     1       6.897   5.370  17.826  0.00  0.00    +0.000 C 
ATOM     12  C   UNL     1       7.880   6.139  18.693  0.00  0.00    +0.000 C 
ATOM     13  F   UNL     1       7.516   4.222  17.414  0.00  0.00    +0.000 F 
ATOM     14  F   UNL     1       6.681   6.094  16.688  0.00  0.00    +0.000 F 
ENDBRANCH   7  11
BRANCH   4  15
ATOM     15  N   UNL     1       1.765   6.764  19.101  0.00  0.00    +0.000 N 
ATOM     16  H   UNL     1       0.753   6.669  18.937  0.00  0.00    +0.000 HD
BRANCH  15  17
ATOM     17  C   UNL     1       2.090   8.061  19.724  0.00  0.00    +0.000 C 
ATOM     18  C   UNL     1       1.424   9.224  18.946  0.00  0.00    +0.000 C 
ATOM     19  C   UNL     1       0.543   9.871  19.960  0.00  0.00    +0.000 A 
ATOM     20  C   UNL     1      -0.283  10.969  19.784  0.00  0.00    +0.000 A 
ATOM     21  F   UNL     1      -0.366  11.567  18.590  0.00  0.00    +0.000 F 
ATOM     22  C   UNL     1      -1.022  11.459  20.859  0.00  0.00    +0.000 A 
ATOM     23  C   UNL     1      -0.924  10.841  22.113  0.00  0.00    +0.000 A 
ATOM     24  C   UNL     1      -0.088   9.739  22.280  0.00  0.00    +0.000 A 
ATOM     25  F   UNL     1       0.016   9.157  23.481  0.00  0.00    +0.000 F 
ATOM     26  C   UNL     1       0.640   9.258  21.206  0.00  0.00    +0.000 A 
ATOM     27  C   UNL     1       1.587   8.106  21.193  0.00  0.00    +0.000 C 
ENDBRANCH  15  17
ENDBRANCH   4  15
TORSDOF 3
ENDMDL
MODEL 8
REMARK VINA RESULT:      -8.2      3.518      5.528
REMARK  Name = 
REMARK  5 active torsions:
REMARK  status: ('A' for Active; 'I' for Inactive)
REMARK    1  A    between atoms: C_1  and  C_2
REMARK    2  A    between atoms: C_4  and  N_5
REMARK    3  A    between atoms: N_5  and  C_6
REMARK    4  A    between atoms: C_19  and  C_20
REMARK    5  A    between atoms: C_20  and  C_21
REMARK                            x       y       z     vdW  Elec       q    Type
REMARK                         _______ _______ _______ _____ _____    ______ ____
ROOT
ATOM      1  C   UNL     1       6.543   5.127  14.817  0.00  0.00    +0.000 C 
ATOM      2  C   UNL     1       5.435   5.097  15.841  0.00  0.00    +0.000 A 
ATOM      3  C   UNL     1       5.068   6.394  16.487  0.00  0.00    +0.000 A 
ATOM      4  C   UNL     1       4.101   6.360  17.423  0.00  0.00    +0.000 A 
ATOM      5  N   UNL     1       3.495   5.110  17.694  0.00  0.00    +0.000 N 
ATOM      6  N   UNL     1       2.521   4.813  18.603  0.00  0.00    +0.000 NA
ATOM      7  C   UNL     1       2.369   3.486  18.439  0.00  0.00    +0.000 A 
ATOM      8  N   UNL     1       3.205   2.930  17.497  0.00  0.00    +0.000 NA
ATOM      9  C   UNL     1       3.898   3.946  17.038  0.00  0.00    +0.000 A 
ATOM     10  N   UNL     1       4.885   3.949  16.100  0.00  0.00    +0.000 NA
ENDROOT
BRANCH   7  11
ATOM     11  C   UNL     1       1.398   2.634  19.224  0.00  0.00    +0.000 C 
ATOM     12  C   UNL     1       1.049   3.239  20.573  0.00  0.00    +0.000 C 
ATOM     13  F   UNL     1       0.229   2.433  18.544  0.00  0.00    +0.000 F 
ATOM     14  F   UNL     1       1.911   1.387  19.441  0.00  0.00    +0.000 F 
ENDBRANCH   7  11
BRANCH   4  15
ATOM     15  N   UNL     1       3.657   7.492  18.126  0.00  0.00    +0.000 N 
ATOM     16  H   UNL     1       4.198   8.317  17.835  0.00  0.00    +0.000 HD
BRANCH  15  17
ATOM     17  C   UNL     1       2.223   7.810  18.268  0.00  0.00    +0.000 C 
ATOM     18  C   UNL     1       1.776   7.667  19.746  0.00  0.00    +0.000 C 
ATOM     19  C   UNL     1       1.287   9.030  20.102  0.00  0.00    +0.000 A 
ATOM     20  C   UNL     1       0.772   9.452  21.316  0.00  0.00    +0.000 A 
ATOM     21  F   UNL     1       0.682   8.600  22.344  0.00  0.00    +0.000 F 
ATOM     22  C   UNL     1       0.336  10.767  21.464  0.00  0.00    +0.000 A 
ATOM     23  C   UNL     1       0.417  11.655  20.382  0.00  0.00    +0.000 A 
ATOM     24  C   UNL     1       0.934  11.219  19.164  0.00  0.00    +0.000 A 
ATOM     25  F   UNL     1       0.999  12.063  18.127  0.00  0.00    +0.000 F 
ATOM     26  C   UNL     1       1.367   9.912  19.028  0.00  0.00    +0.000 A 
ATOM     27  C   UNL     1       1.936   9.266  17.810  0.00  0.00    +0.000 C 
ENDBRANCH  15  17
ENDBRANCH   4  15
TORSDOF 3
ENDMDL
MODEL 9
REMARK VINA RESULT:      -8.2      3.584      5.785
REMARK  Name = 
REMARK  5 active torsions:
REMARK  status: ('A' for Active; 'I' for Inactive)
REMARK    1  A    between atoms: C_1  and  C_2
REMARK    2  A    between atoms: C_4  and  N_5
REMARK    3  A    between atoms: N_5  and  C_6
REMARK    4  A    between atoms: C_19  and  C_20
REMARK    5  A    between atoms: C_20  and  C_21
REMARK                            x       y       z     vdW  Elec       q    Type
REMARK                         _______ _______ _______ _____ _____    ______ ____
ROOT
ATOM      1  C   UNL     1       2.290   2.868  21.719  0.00  0.00    +0.000 C 
ATOM      2  C   UNL     1       2.633   3.862  20.637  0.00  0.00    +0.000 A 
ATOM      3  C   UNL     1       1.805   5.104  20.563  0.00  0.00    +0.000 A 
ATOM      4  C   UNL     1       2.093   5.974  19.578  0.00  0.00    +0.000 A 
ATOM      5  N   UNL     1       3.170   5.657  18.717  0.00  0.00    +0.000 N 
ATOM      6  N   UNL     1       3.638   6.355  17.642  0.00  0.00    +0.000 NA
ATOM      7  C   UNL     1       4.637   5.569  17.200  0.00  0.00    +0.000 A 
ATOM      8  N   UNL     1       4.808   4.408  17.920  0.00  0.00    +0.000 NA
ATOM      9  C   UNL     1       3.896   4.472  18.861  0.00  0.00    +0.000 A 
ATOM     10  N   UNL     1       3.614   3.566  19.839  0.00  0.00    +0.000 NA
ENDROOT
BRANCH   7  11
ATOM     11  C   UNL     1       5.501   5.879  15.999  0.00  0.00    +0.000 C 
ATOM     12  C   UNL     1       5.682   4.678  15.085  0.00  0.00    +0.000 C 
ATOM     13  F   UNL     1       4.987   6.899  15.248  0.00  0.00    +0.000 F 
ATOM     14  F   UNL     1       6.740   6.302  16.388  0.00  0.00    +0.000 F 
ENDBRANCH   7  11
BRANCH   4  15
ATOM     15  N   UNL     1       1.397   7.176  19.372  0.00  0.00    +0.000 N 
ATOM     16  H   UNL     1       0.383   7.007  19.429  0.00  0.00    +0.000 HD
BRANCH  15  17
ATOM     17  C   UNL     1       1.773   8.425  20.062  0.00  0.00    +0.000 C 
ATOM     18  C   UNL     1       1.046   9.639  19.431  0.00  0.00    +0.000 C 
ATOM     19  C   UNL     1       0.252  10.204  20.560  0.00  0.00    +0.000 A 
ATOM     20  C   UNL     1      -0.584  11.307  20.536  0.00  0.00    +0.000 A 
ATOM     21  F   UNL     1      -0.766  11.993  19.401  0.00  0.00    +0.000 F 
ATOM     22  C   UNL     1      -1.232  11.711  21.701  0.00  0.00    +0.000 A 
ATOM     23  C   UNL     1      -1.031  11.001  22.894  0.00  0.00    +0.000 A 
ATOM     24  C   UNL     1      -0.184   9.895  22.908  0.00  0.00    +0.000 A 
ATOM     25  F   UNL     1       0.019   9.225  24.049  0.00  0.00    +0.000 F 
ATOM     26  C   UNL     1       0.452   9.500  21.744  0.00  0.00    +0.000 A 
ATOM     27  C   UNL     1       1.394   8.357  21.567  0.00  0.00    +0.000 C 
ENDBRANCH  15  17
ENDBRANCH   4  15
TORSDOF 3
ENDMDL
