MODEL 1
REMARK VINA RESULT:      -7.7      0.000      0.000
REMARK  Name = 
REMARK  5 active torsions:
REMARK  status: ('A' for Active; 'I' for Inactive)
REMARK    1  A    between atoms: N_3  and  C_4
REMARK    2  A    between atoms: C_4  and  C_5
REMARK    3  A    between atoms: C_5  and  N_6
REMARK    4  A    between atoms: C_9  and  N_10
REMARK    5  A    between atoms: N_18  and  C_19
REMARK                            x       y       z     vdW  Elec       q    Type
REMARK                         _______ _______ _______ _____ _____    ______ ____
ROOT
ATOM      1  C   UNL     1       7.557   6.540  17.654  0.00  0.00    +0.000 C 
ENDROOT
BRANCH   1   4
ATOM      2  O   UNL     1       5.904   4.621  18.752  0.00  0.00    +0.000 OA
ATOM      3  C   UNL     1       5.358   5.581  18.213  0.00  0.00    +0.000 C 
ATOM      4  N   UNL     1       6.098   6.558  17.590  0.00  0.00    +0.000 N 
ATOM      5  N   UNL     1       4.004   5.814  18.159  0.00  0.00    +0.000 N 
ATOM      6  H   UNL     1       5.632   7.358  17.189  0.00  0.00    +0.000 HD
ATOM      7  H   UNL     1       3.668   6.520  17.518  0.00  0.00    +0.000 HD
BRANCH   5   8
ATOM      8  C   UNL     1       3.000   5.053  18.812  0.00  0.00    +0.000 A 
ATOM      9  C   UNL     1       2.540   5.335  20.101  0.00  0.00    +0.000 A 
ATOM     10  C   UNL     1       1.526   4.569  20.684  0.00  0.00    +0.000 A 
ATOM     11  C   UNL     1       0.958   3.503  19.985  0.00  0.00    +0.000 A 
ATOM     12  C   UNL     1       1.410   3.204  18.701  0.00  0.00    +0.000 A 
ATOM     13  C   UNL     1       2.417   3.980  18.125  0.00  0.00    +0.000 A 
ATOM     14  F   UNL     1       2.839   3.674  16.888  0.00  0.00    +0.000 F 
ENDBRANCH   5   8
ENDBRANCH   1   4
BRANCH   1  15
ATOM     15  C   UNL     1       8.146   7.700  18.479  0.00  0.00    +0.000 C 
BRANCH  15  16
ATOM     16  N   UNL     1       8.159   8.956  17.709  0.00  0.00    +0.000 N 
ATOM     17  C   UNL     1       8.718  10.041  18.432  0.00  0.00    +0.000 A 
ATOM     18  C   UNL     1       8.801  11.291  17.811  0.00  0.00    +0.000 A 
ATOM     19  C   UNL     1       9.373  12.390  18.462  0.00  0.00    +0.000 A 
ATOM     20  C   UNL     1       9.799  12.117  19.762  0.00  0.00    +0.000 A 
ATOM     21  N   UNL     1       9.718  10.913  20.367  0.00  0.00    +0.000 NA
ATOM     22  N   UNL     1       9.185   9.871  19.686  0.00  0.00    +0.000 NA
ATOM     23  H   UNL     1       7.235   9.232  17.387  0.00  0.00    +0.000 HD
BRANCH  19  24
ATOM     24  N   UNL     1       9.504  13.641  17.893  0.00  0.00    +0.000 N 
ATOM     25  C   UNL     1      10.732  14.202  17.338  0.00  0.00    +0.000 C 
ATOM     26  C   UNL     1      10.710  15.651  17.809  0.00  0.00    +0.000 C 
ATOM     27  C   UNL     1       9.234  16.006  17.778  0.00  0.00    +0.000 C 
ATOM     28  C   UNL     1       8.533  14.709  18.179  0.00  0.00    +0.000 C 
ENDBRANCH  19  24
ENDBRANCH  15  16
ENDBRANCH   1  15
TORSDOF 5
ENDMDL
MODEL 2
REMARK VINA RESULT:      -7.6      3.181     10.408
REMARK  Name = 
REMARK  5 active torsions:
REMARK  status: ('A' for Active; 'I' for Inactive)
REMARK    1  A    between atoms: N_3  and  C_4
REMARK    2  A    between atoms: C_4  and  C_5
REMARK    3  A    between atoms: C_5  and  N_6
REMARK    4  A    between atoms: C_9  and  N_10
REMARK    5  A    between atoms: N_18  and  C_19
REMARK                            x       y       z     vdW  Elec       q    Type
REMARK                         _______ _______ _______ _____ _____    ______ ____
ROOT
ATOM      1  C   UNL     1       8.070   8.344  18.172  0.00  0.00    +0.000 C 
ENDROOT
BRANCH   1   4
ATOM      2  O   UNL     1       9.525  10.147  19.671  0.00  0.00    +0.000 OA
ATOM      3  C   UNL     1       9.076  10.551  18.602  0.00  0.00    +0.000 C 
ATOM      4  N   UNL     1       8.291   9.742  17.814  0.00  0.00    +0.000 N 
ATOM      5  N   UNL     1       9.280  11.797  18.059  0.00  0.00    +0.000 N 
ATOM      6  H   UNL     1       7.966  10.079  16.920  0.00  0.00    +0.000 HD
ATOM      7  H   UNL     1       8.696  12.080  17.284  0.00  0.00    +0.000 HD
BRANCH   5   8
ATOM      8  C   UNL     1      10.138  12.802  18.576  0.00  0.00    +0.000 A 
ATOM      9  C   UNL     1      10.023  13.318  19.870  0.00  0.00    +0.000 A 
ATOM     10  C   UNL     1      10.916  14.288  20.337  0.00  0.00    +0.000 A 
ATOM     11  C   UNL     1      11.939  14.758  19.513  0.00  0.00    +0.000 A 
ATOM     12  C   UNL     1      12.064  14.259  18.218  0.00  0.00    +0.000 A 
ATOM     13  C   UNL     1      11.172  13.286  17.764  0.00  0.00    +0.000 A 
ATOM     14  F   UNL     1      11.309  12.819  16.513  0.00  0.00    +0.000 F 
ENDBRANCH   5   8
ENDBRANCH   1   4
BRANCH   1  15
ATOM     15  C   UNL     1       7.578   7.482  16.993  0.00  0.00    +0.000 C 
BRANCH  15  16
ATOM     16  N   UNL     1       6.118   7.292  17.037  0.00  0.00    +0.000 N 
ATOM     17  C   UNL     1       5.734   6.130  17.754  0.00  0.00    +0.000 A 
ATOM     18  C   UNL     1       4.373   5.838  17.882  0.00  0.00    +0.000 A 
ATOM     19  C   UNL     1       3.933   4.724  18.606  0.00  0.00    +0.000 A 
ATOM     20  C   UNL     1       4.966   3.948  19.132  0.00  0.00    +0.000 A 
ATOM     21  N   UNL     1       6.283   4.224  19.009  0.00  0.00    +0.000 NA
ATOM     22  N   UNL     1       6.659   5.331  18.326  0.00  0.00    +0.000 NA
ATOM     23  H   UNL     1       5.697   7.248  16.113  0.00  0.00    +0.000 HD
BRANCH  19  24
ATOM     24  N   UNL     1       2.604   4.397  18.787  0.00  0.00    +0.000 N 
ATOM     25  C   UNL     1       1.794   4.731  19.955  0.00  0.00    +0.000 C 
ATOM     26  C   UNL     1       0.977   3.468  20.199  0.00  0.00    +0.000 C 
ATOM     27  C   UNL     1       0.714   2.946  18.797  0.00  0.00    +0.000 C 
ATOM     28  C   UNL     1       1.982   3.303  18.024  0.00  0.00    +0.000 C 
ENDBRANCH  19  24
ENDBRANCH  15  16
ENDBRANCH   1  15
TORSDOF 5
ENDMDL
MODEL 3
REMARK VINA RESULT:      -7.6      5.945      7.685
REMARK  Name = 
REMARK  5 active torsions:
REMARK  status: ('A' for Active; 'I' for Inactive)
REMARK    1  A    between atoms: N_3  and  C_4
REMARK    2  A    between atoms: C_4  and  C_5
REMARK    3  A    between atoms: C_5  and  N_6
REMARK    4  A    between atoms: C_9  and  N_10
REMARK    5  A    between atoms: N_18  and  C_19
REMARK                            x       y       z     vdW  Elec       q    Type
REMARK                         _______ _______ _______ _____ _____    ______ ____
ROOT
ATOM      1  C   UNL     1       2.107   3.283  21.536  0.00  0.00    +0.000 C 
ENDROOT
BRANCH   1   4
ATOM      2  O   UNL     1       1.377   5.048  19.544  0.00  0.00    +0.000 OA
ATOM      3  C   UNL     1       1.944   5.523  20.525  0.00  0.00    +0.000 C 
ATOM      4  N   UNL     1       2.394   4.714  21.542  0.00  0.00    +0.000 N 
ATOM      5  N   UNL     1       2.195   6.857  20.747  0.00  0.00    +0.000 N 
ATOM      6  H   UNL     1       2.821   5.128  22.358  0.00  0.00    +0.000 HD
ATOM      7  H   UNL     1       2.843   7.103  21.482  0.00  0.00    +0.000 HD
BRANCH   5   8
ATOM      8  C   UNL     1       1.744   7.935  19.942  0.00  0.00    +0.000 A 
ATOM      9  C   UNL     1       0.809   8.878  20.375  0.00  0.00    +0.000 A 
ATOM     10  C   UNL     1       0.424   9.939  19.549  0.00  0.00    +0.000 A 
ATOM     11  C   UNL     1       0.968  10.069  18.271  0.00  0.00    +0.000 A 
ATOM     12  C   UNL     1       1.897   9.133  17.820  0.00  0.00    +0.000 A 
ATOM     13  C   UNL     1       2.281   8.083  18.656  0.00  0.00    +0.000 A 
ATOM     14  F   UNL     1       3.176   7.192  18.202  0.00  0.00    +0.000 F 
ENDBRANCH   5   8
ENDBRANCH   1   4
BRANCH   1  15
ATOM     15  C   UNL     1       3.276   2.428  21.010  0.00  0.00    +0.000 C 
BRANCH  15  16
ATOM     16  N   UNL     1       3.411   2.541  19.548  0.00  0.00    +0.000 N 
ATOM     17  C   UNL     1       4.444   3.431  19.156  0.00  0.00    +0.000 A 
ATOM     18  C   UNL     1       4.686   3.620  17.792  0.00  0.00    +0.000 A 
ATOM     19  C   UNL     1       5.712   4.462  17.346  0.00  0.00    +0.000 A 
ATOM     20  C   UNL     1       6.413   5.092  18.374  0.00  0.00    +0.000 A 
ATOM     21  N   UNL     1       6.181   4.914  19.693  0.00  0.00    +0.000 NA
ATOM     22  N   UNL     1       5.198   4.067  20.077  0.00  0.00    +0.000 NA
ATOM     23  H   UNL     1       2.551   2.833  19.093  0.00  0.00    +0.000 HD
BRANCH  19  24
ATOM     24  N   UNL     1       6.013   4.671  16.015  0.00  0.00    +0.000 N 
ATOM     25  C   UNL     1       5.430   5.700  15.159  0.00  0.00    +0.000 C 
ATOM     26  C   UNL     1       5.202   4.981  13.836  0.00  0.00    +0.000 C 
ATOM     27  C   UNL     1       6.379   4.024  13.751  0.00  0.00    +0.000 C 
ATOM     28  C   UNL     1       6.624   3.608  15.200  0.00  0.00    +0.000 C 
ENDBRANCH  19  24
ENDBRANCH  15  16
ENDBRANCH   1  15
TORSDOF 5
ENDMDL
MODEL 4
REMARK VINA RESULT:      -7.6      4.888      7.787
REMARK  Name = 
REMARK  5 active torsions:
REMARK  status: ('A' for Active; 'I' for Inactive)
REMARK    1  A    between atoms: N_3  and  C_4
REMARK    2  A    between atoms: C_4  and  C_5
REMARK    3  A    between atoms: C_5  and  N_6
REMARK    4  A    between atoms: C_9  and  N_10
REMARK    5  A    between atoms: N_18  and  C_19
REMARK                            x       y       z     vdW  Elec       q    Type
REMARK                         _______ _______ _______ _____ _____    ______ ____
ROOT
ATOM      1  C   UNL     1       7.706   5.869  18.721  0.00  0.00    +0.000 C 
ENDROOT
BRANCH   1   4
ATOM      2  O   UNL     1       5.130   5.763  19.707  0.00  0.00    +0.000 OA
ATOM      3  C   UNL     1       5.595   4.718  19.257  0.00  0.00    +0.000 C 
ATOM      4  N   UNL     1       6.889   4.661  18.795  0.00  0.00    +0.000 N 
ATOM      5  N   UNL     1       4.931   3.520  19.147  0.00  0.00    +0.000 N 
ATOM      6  H   UNL     1       7.239   3.804  18.392  0.00  0.00    +0.000 HD
ATOM      7  H   UNL     1       5.475   2.690  18.955  0.00  0.00    +0.000 HD
BRANCH   5   8
ATOM      8  C   UNL     1       3.557   3.299  19.424  0.00  0.00    +0.000 A 
ATOM      9  C   UNL     1       2.763   4.201  20.138  0.00  0.00    +0.000 A 
ATOM     10  C   UNL     1       1.406   3.945  20.357  0.00  0.00    +0.000 A 
ATOM     11  C   UNL     1       0.821   2.777  19.865  0.00  0.00    +0.000 A 
ATOM     12  C   UNL     1       1.600   1.864  19.157  0.00  0.00    +0.000 A 
ATOM     13  C   UNL     1       2.952   2.132  18.937  0.00  0.00    +0.000 A 
ATOM     14  F   UNL     1       3.684   1.239  18.254  0.00  0.00    +0.000 F 
ENDBRANCH   5   8
ENDBRANCH   1   4
BRANCH   1  15
ATOM     15  C   UNL     1       7.318   6.797  17.554  0.00  0.00    +0.000 C 
BRANCH  15  16
ATOM     16  N   UNL     1       7.721   6.228  16.256  0.00  0.00    +0.000 N 
ATOM     17  C   UNL     1       6.713   5.420  15.670  0.00  0.00    +0.000 A 
ATOM     18  C   UNL     1       6.964   4.829  14.429  0.00  0.00    +0.000 A 
ATOM     19  C   UNL     1       5.995   4.048  13.786  0.00  0.00    +0.000 A 
ATOM     20  C   UNL     1       4.814   3.903  14.513  0.00  0.00    +0.000 A 
ATOM     21  N   UNL     1       4.568   4.470  15.715  0.00  0.00    +0.000 NA
ATOM     22  N   UNL     1       5.524   5.243  16.282  0.00  0.00    +0.000 NA
ATOM     23  H   UNL     1       8.574   5.679  16.313  0.00  0.00    +0.000 HD
BRANCH  19  24
ATOM     24  N   UNL     1       6.175   3.457  12.552  0.00  0.00    +0.000 N 
ATOM     25  C   UNL     1       5.197   2.632  11.849  0.00  0.00    +0.000 C 
ATOM     26  C   UNL     1       6.034   1.502  11.263  0.00  0.00    +0.000 C 
ATOM     27  C   UNL     1       7.344   2.185  10.910  0.00  0.00    +0.000 C 
ATOM     28  C   UNL     1       7.524   3.231  12.009  0.00  0.00    +0.000 C 
ENDBRANCH  19  24
ENDBRANCH  15  16
ENDBRANCH   1  15
TORSDOF 5
ENDMDL
MODEL 5
REMARK VINA RESULT:      -7.6      5.506      8.148
REMARK  Name = 
REMARK  5 active torsions:
REMARK  status: ('A' for Active; 'I' for Inactive)
REMARK    1  A    between atoms: N_3  and  C_4
REMARK    2  A    between atoms: C_4  and  C_5
REMARK    3  A    between atoms: C_5  and  N_6
REMARK    4  A    between atoms: C_9  and  N_10
REMARK    5  A    between atoms: N_18  and  C_19
REMARK                            x       y       z     vdW  Elec       q    Type
REMARK                         _______ _______ _______ _____ _____    ______ ____
ROOT
ATOM      1  C   UNL     1       7.420   5.437  18.285  0.00  0.00    +0.000 C 
ENDROOT
BRANCH   1   4
ATOM      2  O   UNL     1       4.778   5.487  19.080  0.00  0.00    +0.000 OA
ATOM      3  C   UNL     1       5.349   4.400  19.123  0.00  0.00    +0.000 C 
ATOM      4  N   UNL     1       6.681   4.288  18.800  0.00  0.00    +0.000 N 
ATOM      5  N   UNL     1       4.777   3.200  19.475  0.00  0.00    +0.000 N 
ATOM      6  H   UNL     1       7.121   3.380  18.803  0.00  0.00    +0.000 HD
ATOM      7  H   UNL     1       5.390   2.421  19.671  0.00  0.00    +0.000 HD
BRANCH   5   8
ATOM      8  C   UNL     1       3.401   2.978  19.739  0.00  0.00    +0.000 A 
ATOM      9  C   UNL     1       2.885   2.803  21.026  0.00  0.00    +0.000 A 
ATOM     10  C   UNL     1       1.515   2.616  21.231  0.00  0.00    +0.000 A 
ATOM     11  C   UNL     1       0.637   2.599  20.146  0.00  0.00    +0.000 A 
ATOM     12  C   UNL     1       1.135   2.765  18.855  0.00  0.00    +0.000 A 
ATOM     13  C   UNL     1       2.504   2.959  18.663  0.00  0.00    +0.000 A 
ATOM     14  F   UNL     1       2.964   3.116  17.411  0.00  0.00    +0.000 F 
ENDBRANCH   5   8
ENDBRANCH   1   4
BRANCH   1  15
ATOM     15  C   UNL     1       6.754   6.092  17.059  0.00  0.00    +0.000 C 
BRANCH  15  16
ATOM     16  N   UNL     1       6.152   5.083  16.170  0.00  0.00    +0.000 N 
ATOM     17  C   UNL     1       6.778   5.023  14.899  0.00  0.00    +0.000 A 
ATOM     18  C   UNL     1       6.309   4.097  13.963  0.00  0.00    +0.000 A 
ATOM     19  C   UNL     1       6.909   3.969  12.704  0.00  0.00    +0.000 A 
ATOM     20  C   UNL     1       7.959   4.860  12.486  0.00  0.00    +0.000 A 
ATOM     21  N   UNL     1       8.414   5.759  13.386  0.00  0.00    +0.000 NA
ATOM     22  N   UNL     1       7.822   5.824  14.602  0.00  0.00    +0.000 NA
ATOM     23  H   UNL     1       5.156   5.227  16.027  0.00  0.00    +0.000 HD
BRANCH  19  24
ATOM     24  N   UNL     1       6.506   3.060  11.747  0.00  0.00    +0.000 N 
ATOM     25  C   UNL     1       5.129   2.652  11.482  0.00  0.00    +0.000 C 
ATOM     26  C   UNL     1       5.236   1.149  11.255  0.00  0.00    +0.000 C 
ATOM     27  C   UNL     1       6.576   0.997  10.556  0.00  0.00    +0.000 C 
ATOM     28  C   UNL     1       7.450   2.078  11.190  0.00  0.00    +0.000 C 
ENDBRANCH  19  24
ENDBRANCH  15  16
ENDBRANCH   1  15
TORSDOF 5
ENDMDL
MODEL 6
REMARK VINA RESULT:      -7.5      3.077     10.447
REMARK  Name = 
REMARK  5 active torsions:
REMARK  status: ('A' for Active; 'I' for Inactive)
REMARK    1  A    between atoms: N_3  and  C_4
REMARK    2  A    between atoms: C_4  and  C_5
REMARK    3  A    between atoms: C_5  and  N_6
REMARK    4  A    between atoms: C_9  and  N_10
REMARK    5  A    between atoms: N_18  and  C_19
REMARK                            x       y       z     vdW  Elec       q    Type
REMARK                         _______ _______ _______ _____ _____    ______ ____
ROOT
ATOM      1  C   UNL     1       8.146   8.038  18.213  0.00  0.00    +0.000 C 
ENDROOT
BRANCH   1   4
ATOM      2  O   UNL     1       9.315  10.017  19.741  0.00  0.00    +0.000 OA
ATOM      3  C   UNL     1       9.030  10.307  18.582  0.00  0.00    +0.000 C 
ATOM      4  N   UNL     1       8.394   9.404  17.762  0.00  0.00    +0.000 N 
ATOM      5  N   UNL     1       9.293  11.505  17.960  0.00  0.00    +0.000 N 
ATOM      6  H   UNL     1       8.206   9.647  16.801  0.00  0.00    +0.000 HD
ATOM      7  H   UNL     1       8.833  11.697  17.081  0.00  0.00    +0.000 HD
BRANCH   5   8
ATOM      8  C   UNL     1      10.042  12.581  18.506  0.00  0.00    +0.000 A 
ATOM      9  C   UNL     1       9.455  13.693  19.114  0.00  0.00    +0.000 A 
ATOM     10  C   UNL     1      10.242  14.711  19.661  0.00  0.00    +0.000 A 
ATOM     11  C   UNL     1      11.634  14.631  19.604  0.00  0.00    +0.000 A 
ATOM     12  C   UNL     1      12.236  13.531  18.995  0.00  0.00    +0.000 A 
ATOM     13  C   UNL     1      11.441  12.517  18.459  0.00  0.00    +0.000 A 
ATOM     14  F   UNL     1      12.040  11.468  17.876  0.00  0.00    +0.000 F 
ENDBRANCH   5   8
ENDBRANCH   1   4
BRANCH   1  15
ATOM     15  C   UNL     1       7.389   7.182  17.180  0.00  0.00    +0.000 C 
BRANCH  15  16
ATOM     16  N   UNL     1       6.807   5.979  17.799  0.00  0.00    +0.000 N 
ATOM     17  C   UNL     1       5.397   6.056  17.938  0.00  0.00    +0.000 A 
ATOM     18  C   UNL     1       4.717   4.973  18.502  0.00  0.00    +0.000 A 
ATOM     19  C   UNL     1       3.324   4.979  18.635  0.00  0.00    +0.000 A 
ATOM     20  C   UNL     1       2.719   6.155  18.194  0.00  0.00    +0.000 A 
ATOM     21  N   UNL     1       3.372   7.206  17.652  0.00  0.00    +0.000 NA
ATOM     22  N   UNL     1       4.717   7.142  17.515  0.00  0.00    +0.000 NA
ATOM     23  H   UNL     1       7.205   5.771  18.710  0.00  0.00    +0.000 HD
BRANCH  19  24
ATOM     24  N   UNL     1       2.595   3.931  19.162  0.00  0.00    +0.000 N 
ATOM     25  C   UNL     1       2.325   2.659  18.496  0.00  0.00    +0.000 C 
ATOM     26  C   UNL     1       0.869   2.375  18.844  0.00  0.00    +0.000 C 
ATOM     27  C   UNL     1       0.732   2.922  20.254  0.00  0.00    +0.000 C 
ATOM     28  C   UNL     1       1.646   4.147  20.266  0.00  0.00    +0.000 C 
ENDBRANCH  19  24
ENDBRANCH  15  16
ENDBRANCH   1  15
TORSDOF 5
ENDMDL
MODEL 7
REMARK VINA RESULT:      -7.4      3.154     10.533
REMARK  Name = 
REMARK  5 active torsions:
REMARK  status: ('A' for Active; 'I' for Inactive)
REMARK    1  A    between atoms: N_3  and  C_4
REMARK    2  A    between atoms: C_4  and  C_5
REMARK    3  A    between atoms: C_5  and  N_6
REMARK    4  A    between atoms: C_9  and  N_10
REMARK    5  A    between atoms: N_18  and  C_19
REMARK                            x       y       z     vdW  Elec       q    Type
REMARK                         _______ _______ _______ _____ _____    ______ ____
ROOT
ATOM      1  C   UNL     1       8.020   7.931  17.912  0.00  0.00    +0.000 C 
ENDROOT
BRANCH   1   4
ATOM      2  O   UNL     1       9.318   9.692  19.594  0.00  0.00    +0.000 OA
ATOM      3  C   UNL     1       8.904  10.145  18.530  0.00  0.00    +0.000 C 
ATOM      4  N   UNL     1       8.197   9.357  17.653  0.00  0.00    +0.000 N 
ATOM      5  N   UNL     1       9.080  11.431  18.076  0.00  0.00    +0.000 N 
ATOM      6  H   UNL     1       7.902   9.737  16.766  0.00  0.00    +0.000 HD
ATOM      7  H   UNL     1       8.523  11.739  17.290  0.00  0.00    +0.000 HD
BRANCH   5   8
ATOM      8  C   UNL     1       9.866  12.435  18.699  0.00  0.00    +0.000 A 
ATOM      9  C   UNL     1       9.327  13.447  19.497  0.00  0.00    +0.000 A 
ATOM     10  C   UNL     1      10.153  14.395  20.110  0.00  0.00    +0.000 A 
ATOM     11  C   UNL     1      11.536  14.344  19.931  0.00  0.00    +0.000 A 
ATOM     12  C   UNL     1      12.090  13.345  19.133  0.00  0.00    +0.000 A 
ATOM     13  C   UNL     1      11.257  12.400  18.531  0.00  0.00    +0.000 A 
ATOM     14  F   UNL     1      11.811  11.447  17.765  0.00  0.00    +0.000 F 
ENDBRANCH   5   8
ENDBRANCH   1   4
BRANCH   1  15
ATOM     15  C   UNL     1       6.816   7.320  17.170  0.00  0.00    +0.000 C 
BRANCH  15  16
ATOM     16  N   UNL     1       5.763   6.895  18.108  0.00  0.00    +0.000 N 
ATOM     17  C   UNL     1       5.216   5.626  17.786  0.00  0.00    +0.000 A 
ATOM     18  C   UNL     1       4.214   5.099  18.606  0.00  0.00    +0.000 A 
ATOM     19  C   UNL     1       3.659   3.838  18.356  0.00  0.00    +0.000 A 
ATOM     20  C   UNL     1       4.172   3.210  17.222  0.00  0.00    +0.000 A 
ATOM     21  N   UNL     1       5.138   3.717  16.425  0.00  0.00    +0.000 NA
ATOM     22  N   UNL     1       5.666   4.926  16.724  0.00  0.00    +0.000 NA
ATOM     23  H   UNL     1       5.000   7.562  18.176  0.00  0.00    +0.000 HD
BRANCH  19  24
ATOM     24  N   UNL     1       2.685   3.256  19.142  0.00  0.00    +0.000 N 
ATOM     25  C   UNL     1       1.243   3.421  18.978  0.00  0.00    +0.000 C 
ATOM     26  C   UNL     1       0.732   3.556  20.407  0.00  0.00    +0.000 C 
ATOM     27  C   UNL     1       1.645   2.631  21.193  0.00  0.00    +0.000 C 
ATOM     28  C   UNL     1       2.997   2.761  20.492  0.00  0.00    +0.000 C 
ENDBRANCH  19  24
ENDBRANCH  15  16
ENDBRANCH   1  15
TORSDOF 5
ENDMDL
MODEL 8
REMARK VINA RESULT:      -7.4      3.371     10.618
REMARK  Name = 
REMARK  5 active torsions:
REMARK  status: ('A' for Active; 'I' for Inactive)
REMARK    1  A    between atoms: N_3  and  C_4
REMARK    2  A    between atoms: C_4  and  C_5
REMARK    3  A    between atoms: C_5  and  N_6
REMARK    4  A    between atoms: C_9  and  N_10
REMARK    5  A    between atoms: N_18  and  C_19
REMARK                            x       y       z     vdW  Elec       q    Type
REMARK                         _______ _______ _______ _____ _____    ______ ____
ROOT
ATOM      1  C   UNL     1       8.071   9.564  18.221  0.00  0.00    +0.000 C 
ENDROOT
BRANCH   1   4
ATOM      2  O   UNL     1       8.384  12.236  17.609  0.00  0.00    +0.000 OA
ATOM      3  C   UNL     1       9.358  11.660  18.088  0.00  0.00    +0.000 C 
ATOM      4  N   UNL     1       9.314  10.315  18.372  0.00  0.00    +0.000 N 
ATOM      5  N   UNL     1      10.566  12.237  18.400  0.00  0.00    +0.000 N 
ATOM      6  H   UNL     1      10.110   9.869  18.803  0.00  0.00    +0.000 HD
ATOM      7  H   UNL     1      11.349  11.628  18.592  0.00  0.00    +0.000 HD
BRANCH   5   8
ATOM      8  C   UNL     1      10.871  13.622  18.334  0.00  0.00    +0.000 A 
ATOM      9  C   UNL     1      10.912  14.453  19.456  0.00  0.00    +0.000 A 
ATOM     10  C   UNL     1      11.247  15.805  19.335  0.00  0.00    +0.000 A 
ATOM     11  C   UNL     1      11.544  16.348  18.084  0.00  0.00    +0.000 A 
ATOM     12  C   UNL     1      11.501  15.534  16.954  0.00  0.00    +0.000 A 
ATOM     13  C   UNL     1      11.173  14.184  17.086  0.00  0.00    +0.000 A 
ATOM     14  F   UNL     1      11.136  13.419  15.984  0.00  0.00    +0.000 F 
ENDBRANCH   5   8
ENDBRANCH   1   4
BRANCH   1  15
ATOM     15  C   UNL     1       8.253   8.229  17.473  0.00  0.00    +0.000 C 
BRANCH  15  16
ATOM     16  N   UNL     1       6.963   7.694  17.003  0.00  0.00    +0.000 N 
ATOM     17  C   UNL     1       6.511   6.590  17.770  0.00  0.00    +0.000 A 
ATOM     18  C   UNL     1       5.291   5.995  17.436  0.00  0.00    +0.000 A 
ATOM     19  C   UNL     1       4.777   4.923  18.175  0.00  0.00    +0.000 A 
ATOM     20  C   UNL     1       5.606   4.509  19.218  0.00  0.00    +0.000 A 
ATOM     21  N   UNL     1       6.787   5.079  19.543  0.00  0.00    +0.000 NA
ATOM     22  N   UNL     1       7.227   6.133  18.818  0.00  0.00    +0.000 NA
ATOM     23  H   UNL     1       6.983   7.416  16.026  0.00  0.00    +0.000 HD
BRANCH  19  24
ATOM     24  N   UNL     1       3.570   4.310  17.909  0.00  0.00    +0.000 N 
ATOM     25  C   UNL     1       2.253   4.931  18.027  0.00  0.00    +0.000 C 
ATOM     26  C   UNL     1       1.394   3.837  18.648  0.00  0.00    +0.000 C 
ATOM     27  C   UNL     1       1.953   2.564  18.036  0.00  0.00    +0.000 C 
ATOM     28  C   UNL     1       3.449   2.844  17.901  0.00  0.00    +0.000 C 
ENDBRANCH  19  24
ENDBRANCH  15  16
ENDBRANCH   1  15
TORSDOF 5
ENDMDL
MODEL 9
REMARK VINA RESULT:      -7.3      6.531      8.390
REMARK  Name = 
REMARK  5 active torsions:
REMARK  status: ('A' for Active; 'I' for Inactive)
REMARK    1  A    between atoms: N_3  and  C_4
REMARK    2  A    between atoms: C_4  and  C_5
REMARK    3  A    between atoms: C_5  and  N_6
REMARK    4  A    between atoms: C_9  and  N_10
REMARK    5  A    between atoms: N_18  and  C_19
REMARK                            x       y       z     vdW  Elec       q    Type
REMARK                         _______ _______ _______ _____ _____    ______ ____
ROOT
ATOM      1  C   UNL     1       2.102   3.416  21.867  0.00  0.00    +0.000 C 
ENDROOT
BRANCH   1   4
ATOM      2  O   UNL     1       0.768   5.184  20.221  0.00  0.00    +0.000 OA
ATOM      3  C   UNL     1       1.824   5.574  20.714  0.00  0.00    +0.000 C 
ATOM      4  N   UNL     1       2.586   4.744  21.502  0.00  0.00    +0.000 N 
ATOM      5  N   UNL     1       2.370   6.828  20.567  0.00  0.00    +0.000 N 
ATOM      6  H   UNL     1       3.429   5.097  21.930  0.00  0.00    +0.000 HD
ATOM      7  H   UNL     1       3.332   6.963  20.845  0.00  0.00    +0.000 HD
BRANCH   5   8
ATOM      8  C   UNL     1       1.760   7.932  19.917  0.00  0.00    +0.000 A 
ATOM      9  C   UNL     1       1.979   8.249  18.574  0.00  0.00    +0.000 A 
ATOM     10  C   UNL     1       1.328   9.333  17.977  0.00  0.00    +0.000 A 
ATOM     11  C   UNL     1       0.446  10.120  18.719  0.00  0.00    +0.000 A 
ATOM     12  C   UNL     1       0.221   9.821  20.062  0.00  0.00    +0.000 A 
ATOM     13  C   UNL     1       0.870   8.733  20.646  0.00  0.00    +0.000 A 
ATOM     14  F   UNL     1       0.640   8.463  21.940  0.00  0.00    +0.000 F 
ENDBRANCH   5   8
ENDBRANCH   1   4
BRANCH   1  15
ATOM     15  C   UNL     1       2.884   2.274  21.190  0.00  0.00    +0.000 C 
BRANCH  15  16
ATOM     16  N   UNL     1       4.008   2.790  20.391  0.00  0.00    +0.000 N 
ATOM     17  C   UNL     1       3.648   3.069  19.048  0.00  0.00    +0.000 A 
ATOM     18  C   UNL     1       4.622   3.577  18.183  0.00  0.00    +0.000 A 
ATOM     19  C   UNL     1       4.318   3.902  16.855  0.00  0.00    +0.000 A 
ATOM     20  C   UNL     1       2.997   3.637  16.498  0.00  0.00    +0.000 A 
ATOM     21  N   UNL     1       2.053   3.143  17.329  0.00  0.00    +0.000 NA
ATOM     22  N   UNL     1       2.386   2.873  18.613  0.00  0.00    +0.000 NA
ATOM     23  H   UNL     1       4.808   2.163  20.381  0.00  0.00    +0.000 HD
BRANCH  19  24
ATOM     24  N   UNL     1       5.230   4.427  15.962  0.00  0.00    +0.000 N 
ATOM     25  C   UNL     1       5.105   4.414  14.507  0.00  0.00    +0.000 C 
ATOM     26  C   UNL     1       6.514   4.089  14.028  0.00  0.00    +0.000 C 
ATOM     27  C   UNL     1       7.399   4.791  15.044  0.00  0.00    +0.000 C 
ATOM     28  C   UNL     1       6.628   4.665  16.357  0.00  0.00    +0.000 C 
ENDBRANCH  19  24
ENDBRANCH  15  16
ENDBRANCH   1  15
TORSDOF 5
ENDMDL
