MODEL 1
REMARK VINA RESULT:      -6.0      0.000      0.000
REMARK  Name = 
REMARK  6 active torsions:
REMARK  status: ('A' for Active; 'I' for Inactive)
REMARK    1  A    between atoms: C_1  and  C_2
REMARK    2  A    between atoms: C_5  and  S_6
REMARK    3  A    between atoms: S_6  and  C_9
REMARK    4  A    between atoms: C_9  and  C_10
REMARK    5  A    between atoms: C_10  and  S_11
REMARK    6  A    between atoms: S_11  and  C_12
REMARK                            x       y       z     vdW  Elec       q    Type
REMARK                         _______ _______ _______ _____ _____    ______ ____
ROOT
ATOM      1  S   UNL     1       4.479   4.066  18.260  0.00  0.00    +0.000 S 
ATOM      2  O   UNL     1       5.422   3.646  19.399  0.00  0.00    +0.000 OA
ATOM      3  O   UNL     1       4.075   5.456  18.777  0.00  0.00    +0.000 OA
ENDROOT
BRANCH   1   8
ATOM      4  C   UNL     1       7.723   5.090  13.200  0.00  0.00    +0.000 C 
ATOM      5  C   UNL     1       6.939   4.818  14.448  0.00  0.00    +0.000 A 
ATOM      6  C   UNL     1       7.504   5.028  15.716  0.00  0.00    +0.000 A 
ATOM      7  C   UNL     1       6.753   4.782  16.869  0.00  0.00    +0.000 A 
ATOM      8  C   UNL     1       5.432   4.329  16.766  0.00  0.00    +0.000 A 
ATOM      9  C   UNL     1       4.867   4.113  15.504  0.00  0.00    +0.000 A 
ATOM     10  C   UNL     1       5.618   4.355  14.350  0.00  0.00    +0.000 A 
ENDBRANCH   1   8
BRANCH   1  11
ATOM     11  C   UNL     1       2.992   3.024  18.296  0.00  0.00    +0.000 C 
BRANCH  11  12
ATOM     12  C   UNL     1       1.724   3.849  18.512  0.00  0.00    +0.000 C 
BRANCH  12  13
ATOM     13  S   UNL     1       0.851   3.158  19.962  0.00  0.00    +0.000 S 
BRANCH  13  14
ATOM     14  C   UNL     1       1.977   3.768  21.228  0.00  0.00    +0.000 C 
ATOM     15  N   UNL     1       2.372   3.003  22.182  0.00  0.00    +0.000 NA
ATOM     16  N   UNL     1       2.368   5.128  21.209  0.00  0.00    +0.000 N 
ATOM     17  H   UNL     1       2.076   2.018  22.238  0.00  0.00    +0.000 HD
ATOM     18  H   UNL     1       2.028   5.755  20.464  0.00  0.00    +0.000 HD
ATOM     19  H   UNL     1       2.960   5.515  21.958  0.00  0.00    +0.000 HD
ENDBRANCH  13  14
ENDBRANCH  12  13
ENDBRANCH  11  12
ENDBRANCH   1  11
TORSDOF 5
ENDMDL
MODEL 2
REMARK VINA RESULT:      -5.9      4.139      6.354
REMARK  Name = 
REMARK  6 active torsions:
REMARK  status: ('A' for Active; 'I' for Inactive)
REMARK    1  A    between atoms: C_1  and  C_2
REMARK    2  A    between atoms: C_5  and  S_6
REMARK    3  A    between atoms: S_6  and  C_9
REMARK    4  A    between atoms: C_9  and  C_10
REMARK    5  A    between atoms: C_10  and  S_11
REMARK    6  A    between atoms: S_11  and  C_12
REMARK                            x       y       z     vdW  Elec       q    Type
REMARK                         _______ _______ _______ _____ _____    ______ ____
ROOT
ATOM      1  S   UNL     1       6.029   5.166  18.368  0.00  0.00    +0.000 S 
ATOM      2  O   UNL     1       5.812   6.650  18.033  0.00  0.00    +0.000 OA
ATOM      3  O   UNL     1       6.580   5.314  19.795  0.00  0.00    +0.000 OA
ENDROOT
BRANCH   1   8
ATOM      4  C   UNL     1       0.674   2.283  18.790  0.00  0.00    +0.000 C 
ATOM      5  C   UNL     1       1.987   3.000  18.709  0.00  0.00    +0.000 A 
ATOM      6  C   UNL     1       3.108   2.537  19.416  0.00  0.00    +0.000 A 
ATOM      7  C   UNL     1       4.328   3.211  19.318  0.00  0.00    +0.000 A 
ATOM      8  C   UNL     1       4.441   4.349  18.510  0.00  0.00    +0.000 A 
ATOM      9  C   UNL     1       3.325   4.817  17.808  0.00  0.00    +0.000 A 
ATOM     10  C   UNL     1       2.103   4.146  17.908  0.00  0.00    +0.000 A 
ENDBRANCH   1   8
BRANCH   1  11
ATOM     11  C   UNL     1       7.374   4.509  17.338  0.00  0.00    +0.000 C 
BRANCH  11  12
ATOM     12  C   UNL     1       7.267   4.987  15.890  0.00  0.00    +0.000 C 
BRANCH  12  13
ATOM     13  S   UNL     1       5.994   3.970  15.060  0.00  0.00    +0.000 S 
BRANCH  13  14
ATOM     14  C   UNL     1       6.636   4.109  13.384  0.00  0.00    +0.000 C 
ATOM     15  N   UNL     1       6.348   3.229  12.493  0.00  0.00    +0.000 NA
ATOM     16  N   UNL     1       7.528   5.163  13.071  0.00  0.00    +0.000 N 
ATOM     17  H   UNL     1       5.728   2.435  12.704  0.00  0.00    +0.000 HD
ATOM     18  H   UNL     1       7.787   5.854  13.790  0.00  0.00    +0.000 HD
ATOM     19  H   UNL     1       7.957   5.227  12.136  0.00  0.00    +0.000 HD
ENDBRANCH  13  14
ENDBRANCH  12  13
ENDBRANCH  11  12
ENDBRANCH   1  11
TORSDOF 5
ENDMDL
MODEL 3
REMARK VINA RESULT:      -5.9      1.833      2.034
REMARK  Name = 
REMARK  6 active torsions:
REMARK  status: ('A' for Active; 'I' for Inactive)
REMARK    1  A    between atoms: C_1  and  C_2
REMARK    2  A    between atoms: C_5  and  S_6
REMARK    3  A    between atoms: S_6  and  C_9
REMARK    4  A    between atoms: C_9  and  C_10
REMARK    5  A    between atoms: C_10  and  S_11
REMARK    6  A    between atoms: S_11  and  C_12
REMARK                            x       y       z     vdW  Elec       q    Type
REMARK                         _______ _______ _______ _____ _____    ______ ____
ROOT
ATOM      1  S   UNL     1       5.289   4.803  18.969  0.00  0.00    +0.000 S 
ATOM      2  O   UNL     1       5.228   3.434  19.664  0.00  0.00    +0.000 OA
ATOM      3  O   UNL     1       6.535   5.375  19.663  0.00  0.00    +0.000 OA
ENDROOT
BRANCH   1   8
ATOM      4  C   UNL     1       6.752   4.162  13.085  0.00  0.00    +0.000 C 
ATOM      5  C   UNL     1       6.408   4.301  14.536  0.00  0.00    +0.000 A 
ATOM      6  C   UNL     1       7.329   4.835  15.450  0.00  0.00    +0.000 A 
ATOM      7  C   UNL     1       6.986   4.970  16.798  0.00  0.00    +0.000 A 
ATOM      8  C   UNL     1       5.718   4.577  17.244  0.00  0.00    +0.000 A 
ATOM      9  C   UNL     1       4.798   4.038  16.338  0.00  0.00    +0.000 A 
ATOM     10  C   UNL     1       5.142   3.899  14.990  0.00  0.00    +0.000 A 
ENDBRANCH   1   8
BRANCH   1  11
ATOM     11  C   UNL     1       3.870   5.808  19.496  0.00  0.00    +0.000 C 
BRANCH  11  12
ATOM     12  C   UNL     1       2.733   4.945  20.041  0.00  0.00    +0.000 C 
BRANCH  12  13
ATOM     13  S   UNL     1       1.781   4.311  18.614  0.00  0.00    +0.000 S 
BRANCH  13  14
ATOM     14  C   UNL     1       1.977   2.555  18.960  0.00  0.00    +0.000 C 
ATOM     15  N   UNL     1       1.715   2.080  20.124  0.00  0.00    +0.000 NA
ATOM     16  N   UNL     1       2.498   1.707  17.954  0.00  0.00    +0.000 N 
ATOM     17  H   UNL     1       1.366   2.682  20.883  0.00  0.00    +0.000 HD
ATOM     18  H   UNL     1       2.741   2.088  17.028  0.00  0.00    +0.000 HD
ATOM     19  H   UNL     1       2.678   0.711  18.149  0.00  0.00    +0.000 HD
ENDBRANCH  13  14
ENDBRANCH  12  13
ENDBRANCH  11  12
ENDBRANCH   1  11
TORSDOF 5
ENDMDL
MODEL 4
REMARK VINA RESULT:      -5.9      4.533      6.462
REMARK  Name = 
REMARK  6 active torsions:
REMARK  status: ('A' for Active; 'I' for Inactive)
REMARK    1  A    between atoms: C_1  and  C_2
REMARK    2  A    between atoms: C_5  and  S_6
REMARK    3  A    between atoms: S_6  and  C_9
REMARK    4  A    between atoms: C_9  and  C_10
REMARK    5  A    between atoms: C_10  and  S_11
REMARK    6  A    between atoms: S_11  and  C_12
REMARK                            x       y       z     vdW  Elec       q    Type
REMARK                         _______ _______ _______ _____ _____    ______ ____
ROOT
ATOM      1  S   UNL     1       3.007   5.732  19.318  0.00  0.00    +0.000 S 
ATOM      2  O   UNL     1       2.583   5.056  20.631  0.00  0.00    +0.000 OA
ATOM      3  O   UNL     1       2.254   4.832  18.325  0.00  0.00    +0.000 OA
ENDROOT
BRANCH   1   8
ATOM      4  C   UNL     1       0.328  11.199  18.985  0.00  0.00    +0.000 C 
ATOM      5  C   UNL     1       1.005   9.866  19.080  0.00  0.00    +0.000 A 
ATOM      6  C   UNL     1       1.025   9.150  20.287  0.00  0.00    +0.000 A 
ATOM      7  C   UNL     1       1.650   7.901  20.353  0.00  0.00    +0.000 A 
ATOM      8  C   UNL     1       2.254   7.355  19.215  0.00  0.00    +0.000 A 
ATOM      9  C   UNL     1       2.241   8.067  18.010  0.00  0.00    +0.000 A 
ATOM     10  C   UNL     1       1.620   9.318  17.944  0.00  0.00    +0.000 A 
ENDBRANCH   1   8
BRANCH   1  11
ATOM     11  C   UNL     1       4.783   5.463  19.049  0.00  0.00    +0.000 C 
BRANCH  11  12
ATOM     12  C   UNL     1       5.077   4.044  18.565  0.00  0.00    +0.000 C 
BRANCH  12  13
ATOM     13  S   UNL     1       5.466   4.134  16.781  0.00  0.00    +0.000 S 
BRANCH  13  14
ATOM     14  C   UNL     1       7.132   4.798  16.935  0.00  0.00    +0.000 C 
ATOM     15  N   UNL     1       8.044   4.150  17.566  0.00  0.00    +0.000 NA
ATOM     16  N   UNL     1       7.414   6.085  16.418  0.00  0.00    +0.000 N 
ATOM     17  H   UNL     1       7.857   3.226  17.980  0.00  0.00    +0.000 HD
ATOM     18  H   UNL     1       6.678   6.624  15.939  0.00  0.00    +0.000 HD
ATOM     19  H   UNL     1       8.342   6.512  16.550  0.00  0.00    +0.000 HD
ENDBRANCH  13  14
ENDBRANCH  12  13
ENDBRANCH  11  12
ENDBRANCH   1  11
TORSDOF 5
ENDMDL
MODEL 5
REMARK VINA RESULT:      -5.8      2.269      2.726
REMARK  Name = 
REMARK  6 active torsions:
REMARK  status: ('A' for Active; 'I' for Inactive)
REMARK    1  A    between atoms: C_1  and  C_2
REMARK    2  A    between atoms: C_5  and  S_6
REMARK    3  A    between atoms: S_6  and  C_9
REMARK    4  A    between atoms: C_9  and  C_10
REMARK    5  A    between atoms: C_10  and  S_11
REMARK    6  A    between atoms: S_11  and  C_12
REMARK                            x       y       z     vdW  Elec       q    Type
REMARK                         _______ _______ _______ _____ _____    ______ ____
ROOT
ATOM      1  S   UNL     1       2.768   5.514  18.350  0.00  0.00    +0.000 S 
ATOM      2  O   UNL     1       2.152   6.917  18.232  0.00  0.00    +0.000 OA
ATOM      3  O   UNL     1       1.571   4.679  17.866  0.00  0.00    +0.000 OA
ENDROOT
BRANCH   1   8
ATOM      4  C   UNL     1       7.234   4.818  14.258  0.00  0.00    +0.000 C 
ATOM      5  C   UNL     1       6.120   4.983  15.246  0.00  0.00    +0.000 A 
ATOM      6  C   UNL     1       5.456   3.867  15.779  0.00  0.00    +0.000 A 
ATOM      7  C   UNL     1       4.428   4.039  16.710  0.00  0.00    +0.000 A 
ATOM      8  C   UNL     1       4.058   5.326  17.121  0.00  0.00    +0.000 A 
ATOM      9  C   UNL     1       4.713   6.441  16.588  0.00  0.00    +0.000 A 
ATOM     10  C   UNL     1       5.740   6.270  15.654  0.00  0.00    +0.000 A 
ENDBRANCH   1   8
BRANCH   1  11
ATOM     11  C   UNL     1       3.028   5.117  20.103  0.00  0.00    +0.000 C 
BRANCH  11  12
ATOM     12  C   UNL     1       1.872   4.301  20.679  0.00  0.00    +0.000 C 
BRANCH  12  13
ATOM     13  S   UNL     1       2.563   2.738  21.329  0.00  0.00    +0.000 S 
BRANCH  13  14
ATOM     14  C   UNL     1       3.312   2.157  19.798  0.00  0.00    +0.000 C 
ATOM     15  N   UNL     1       2.583   1.774  18.812  0.00  0.00    +0.000 NA
ATOM     16  N   UNL     1       4.721   2.052  19.714  0.00  0.00    +0.000 N 
ATOM     17  H   UNL     1       1.555   1.808  18.860  0.00  0.00    +0.000 HD
ATOM     18  H   UNL     1       5.310   2.328  20.514  0.00  0.00    +0.000 HD
ATOM     19  H   UNL     1       5.169   1.663  18.872  0.00  0.00    +0.000 HD
ENDBRANCH  13  14
ENDBRANCH  12  13
ENDBRANCH  11  12
ENDBRANCH   1  11
TORSDOF 5
ENDMDL
MODEL 6
REMARK VINA RESULT:      -5.8      3.210      5.461
REMARK  Name = 
REMARK  6 active torsions:
REMARK  status: ('A' for Active; 'I' for Inactive)
REMARK    1  A    between atoms: C_1  and  C_2
REMARK    2  A    between atoms: C_5  and  S_6
REMARK    3  A    between atoms: S_6  and  C_9
REMARK    4  A    between atoms: C_9  and  C_10
REMARK    5  A    between atoms: C_10  and  S_11
REMARK    6  A    between atoms: S_11  and  C_12
REMARK                            x       y       z     vdW  Elec       q    Type
REMARK                         _______ _______ _______ _____ _____    ______ ____
ROOT
ATOM      1  S   UNL     1       5.298   4.700  16.089  0.00  0.00    +0.000 S 
ATOM      2  O   UNL     1       6.548   3.857  16.383  0.00  0.00    +0.000 OA
ATOM      3  O   UNL     1       5.091   4.326  14.612  0.00  0.00    +0.000 OA
ENDROOT
BRANCH   1   8
ATOM      4  C   UNL     1       0.591   2.479  19.265  0.00  0.00    +0.000 C 
ATOM      5  C   UNL     1       1.733   3.028  18.465  0.00  0.00    +0.000 A 
ATOM      6  C   UNL     1       1.828   4.401  18.190  0.00  0.00    +0.000 A 
ATOM      7  C   UNL     1       2.907   4.898  17.454  0.00  0.00    +0.000 A 
ATOM      8  C   UNL     1       3.903   4.030  16.991  0.00  0.00    +0.000 A 
ATOM      9  C   UNL     1       3.810   2.659  17.258  0.00  0.00    +0.000 A 
ATOM     10  C   UNL     1       2.729   2.161  17.991  0.00  0.00    +0.000 A 
ENDBRANCH   1   8
BRANCH   1  11
ATOM     11  C   UNL     1       5.736   6.462  16.142  0.00  0.00    +0.000 C 
BRANCH  11  12
ATOM     12  C   UNL     1       5.889   6.968  17.577  0.00  0.00    +0.000 C 
BRANCH  12  13
ATOM     13  S   UNL     1       7.636   6.736  18.066  0.00  0.00    +0.000 S 
BRANCH  13  14
ATOM     14  C   UNL     1       7.350   5.595  19.428  0.00  0.00    +0.000 C 
ATOM     15  N   UNL     1       8.195   5.493  20.391  0.00  0.00    +0.000 NA
ATOM     16  N   UNL     1       6.216   4.748  19.395  0.00  0.00    +0.000 N 
ATOM     17  H   UNL     1       9.044   6.073  20.422  0.00  0.00    +0.000 HD
ATOM     18  H   UNL     1       5.551   4.803  18.609  0.00  0.00    +0.000 HD
ATOM     19  H   UNL     1       6.065   4.043  20.131  0.00  0.00    +0.000 HD
ENDBRANCH  13  14
ENDBRANCH  12  13
ENDBRANCH  11  12
ENDBRANCH   1  11
TORSDOF 5
ENDMDL
MODEL 7
REMARK VINA RESULT:      -5.8      4.327      6.215
REMARK  Name = 
REMARK  6 active torsions:
REMARK  status: ('A' for Active; 'I' for Inactive)
REMARK    1  A    between atoms: C_1  and  C_2
REMARK    2  A    between atoms: C_5  and  S_6
REMARK    3  A    between atoms: S_6  and  C_9
REMARK    4  A    between atoms: C_9  and  C_10
REMARK    5  A    between atoms: C_10  and  S_11
REMARK    6  A    between atoms: S_11  and  C_12
REMARK                            x       y       z     vdW  Elec       q    Type
REMARK                         _______ _______ _______ _____ _____    ______ ____
ROOT
ATOM      1  S   UNL     1       3.059   5.562  19.192  0.00  0.00    +0.000 S 
ATOM      2  O   UNL     1       4.523   5.641  19.652  0.00  0.00    +0.000 OA
ATOM      3  O   UNL     1       2.451   4.877  20.427  0.00  0.00    +0.000 OA
ENDROOT
BRANCH   1   8
ATOM      4  C   UNL     1       0.584  11.129  18.975  0.00  0.00    +0.000 C 
ATOM      5  C   UNL     1       1.211   9.770  19.042  0.00  0.00    +0.000 A 
ATOM      6  C   UNL     1       1.194   9.024  20.231  0.00  0.00    +0.000 A 
ATOM      7  C   UNL     1       1.772   7.752  20.271  0.00  0.00    +0.000 A 
ATOM      8  C   UNL     1       2.367   7.212  19.124  0.00  0.00    +0.000 A 
ATOM      9  C   UNL     1       2.392   7.955  17.938  0.00  0.00    +0.000 A 
ATOM     10  C   UNL     1       1.817   9.229  17.898  0.00  0.00    +0.000 A 
ENDBRANCH   1   8
BRANCH   1  11
ATOM     11  C   UNL     1       2.928   4.392  17.808  0.00  0.00    +0.000 C 
BRANCH  11  12
ATOM     12  C   UNL     1       4.215   3.592  17.614  0.00  0.00    +0.000 C 
BRANCH  12  13
ATOM     13  S   UNL     1       5.081   4.275  16.156  0.00  0.00    +0.000 S 
BRANCH  13  14
ATOM     14  C   UNL     1       6.700   4.480  16.917  0.00  0.00    +0.000 C 
ATOM     15  N   UNL     1       7.736   4.739  16.203  0.00  0.00    +0.000 NA
ATOM     16  N   UNL     1       6.839   4.279  18.312  0.00  0.00    +0.000 N 
ATOM     17  H   UNL     1       7.668   4.858  15.183  0.00  0.00    +0.000 HD
ATOM     18  H   UNL     1       6.017   4.040  18.886  0.00  0.00    +0.000 HD
ATOM     19  H   UNL     1       7.766   4.328  18.760  0.00  0.00    +0.000 HD
ENDBRANCH  13  14
ENDBRANCH  12  13
ENDBRANCH  11  12
ENDBRANCH   1  11
TORSDOF 5
ENDMDL
MODEL 8
REMARK VINA RESULT:      -5.8      4.182      6.236
REMARK  Name = 
REMARK  6 active torsions:
REMARK  status: ('A' for Active; 'I' for Inactive)
REMARK    1  A    between atoms: C_1  and  C_2
REMARK    2  A    between atoms: C_5  and  S_6
REMARK    3  A    between atoms: S_6  and  C_9
REMARK    4  A    between atoms: C_9  and  C_10
REMARK    5  A    between atoms: C_10  and  S_11
REMARK    6  A    between atoms: S_11  and  C_12
REMARK                            x       y       z     vdW  Elec       q    Type
REMARK                         _______ _______ _______ _____ _____    ______ ____
ROOT
ATOM      1  S   UNL     1       3.324   5.350  19.060  0.00  0.00    +0.000 S 
ATOM      2  O   UNL     1       4.793   5.537  19.470  0.00  0.00    +0.000 OA
ATOM      3  O   UNL     1       2.827   4.560  20.282  0.00  0.00    +0.000 OA
ENDROOT
BRANCH   1   8
ATOM      4  C   UNL     1       0.599  10.803  19.165  0.00  0.00    +0.000 C 
ATOM      5  C   UNL     1       1.249   9.454  19.126  0.00  0.00    +0.000 A 
ATOM      6  C   UNL     1       1.819   8.959  17.942  0.00  0.00    +0.000 A 
ATOM      7  C   UNL     1       2.434   7.704  17.928  0.00  0.00    +0.000 A 
ATOM      8  C   UNL     1       2.489   6.934  19.096  0.00  0.00    +0.000 A 
ATOM      9  C   UNL     1       1.918   7.420  20.278  0.00  0.00    +0.000 A 
ATOM     10  C   UNL     1       1.299   8.674  20.292  0.00  0.00    +0.000 A 
ENDBRANCH   1   8
BRANCH   1  11
ATOM     11  C   UNL     1       3.238   4.236  17.628  0.00  0.00    +0.000 C 
BRANCH  11  12
ATOM     12  C   UNL     1       4.558   3.500  17.399  0.00  0.00    +0.000 C 
BRANCH  12  13
ATOM     13  S   UNL     1       5.352   4.227  15.922  0.00  0.00    +0.000 S 
BRANCH  13  14
ATOM     14  C   UNL     1       6.787   4.934  16.749  0.00  0.00    +0.000 C 
ATOM     15  N   UNL     1       7.432   5.914  16.227  0.00  0.00    +0.000 NA
ATOM     16  N   UNL     1       7.248   4.349  17.953  0.00  0.00    +0.000 N 
ATOM     17  H   UNL     1       7.136   6.337  15.336  0.00  0.00    +0.000 HD
ATOM     18  H   UNL     1       6.754   3.541  18.360  0.00  0.00    +0.000 HD
ATOM     19  H   UNL     1       8.104   4.696  18.411  0.00  0.00    +0.000 HD
ENDBRANCH  13  14
ENDBRANCH  12  13
ENDBRANCH  11  12
ENDBRANCH   1  11
TORSDOF 5
ENDMDL
MODEL 9
REMARK VINA RESULT:      -5.7      2.217      2.800
REMARK  Name = 
REMARK  6 active torsions:
REMARK  status: ('A' for Active; 'I' for Inactive)
REMARK    1  A    between atoms: C_1  and  C_2
REMARK    2  A    between atoms: C_5  and  S_6
REMARK    3  A    between atoms: S_6  and  C_9
REMARK    4  A    between atoms: C_9  and  C_10
REMARK    5  A    between atoms: C_10  and  S_11
REMARK    6  A    between atoms: S_11  and  C_12
REMARK                            x       y       z     vdW  Elec       q    Type
REMARK                         _______ _______ _______ _____ _____    ______ ____
ROOT
ATOM      1  S   UNL     1       6.084   5.621  17.937  0.00  0.00    +0.000 S 
ATOM      2  O   UNL     1       6.788   4.619  18.866  0.00  0.00    +0.000 OA
ATOM      3  O   UNL     1       7.062   6.800  18.064  0.00  0.00    +0.000 OA
ENDROOT
BRANCH   1   8
ATOM      4  C   UNL     1       6.470   3.527  12.224  0.00  0.00    +0.000 C 
ATOM      5  C   UNL     1       6.356   4.056  13.621  0.00  0.00    +0.000 A 
ATOM      6  C   UNL     1       5.282   3.692  14.448  0.00  0.00    +0.000 A 
ATOM      7  C   UNL     1       5.200   4.185  15.753  0.00  0.00    +0.000 A 
ATOM      8  C   UNL     1       6.191   5.041  16.246  0.00  0.00    +0.000 A 
ATOM      9  C   UNL     1       7.261   5.412  15.424  0.00  0.00    +0.000 A 
ATOM     10  C   UNL     1       7.343   4.923  14.117  0.00  0.00    +0.000 A 
ENDBRANCH   1   8
BRANCH   1  11
ATOM     11  C   UNL     1       4.516   6.139  18.693  0.00  0.00    +0.000 C 
BRANCH  11  12
ATOM     12  C   UNL     1       3.965   5.079  19.646  0.00  0.00    +0.000 C 
BRANCH  12  13
ATOM     13  S   UNL     1       2.983   3.896  18.657  0.00  0.00    +0.000 S 
BRANCH  13  14
ATOM     14  C   UNL     1       3.951   2.422  19.022  0.00  0.00    +0.000 C 
ATOM     15  N   UNL     1       4.956   2.475  19.821  0.00  0.00    +0.000 NA
ATOM     16  N   UNL     1       3.641   1.210  18.360  0.00  0.00    +0.000 N 
ATOM     17  H   UNL     1       5.223   3.352  20.290  0.00  0.00    +0.000 HD
ATOM     18  H   UNL     1       2.856   1.169  17.694  0.00  0.00    +0.000 HD
ATOM     19  H   UNL     1       4.220   0.369  18.505  0.00  0.00    +0.000 HD
ENDBRANCH  13  14
ENDBRANCH  12  13
ENDBRANCH  11  12
ENDBRANCH   1  11
TORSDOF 5
ENDMDL
