MODEL 1
REMARK VINA RESULT:      -7.5      0.000      0.000
REMARK  Name = 
REMARK  4 active torsions:
REMARK  status: ('A' for Active; 'I' for Inactive)
REMARK    1  A    between atoms: N_1  and  C_2
REMARK    2  A    between atoms: C_2  and  C_3
REMARK    3  A    between atoms: C_3  and  O_4
REMARK    4  A    between atoms: C_3  and  C_5
REMARK                            x       y       z     vdW  Elec       q    Type
REMARK                         _______ _______ _______ _____ _____    ______ ____
ROOT
ATOM      1  C   UNL     1       5.477   5.128  16.477  0.00  0.00    +0.000 A 
ATOM      2  C   UNL     1       5.462   6.534  16.400  0.00  0.00    +0.000 A 
ATOM      3  C   UNL     1       4.512   7.305  17.092  0.00  0.00    +0.000 A 
ATOM      4  C   UNL     1       3.541   6.702  17.887  0.00  0.00    +0.000 A 
ATOM      5  C   UNL     1       3.534   5.323  17.977  0.00  0.00    +0.000 A 
ATOM      6  C   UNL     1       4.491   4.545  17.280  0.00  0.00    +0.000 A 
ATOM      7  C   UNL     1       4.246   3.068  17.561  0.00  0.00    +0.000 C 
ATOM      8  C   UNL     1       3.033   3.110  18.471  0.00  0.00    +0.000 A 
ATOM      9  C   UNL     1       2.351   2.048  19.041  0.00  0.00    +0.000 A 
ATOM     10  C   UNL     1       1.260   2.336  19.867  0.00  0.00    +0.000 A 
ATOM     11  C   UNL     1       0.872   3.665  20.108  0.00  0.00    +0.000 A 
ATOM     12  C   UNL     1       1.565   4.730  19.525  0.00  0.00    +0.000 A 
ATOM     13  C   UNL     1       2.645   4.443  18.706  0.00  0.00    +0.000 A 
ENDROOT
BRANCH   1  14
ATOM     14  C   UNL     1       6.482   4.271  15.731  0.00  0.00    +0.000 C 
BRANCH  14  15
ATOM     15  O   UNL     1       7.745   4.400  16.391  0.00  0.00    +0.000 OA
ATOM     16  H   UNL     1       8.423   4.112  15.756  0.00  0.00    +0.000 HD
ENDBRANCH  14  15
BRANCH  14  17
ATOM     17  C   UNL     1       6.639   4.594  14.216  0.00  0.00    +0.000 C 
BRANCH  17  18
ATOM     18  N   UNL     1       7.761   5.483  13.897  0.00  0.00    +0.000 NA
ATOM     19  H   UNL     1       7.803   5.629  12.888  0.00  0.00    +0.000 HD
ATOM     20  H   UNL     1       8.639   5.038  14.163  0.00  0.00    +0.000 HD
ENDBRANCH  17  18
ENDBRANCH  14  17
ENDBRANCH   1  14
TORSDOF 4
ENDMDL
MODEL 2
REMARK VINA RESULT:      -7.5      2.217      3.014
REMARK  Name = 
REMARK  4 active torsions:
REMARK  status: ('A' for Active; 'I' for Inactive)
REMARK    1  A    between atoms: N_1  and  C_2
REMARK    2  A    between atoms: C_2  and  C_3
REMARK    3  A    between atoms: C_3  and  O_4
REMARK    4  A    between atoms: C_3  and  C_5
REMARK                            x       y       z     vdW  Elec       q    Type
REMARK                         _______ _______ _______ _____ _____    ______ ____
ROOT
ATOM      1  C   UNL     1       6.027   5.606  17.456  0.00  0.00    +0.000 A 
ATOM      2  C   UNL     1       6.340   5.010  16.218  0.00  0.00    +0.000 A 
ATOM      3  C   UNL     1       5.520   4.026  15.640  0.00  0.00    +0.000 A 
ATOM      4  C   UNL     1       4.357   3.599  16.275  0.00  0.00    +0.000 A 
ATOM      5  C   UNL     1       4.029   4.167  17.492  0.00  0.00    +0.000 A 
ATOM      6  C   UNL     1       4.855   5.159  18.075  0.00  0.00    +0.000 A 
ATOM      7  C   UNL     1       4.255   5.602  19.403  0.00  0.00    +0.000 C 
ATOM      8  C   UNL     1       3.018   4.729  19.505  0.00  0.00    +0.000 A 
ATOM      9  C   UNL     1       2.078   4.688  20.522  0.00  0.00    +0.000 A 
ATOM     10  C   UNL     1       1.003   3.805  20.386  0.00  0.00    +0.000 A 
ATOM     11  C   UNL     1       0.884   2.987  19.250  0.00  0.00    +0.000 A 
ATOM     12  C   UNL     1       1.839   3.034  18.231  0.00  0.00    +0.000 A 
ATOM     13  C   UNL     1       2.905   3.908  18.367  0.00  0.00    +0.000 A 
ENDROOT
BRANCH   1  14
ATOM     14  C   UNL     1       6.901   6.660  18.109  0.00  0.00    +0.000 C 
BRANCH  14  15
ATOM     15  O   UNL     1       7.360   7.546  17.084  0.00  0.00    +0.000 OA
ATOM     16  H   UNL     1       7.672   8.351  17.529  0.00  0.00    +0.000 HD
ENDBRANCH  14  15
BRANCH  14  17
ATOM     17  C   UNL     1       8.113   6.113  18.919  0.00  0.00    +0.000 C 
BRANCH  17  18
ATOM     18  N   UNL     1       7.761   5.522  20.215  0.00  0.00    +0.000 NA
ATOM     19  H   UNL     1       8.609   5.378  20.763  0.00  0.00    +0.000 HD
ATOM     20  H   UNL     1       7.348   4.601  20.072  0.00  0.00    +0.000 HD
ENDBRANCH  17  18
ENDBRANCH  14  17
ENDBRANCH   1  14
TORSDOF 4
ENDMDL
MODEL 3
REMARK VINA RESULT:      -7.3      1.324      1.413
REMARK  Name = 
REMARK  4 active torsions:
REMARK  status: ('A' for Active; 'I' for Inactive)
REMARK    1  A    between atoms: N_1  and  C_2
REMARK    2  A    between atoms: C_2  and  C_3
REMARK    3  A    between atoms: C_3  and  O_4
REMARK    4  A    between atoms: C_3  and  C_5
REMARK                            x       y       z     vdW  Elec       q    Type
REMARK                         _______ _______ _______ _____ _____    ______ ____
ROOT
ATOM      1  C   UNL     1       5.371   6.011  17.433  0.00  0.00    +0.000 A 
ATOM      2  C   UNL     1       4.786   7.212  16.986  0.00  0.00    +0.000 A 
ATOM      3  C   UNL     1       3.508   7.617  17.408  0.00  0.00    +0.000 A 
ATOM      4  C   UNL     1       2.766   6.839  18.291  0.00  0.00    +0.000 A 
ATOM      5  C   UNL     1       3.317   5.655  18.743  0.00  0.00    +0.000 A 
ATOM      6  C   UNL     1       4.605   5.246  18.318  0.00  0.00    +0.000 A 
ATOM      7  C   UNL     1       4.954   3.914  18.969  0.00  0.00    +0.000 C 
ATOM      8  C   UNL     1       3.709   3.616  19.782  0.00  0.00    +0.000 A 
ATOM      9  C   UNL     1       3.450   2.516  20.583  0.00  0.00    +0.000 A 
ATOM     10  C   UNL     1       2.225   2.468  21.255  0.00  0.00    +0.000 A 
ATOM     11  C   UNL     1       1.289   3.507  21.120  0.00  0.00    +0.000 A 
ATOM     12  C   UNL     1       1.559   4.612  20.307  0.00  0.00    +0.000 A 
ATOM     13  C   UNL     1       2.772   4.657  19.640  0.00  0.00    +0.000 A 
ENDROOT
BRANCH   1  14
ATOM     14  C   UNL     1       6.743   5.544  16.983  0.00  0.00    +0.000 C 
BRANCH  14  15
ATOM     15  O   UNL     1       7.558   6.702  16.786  0.00  0.00    +0.000 OA
ATOM     16  H   UNL     1       8.394   6.539  17.255  0.00  0.00    +0.000 HD
ENDBRANCH  14  15
BRANCH  14  17
ATOM     17  C   UNL     1       6.759   4.658  15.702  0.00  0.00    +0.000 C 
BRANCH  17  18
ATOM     18  N   UNL     1       7.495   5.236  14.573  0.00  0.00    +0.000 NA
ATOM     19  H   UNL     1       8.463   5.403  14.849  0.00  0.00    +0.000 HD
ATOM     20  H   UNL     1       7.100   6.145  14.334  0.00  0.00    +0.000 HD
ENDBRANCH  17  18
ENDBRANCH  14  17
ENDBRANCH   1  14
TORSDOF 4
ENDMDL
MODEL 4
REMARK VINA RESULT:      -7.2      3.372      5.666
REMARK  Name = 
REMARK  4 active torsions:
REMARK  status: ('A' for Active; 'I' for Inactive)
REMARK    1  A    between atoms: N_1  and  C_2
REMARK    2  A    between atoms: C_2  and  C_3
REMARK    3  A    between atoms: C_3  and  O_4
REMARK    4  A    between atoms: C_3  and  C_5
REMARK                            x       y       z     vdW  Elec       q    Type
REMARK                         _______ _______ _______ _____ _____    ______ ____
ROOT
ATOM      1  C   UNL     1       1.833   4.313  19.729  0.00  0.00    +0.000 A 
ATOM      2  C   UNL     1       1.464   5.471  20.441  0.00  0.00    +0.000 A 
ATOM      3  C   UNL     1       1.969   6.739  20.107  0.00  0.00    +0.000 A 
ATOM      4  C   UNL     1       2.861   6.900  19.050  0.00  0.00    +0.000 A 
ATOM      5  C   UNL     1       3.240   5.778  18.337  0.00  0.00    +0.000 A 
ATOM      6  C   UNL     1       2.732   4.500  18.673  0.00  0.00    +0.000 A 
ATOM      7  C   UNL     1       3.315   3.457  17.728  0.00  0.00    +0.000 C 
ATOM      8  C   UNL     1       4.222   4.294  16.846  0.00  0.00    +0.000 A 
ATOM      9  C   UNL     1       5.028   3.875  15.800  0.00  0.00    +0.000 A 
ATOM     10  C   UNL     1       5.770   4.841  15.115  0.00  0.00    +0.000 A 
ATOM     11  C   UNL     1       5.698   6.196  15.480  0.00  0.00    +0.000 A 
ATOM     12  C   UNL     1       4.883   6.609  16.539  0.00  0.00    +0.000 A 
ATOM     13  C   UNL     1       4.150   5.650  17.218  0.00  0.00    +0.000 A 
ENDROOT
BRANCH   1  14
ATOM     14  C   UNL     1       1.314   2.930  20.076  0.00  0.00    +0.000 C 
BRANCH  14  15
ATOM     15  O   UNL     1      -0.052   2.856  19.659  0.00  0.00    +0.000 OA
ATOM     16  H   UNL     1      -0.314   1.923  19.724  0.00  0.00    +0.000 HD
ENDBRANCH  14  15
BRANCH  14  17
ATOM     17  C   UNL     1       1.434   2.530  21.576  0.00  0.00    +0.000 C 
BRANCH  17  18
ATOM     18  N   UNL     1       2.811   2.441  22.074  0.00  0.00    +0.000 NA
ATOM     19  H   UNL     1       3.281   3.335  21.933  0.00  0.00    +0.000 HD
ATOM     20  H   UNL     1       3.328   1.751  21.530  0.00  0.00    +0.000 HD
ENDBRANCH  17  18
ENDBRANCH  14  17
ENDBRANCH   1  14
TORSDOF 4
ENDMDL
MODEL 5
REMARK VINA RESULT:      -6.9      2.862      4.597
REMARK  Name = 
REMARK  4 active torsions:
REMARK  status: ('A' for Active; 'I' for Inactive)
REMARK    1  A    between atoms: N_1  and  C_2
REMARK    2  A    between atoms: C_2  and  C_3
REMARK    3  A    between atoms: C_3  and  O_4
REMARK    4  A    between atoms: C_3  and  C_5
REMARK                            x       y       z     vdW  Elec       q    Type
REMARK                         _______ _______ _______ _____ _____    ______ ____
ROOT
ATOM      1  C   UNL     1       4.092   4.283  18.442  0.00  0.00    +0.000 A 
ATOM      2  C   UNL     1       4.875   4.244  17.272  0.00  0.00    +0.000 A 
ATOM      3  C   UNL     1       4.979   5.351  16.412  0.00  0.00    +0.000 A 
ATOM      4  C   UNL     1       4.306   6.538  16.686  0.00  0.00    +0.000 A 
ATOM      5  C   UNL     1       3.529   6.601  17.828  0.00  0.00    +0.000 A 
ATOM      6  C   UNL     1       3.424   5.486  18.696  0.00  0.00    +0.000 A 
ATOM      7  C   UNL     1       2.510   5.837  19.863  0.00  0.00    +0.000 C 
ATOM      8  C   UNL     1       2.101   7.260  19.535  0.00  0.00    +0.000 A 
ATOM      9  C   UNL     1       1.257   8.096  20.249  0.00  0.00    +0.000 A 
ATOM     10  C   UNL     1       1.040   9.385  19.754  0.00  0.00    +0.000 A 
ATOM     11  C   UNL     1       1.661   9.816  18.569  0.00  0.00    +0.000 A 
ATOM     12  C   UNL     1       2.507   8.963  17.855  0.00  0.00    +0.000 A 
ATOM     13  C   UNL     1       2.721   7.685  18.345  0.00  0.00    +0.000 A 
ENDROOT
BRANCH   1  14
ATOM     14  C   UNL     1       3.951   3.100  19.381  0.00  0.00    +0.000 C 
BRANCH  14  15
ATOM     15  O   UNL     1       5.265   2.694  19.776  0.00  0.00    +0.000 OA
ATOM     16  H   UNL     1       5.710   3.486  20.121  0.00  0.00    +0.000 HD
ENDBRANCH  14  15
BRANCH  14  17
ATOM     17  C   UNL     1       3.169   1.882  18.806  0.00  0.00    +0.000 C 
BRANCH  17  18
ATOM     18  N   UNL     1       4.018   0.817  18.261  0.00  0.00    +0.000 NA
ATOM     19  H   UNL     1       3.610   0.470  17.393  0.00  0.00    +0.000 HD
ATOM     20  H   UNL     1       4.038   0.029  18.908  0.00  0.00    +0.000 HD
ENDBRANCH  17  18
ENDBRANCH  14  17
ENDBRANCH   1  14
TORSDOF 4
ENDMDL
MODEL 6
REMARK VINA RESULT:      -6.8      1.759      1.945
REMARK  Name = 
REMARK  4 active torsions:
REMARK  status: ('A' for Active; 'I' for Inactive)
REMARK    1  A    between atoms: N_1  and  C_2
REMARK    2  A    between atoms: C_2  and  C_3
REMARK    3  A    between atoms: C_3  and  O_4
REMARK    4  A    between atoms: C_3  and  C_5
REMARK                            x       y       z     vdW  Elec       q    Type
REMARK                         _______ _______ _______ _____ _____    ______ ____
ROOT
ATOM      1  C   UNL     1       5.007   6.090  17.419  0.00  0.00    +0.000 A 
ATOM      2  C   UNL     1       4.384   7.306  17.079  0.00  0.00    +0.000 A 
ATOM      3  C   UNL     1       3.153   7.691  17.636  0.00  0.00    +0.000 A 
ATOM      4  C   UNL     1       2.497   6.877  18.555  0.00  0.00    +0.000 A 
ATOM      5  C   UNL     1       3.086   5.676  18.904  0.00  0.00    +0.000 A 
ATOM      6  C   UNL     1       4.327   5.288  18.343  0.00  0.00    +0.000 A 
ATOM      7  C   UNL     1       4.736   3.931  18.903  0.00  0.00    +0.000 C 
ATOM      8  C   UNL     1       3.573   3.599  19.819  0.00  0.00    +0.000 A 
ATOM      9  C   UNL     1       3.390   2.467  20.597  0.00  0.00    +0.000 A 
ATOM     10  C   UNL     1       2.235   2.389  21.380  0.00  0.00    +0.000 A 
ATOM     11  C   UNL     1       1.291   3.431  21.376  0.00  0.00    +0.000 A 
ATOM     12  C   UNL     1       1.484   4.568  20.585  0.00  0.00    +0.000 A 
ATOM     13  C   UNL     1       2.628   4.643  19.808  0.00  0.00    +0.000 A 
ENDROOT
BRANCH   1  14
ATOM     14  C   UNL     1       6.329   5.644  16.823  0.00  0.00    +0.000 C 
BRANCH  14  15
ATOM     15  O   UNL     1       6.090   4.450  16.070  0.00  0.00    +0.000 OA
ATOM     16  H   UNL     1       6.776   3.813  16.331  0.00  0.00    +0.000 HD
ENDBRANCH  14  15
BRANCH  14  17
ATOM     17  C   UNL     1       7.476   5.404  17.848  0.00  0.00    +0.000 C 
BRANCH  17  18
ATOM     18  N   UNL     1       8.162   4.115  17.704  0.00  0.00    +0.000 NA
ATOM     19  H   UNL     1       8.860   4.018  18.440  0.00  0.00    +0.000 HD
ATOM     20  H   UNL     1       8.667   4.092  16.819  0.00  0.00    +0.000 HD
ENDBRANCH  17  18
ENDBRANCH  14  17
ENDBRANCH   1  14
TORSDOF 4
ENDMDL
MODEL 7
REMARK VINA RESULT:      -6.8      2.032      2.911
REMARK  Name = 
REMARK  4 active torsions:
REMARK  status: ('A' for Active; 'I' for Inactive)
REMARK    1  A    between atoms: N_1  and  C_2
REMARK    2  A    between atoms: C_2  and  C_3
REMARK    3  A    between atoms: C_3  and  O_4
REMARK    4  A    between atoms: C_3  and  C_5
REMARK                            x       y       z     vdW  Elec       q    Type
REMARK                         _______ _______ _______ _____ _____    ______ ____
ROOT
ATOM      1  C   UNL     1       6.860   5.033  17.613  0.00  0.00    +0.000 A 
ATOM      2  C   UNL     1       7.113   4.554  16.313  0.00  0.00    +0.000 A 
ATOM      3  C   UNL     1       6.120   3.915  15.551  0.00  0.00    +0.000 A 
ATOM      4  C   UNL     1       4.837   3.730  16.057  0.00  0.00    +0.000 A 
ATOM      5  C   UNL     1       4.564   4.189  17.332  0.00  0.00    +0.000 A 
ATOM      6  C   UNL     1       5.564   4.833  18.101  0.00  0.00    +0.000 A 
ATOM      7  C   UNL     1       4.987   5.231  19.454  0.00  0.00    +0.000 C 
ATOM      8  C   UNL     1       3.564   4.714  19.361  0.00  0.00    +0.000 A 
ATOM      9  C   UNL     1       2.562   4.784  20.315  0.00  0.00    +0.000 A 
ATOM     10  C   UNL     1       1.312   4.247  19.994  0.00  0.00    +0.000 A 
ATOM     11  C   UNL     1       1.084   3.657  18.739  0.00  0.00    +0.000 A 
ATOM     12  C   UNL     1       2.102   3.589  17.784  0.00  0.00    +0.000 A 
ATOM     13  C   UNL     1       3.341   4.120  18.104  0.00  0.00    +0.000 A 
ENDROOT
BRANCH   1  14
ATOM     14  C   UNL     1       7.917   5.714  18.462  0.00  0.00    +0.000 C 
BRANCH  14  15
ATOM     15  O   UNL     1       7.741   5.278  19.814  0.00  0.00    +0.000 OA
ATOM     16  H   UNL     1       8.172   4.410  19.885  0.00  0.00    +0.000 HD
ENDBRANCH  14  15
BRANCH  14  17
ATOM     17  C   UNL     1       7.920   7.270  18.402  0.00  0.00    +0.000 C 
BRANCH  17  18
ATOM     18  N   UNL     1       7.476   7.830  17.121  0.00  0.00    +0.000 NA
ATOM     19  H   UNL     1       6.547   7.473  16.898  0.00  0.00    +0.000 HD
ATOM     20  H   UNL     1       8.096   7.515  16.376  0.00  0.00    +0.000 HD
ENDBRANCH  17  18
ENDBRANCH  14  17
ENDBRANCH   1  14
TORSDOF 4
ENDMDL
MODEL 8
REMARK VINA RESULT:      -6.7      1.303      1.360
REMARK  Name = 
REMARK  4 active torsions:
REMARK  status: ('A' for Active; 'I' for Inactive)
REMARK    1  A    between atoms: N_1  and  C_2
REMARK    2  A    between atoms: C_2  and  C_3
REMARK    3  A    between atoms: C_3  and  O_4
REMARK    4  A    between atoms: C_3  and  C_5
REMARK                            x       y       z     vdW  Elec       q    Type
REMARK                         _______ _______ _______ _____ _____    ______ ____
ROOT
ATOM      1  C   UNL     1       4.960   5.742  16.381  0.00  0.00    +0.000 A 
ATOM      2  C   UNL     1       4.769   7.127  16.552  0.00  0.00    +0.000 A 
ATOM      3  C   UNL     1       3.796   7.639  17.428  0.00  0.00    +0.000 A 
ATOM      4  C   UNL     1       2.978   6.789  18.167  0.00  0.00    +0.000 A 
ATOM      5  C   UNL     1       3.145   5.425  18.016  0.00  0.00    +0.000 A 
ATOM      6  C   UNL     1       4.124   4.908  17.133  0.00  0.00    +0.000 A 
ATOM      7  C   UNL     1       4.085   3.386  17.167  0.00  0.00    +0.000 C 
ATOM      8  C   UNL     1       2.959   3.115  18.147  0.00  0.00    +0.000 A 
ATOM      9  C   UNL     1       2.462   1.891  18.566  0.00  0.00    +0.000 A 
ATOM     10  C   UNL     1       1.421   1.891  19.498  0.00  0.00    +0.000 A 
ATOM     11  C   UNL     1       0.897   3.099  19.993  0.00  0.00    +0.000 A 
ATOM     12  C   UNL     1       1.404   4.328  19.561  0.00  0.00    +0.000 A 
ATOM     13  C   UNL     1       2.435   4.327  18.636  0.00  0.00    +0.000 A 
ENDROOT
BRANCH   1  14
ATOM     14  C   UNL     1       5.992   5.161  15.433  0.00  0.00    +0.000 C 
BRANCH  14  15
ATOM     15  O   UNL     1       5.295   4.423  14.425  0.00  0.00    +0.000 OA
ATOM     16  H   UNL     1       5.757   3.573  14.331  0.00  0.00    +0.000 HD
ENDBRANCH  14  15
BRANCH  14  17
ATOM     17  C   UNL     1       7.076   4.262  16.096  0.00  0.00    +0.000 C 
BRANCH  17  18
ATOM     18  N   UNL     1       7.701   4.843  17.290  0.00  0.00    +0.000 NA
ATOM     19  H   UNL     1       8.031   4.093  17.898  0.00  0.00    +0.000 HD
ATOM     20  H   UNL     1       7.005   5.364  17.822  0.00  0.00    +0.000 HD
ENDBRANCH  17  18
ENDBRANCH  14  17
ENDBRANCH   1  14
TORSDOF 4
ENDMDL
MODEL 9
REMARK VINA RESULT:      -6.7      2.260      4.037
REMARK  Name = 
REMARK  4 active torsions:
REMARK  status: ('A' for Active; 'I' for Inactive)
REMARK    1  A    between atoms: N_1  and  C_2
REMARK    2  A    between atoms: C_2  and  C_3
REMARK    3  A    between atoms: C_3  and  O_4
REMARK    4  A    between atoms: C_3  and  C_5
REMARK                            x       y       z     vdW  Elec       q    Type
REMARK                         _______ _______ _______ _____ _____    ______ ____
ROOT
ATOM      1  C   UNL     1       4.590   4.666  17.896  0.00  0.00    +0.000 A 
ATOM      2  C   UNL     1       4.512   3.634  18.851  0.00  0.00    +0.000 A 
ATOM      3  C   UNL     1       3.708   3.744  19.998  0.00  0.00    +0.000 A 
ATOM      4  C   UNL     1       2.951   4.888  20.236  0.00  0.00    +0.000 A 
ATOM      5  C   UNL     1       3.013   5.916  19.315  0.00  0.00    +0.000 A 
ATOM      6  C   UNL     1       3.823   5.807  18.158  0.00  0.00    +0.000 A 
ATOM      7  C   UNL     1       3.697   7.078  17.328  0.00  0.00    +0.000 C 
ATOM      8  C   UNL     1       2.748   7.915  18.164  0.00  0.00    +0.000 A 
ATOM      9  C   UNL     1       2.274   9.191  17.905  0.00  0.00    +0.000 A 
ATOM     10  C   UNL     1       1.386   9.760  18.822  0.00  0.00    +0.000 A 
ATOM     11  C   UNL     1       0.987   9.053  19.970  0.00  0.00    +0.000 A 
ATOM     12  C   UNL     1       1.473   7.767  20.224  0.00  0.00    +0.000 A 
ATOM     13  C   UNL     1       2.355   7.206  19.315  0.00  0.00    +0.000 A 
ENDROOT
BRANCH   1  14
ATOM     14  C   UNL     1       5.460   4.580  16.656  0.00  0.00    +0.000 C 
BRANCH  14  15
ATOM     15  O   UNL     1       5.557   3.202  16.283  0.00  0.00    +0.000 OA
ATOM     16  H   UNL     1       5.655   2.696  17.107  0.00  0.00    +0.000 HD
ENDBRANCH  14  15
BRANCH  14  17
ATOM     17  C   UNL     1       6.884   5.194  16.796  0.00  0.00    +0.000 C 
BRANCH  17  18
ATOM     18  N   UNL     1       7.931   4.228  17.144  0.00  0.00    +0.000 NA
ATOM     19  H   UNL     1       8.831   4.707  17.196  0.00  0.00    +0.000 HD
ATOM     20  H   UNL     1       8.015   3.531  16.405  0.00  0.00    +0.000 HD
ENDBRANCH  17  18
ENDBRANCH  14  17
ENDBRANCH   1  14
TORSDOF 4
ENDMDL
