MODEL 1
REMARK VINA RESULT:      -7.8      0.000      0.000
REMARK  Name = 
REMARK  4 active torsions:
REMARK  status: ('A' for Active; 'I' for Inactive)
REMARK    1  A    between atoms: C_1  and  C_2
REMARK    2  A    between atoms: N_4  and  C_5
REMARK    3  A    between atoms: C_9  and  C_11
REMARK    4  A    between atoms: N_14  and  C_15
REMARK                            x       y       z     vdW  Elec       q    Type
REMARK                         _______ _______ _______ _____ _____    ______ ____
ROOT
ATOM      1  C   UNL     1       5.668   4.153  17.964  0.00  0.00    +0.000 A 
ATOM      2  C   UNL     1       6.910   4.818  17.996  0.00  0.00    +0.000 A 
ATOM      3  N   UNL     1       7.451   4.974  16.783  0.00  0.00    +0.000 NA
ATOM      4  N   UNL     1       6.565   4.386  15.945  0.00  0.00    +0.000 N 
ATOM      5  C   UNL     1       5.513   3.846  16.634  0.00  0.00    +0.000 A 
ENDROOT
BRANCH   1  14
ATOM      6  C   UNL     1       1.872   4.977  17.528  0.00  0.00    +0.000 C 
ATOM      7  C   UNL     1       3.005   5.502  18.422  0.00  0.00    +0.000 C 
ATOM      8  C   UNL     1       2.541   6.668  19.321  0.00  0.00    +0.000 C 
ATOM      9  N   UNL     1       1.577   6.230  20.341  0.00  0.00    +0.000 NA
ATOM     10  C   UNL     1       1.170   7.364  21.165  0.00  0.00    +0.000 C 
ATOM     11  C   UNL     1       2.183   5.165  21.171  0.00  0.00    +0.000 C 
ATOM     12  C   UNL     1       2.708   3.974  20.341  0.00  0.00    +0.000 C 
ATOM     13  N   UNL     1       3.576   4.409  19.241  0.00  0.00    +0.000 N 
ATOM     14  C   UNL     1       4.816   3.776  19.079  0.00  0.00    +0.000 C 
ATOM     15  O   UNL     1       5.208   2.919  19.867  0.00  0.00    +0.000 OA
ENDBRANCH   1  14
BRANCH   4  16
ATOM     16  C   UNL     1       6.736   4.359  14.536  0.00  0.00    +0.000 A 
ATOM     17  C   UNL     1       7.652   5.223  13.938  0.00  0.00    +0.000 A 
ATOM     18  C   UNL     1       7.822   5.207  12.552  0.00  0.00    +0.000 A 
ATOM     19  C   UNL     1       7.058   4.346  11.763  0.00  0.00    +0.000 A 
ATOM     20  C   UNL     1       6.137   3.492  12.363  0.00  0.00    +0.000 A 
ATOM     21 CL   UNL     1       5.165   2.450  11.396  0.00  0.00    +0.000 Cl
ATOM     22  C   UNL     1       5.978   3.478  13.747  0.00  0.00    +0.000 A 
ENDBRANCH   4  16
TORSDOF 2
ENDMDL
MODEL 2
REMARK VINA RESULT:      -7.4      4.846      8.581
REMARK  Name = 
REMARK  4 active torsions:
REMARK  status: ('A' for Active; 'I' for Inactive)
REMARK    1  A    between atoms: C_1  and  C_2
REMARK    2  A    between atoms: N_4  and  C_5
REMARK    3  A    between atoms: C_9  and  C_11
REMARK    4  A    between atoms: N_14  and  C_15
REMARK                            x       y       z     vdW  Elec       q    Type
REMARK                         _______ _______ _______ _____ _____    ______ ____
ROOT
ATOM      1  C   UNL     1       2.564   7.923  18.335  0.00  0.00    +0.000 A 
ATOM      2  C   UNL     1       1.754   8.820  17.609  0.00  0.00    +0.000 A 
ATOM      3  N   UNL     1       0.913   9.511  18.387  0.00  0.00    +0.000 NA
ATOM      4  N   UNL     1       1.157   9.048  19.635  0.00  0.00    +0.000 N 
ATOM      5  C   UNL     1       2.108   8.063  19.622  0.00  0.00    +0.000 A 
ENDROOT
BRANCH   1  14
ATOM      6  C   UNL     1       1.332   4.239  17.904  0.00  0.00    +0.000 C 
ATOM      7  C   UNL     1       2.317   4.956  18.840  0.00  0.00    +0.000 C 
ATOM      8  C   UNL     1       2.918   3.998  19.891  0.00  0.00    +0.000 C 
ATOM      9  N   UNL     1       3.808   2.998  19.283  0.00  0.00    +0.000 NA
ATOM     10  C   UNL     1       4.353   2.120  20.314  0.00  0.00    +0.000 C 
ATOM     11  C   UNL     1       4.894   3.682  18.545  0.00  0.00    +0.000 C 
ATOM     12  C   UNL     1       4.373   4.688  17.495  0.00  0.00    +0.000 C 
ATOM     13  N   UNL     1       3.390   5.618  18.064  0.00  0.00    +0.000 N 
ATOM     14  C   UNL     1       3.555   6.989  17.829  0.00  0.00    +0.000 C 
ATOM     15  O   UNL     1       4.528   7.424  17.218  0.00  0.00    +0.000 OA
ENDBRANCH   1  14
BRANCH   4  16
ATOM     16  C   UNL     1       0.496   9.549  20.787  0.00  0.00    +0.000 A 
ATOM     17  C   UNL     1       0.693   8.928  22.019  0.00  0.00    +0.000 A 
ATOM     18  C   UNL     1       0.041   9.412  23.155  0.00  0.00    +0.000 A 
ATOM     19  C   UNL     1      -0.827  10.500  23.055  0.00  0.00    +0.000 A 
ATOM     20  C   UNL     1      -1.028  11.113  21.821  0.00  0.00    +0.000 A 
ATOM     21 CL   UNL     1      -2.122  12.435  21.679  0.00  0.00    +0.000 Cl
ATOM     22  C   UNL     1      -0.362  10.657  20.685  0.00  0.00    +0.000 A 
ENDBRANCH   4  16
TORSDOF 2
ENDMDL
MODEL 3
REMARK VINA RESULT:      -7.2      1.780      1.981
REMARK  Name = 
REMARK  4 active torsions:
REMARK  status: ('A' for Active; 'I' for Inactive)
REMARK    1  A    between atoms: C_1  and  C_2
REMARK    2  A    between atoms: N_4  and  C_5
REMARK    3  A    between atoms: C_9  and  C_11
REMARK    4  A    between atoms: N_14  and  C_15
REMARK                            x       y       z     vdW  Elec       q    Type
REMARK                         _______ _______ _______ _____ _____    ______ ____
ROOT
ATOM      1  C   UNL     1       5.919   4.922  17.673  0.00  0.00    +0.000 A 
ATOM      2  C   UNL     1       6.135   6.257  17.278  0.00  0.00    +0.000 A 
ATOM      3  N   UNL     1       6.458   6.375  15.986  0.00  0.00    +0.000 NA
ATOM      4  N   UNL     1       6.476   5.100  15.530  0.00  0.00    +0.000 N 
ATOM      5  C   UNL     1       6.203   4.210  16.534  0.00  0.00    +0.000 A 
ENDROOT
BRANCH   1  14
ATOM      6  C   UNL     1       3.687   1.714  17.731  0.00  0.00    +0.000 C 
ATOM      7  C   UNL     1       3.490   3.186  18.124  0.00  0.00    +0.000 C 
ATOM      8  C   UNL     1       2.050   3.469  18.604  0.00  0.00    +0.000 C 
ATOM      9  N   UNL     1       1.754   2.809  19.885  0.00  0.00    +0.000 NA
ATOM     10  C   UNL     1       0.387   3.107  20.298  0.00  0.00    +0.000 C 
ATOM     11  C   UNL     1       2.725   3.256  20.909  0.00  0.00    +0.000 C 
ATOM     12  C   UNL     1       4.194   3.039  20.488  0.00  0.00    +0.000 C 
ATOM     13  N   UNL     1       4.472   3.589  19.156  0.00  0.00    +0.000 N 
ATOM     14  C   UNL     1       5.594   4.412  18.994  0.00  0.00    +0.000 C 
ATOM     15  O   UNL     1       6.303   4.727  19.947  0.00  0.00    +0.000 OA
ENDBRANCH   1  14
BRANCH   4  16
ATOM     16  C   UNL     1       6.742   4.769  14.176  0.00  0.00    +0.000 A 
ATOM     17  C   UNL     1       7.654   5.530  13.447  0.00  0.00    +0.000 A 
ATOM     18  C   UNL     1       7.916   5.214  12.112  0.00  0.00    +0.000 A 
ATOM     19  C   UNL     1       7.247   4.154  11.499  0.00  0.00    +0.000 A 
ATOM     20  C   UNL     1       6.329   3.402  12.227  0.00  0.00    +0.000 A 
ATOM     21 CL   UNL     1       5.472   2.113  11.471  0.00  0.00    +0.000 Cl
ATOM     22  C   UNL     1       6.080   3.689  13.568  0.00  0.00    +0.000 A 
ENDBRANCH   4  16
TORSDOF 2
ENDMDL
MODEL 4
REMARK VINA RESULT:      -7.2      5.259      6.625
REMARK  Name = 
REMARK  4 active torsions:
REMARK  status: ('A' for Active; 'I' for Inactive)
REMARK    1  A    between atoms: C_1  and  C_2
REMARK    2  A    between atoms: N_4  and  C_5
REMARK    3  A    between atoms: C_9  and  C_11
REMARK    4  A    between atoms: N_14  and  C_15
REMARK                            x       y       z     vdW  Elec       q    Type
REMARK                         _______ _______ _______ _____ _____    ______ ____
ROOT
ATOM      1  C   UNL     1       7.242   6.788  17.515  0.00  0.00    +0.000 A 
ATOM      2  C   UNL     1       8.022   6.542  18.663  0.00  0.00    +0.000 A 
ATOM      3  N   UNL     1       8.635   7.639  19.122  0.00  0.00    +0.000 NA
ATOM      4  N   UNL     1       8.271   8.612  18.254  0.00  0.00    +0.000 N 
ATOM      5  C   UNL     1       7.476   8.116  17.257  0.00  0.00    +0.000 A 
ENDROOT
BRANCH   1  14
ATOM      6  C   UNL     1       3.440   6.565  18.395  0.00  0.00    +0.000 C 
ATOM      7  C   UNL     1       4.650   5.632  18.549  0.00  0.00    +0.000 C 
ATOM      8  C   UNL     1       4.280   4.319  19.272  0.00  0.00    +0.000 C 
ATOM      9  N   UNL     1       3.392   3.472  18.461  0.00  0.00    +0.000 NA
ATOM     10  C   UNL     1       3.074   2.245  19.184  0.00  0.00    +0.000 C 
ATOM     11  C   UNL     1       4.041   3.169  17.166  0.00  0.00    +0.000 C 
ATOM     12  C   UNL     1       4.476   4.435  16.395  0.00  0.00    +0.000 C 
ATOM     13  N   UNL     1       5.263   5.347  17.232  0.00  0.00    +0.000 N 
ATOM     14  C   UNL     1       6.473   5.840  16.726  0.00  0.00    +0.000 C 
ATOM     15  O   UNL     1       6.910   5.478  15.637  0.00  0.00    +0.000 OA
ENDBRANCH   1  14
BRANCH   4  16
ATOM     16  C   UNL     1       8.678   9.964  18.397  0.00  0.00    +0.000 A 
ATOM     17  C   UNL     1       8.155  10.935  17.544  0.00  0.00    +0.000 A 
ATOM     18  C   UNL     1       8.554  12.266  17.675  0.00  0.00    +0.000 A 
ATOM     19  C   UNL     1       9.495  12.623  18.641  0.00  0.00    +0.000 A 
ATOM     20  C   UNL     1      10.023  11.650  19.486  0.00  0.00    +0.000 A 
ATOM     21 CL   UNL     1      11.210  12.074  20.659  0.00  0.00    +0.000 Cl
ATOM     22  C   UNL     1       9.611  10.322  19.384  0.00  0.00    +0.000 A 
ENDBRANCH   4  16
TORSDOF 2
ENDMDL
MODEL 5
REMARK VINA RESULT:      -7.2      1.612      2.321
REMARK  Name = 
REMARK  4 active torsions:
REMARK  status: ('A' for Active; 'I' for Inactive)
REMARK    1  A    between atoms: C_1  and  C_2
REMARK    2  A    between atoms: N_4  and  C_5
REMARK    3  A    between atoms: C_9  and  C_11
REMARK    4  A    between atoms: N_14  and  C_15
REMARK                            x       y       z     vdW  Elec       q    Type
REMARK                         _______ _______ _______ _____ _____    ______ ____
ROOT
ATOM      1  C   UNL     1       5.518   5.227  17.699  0.00  0.00    +0.000 A 
ATOM      2  C   UNL     1       6.907   5.043  17.856  0.00  0.00    +0.000 A 
ATOM      3  N   UNL     1       7.534   4.793  16.701  0.00  0.00    +0.000 NA
ATOM      4  N   UNL     1       6.544   4.790  15.778  0.00  0.00    +0.000 N 
ATOM      5  C   UNL     1       5.323   5.000  16.359  0.00  0.00    +0.000 A 
ENDROOT
BRANCH   1  14
ATOM      6  C   UNL     1       4.594   2.147  19.921  0.00  0.00    +0.000 C 
ATOM      7  C   UNL     1       3.868   2.975  18.850  0.00  0.00    +0.000 C 
ATOM      8  C   UNL     1       2.459   2.421  18.546  0.00  0.00    +0.000 C 
ATOM      9  N   UNL     1       1.541   2.590  19.682  0.00  0.00    +0.000 NA
ATOM     10  C   UNL     1       0.225   2.055  19.346  0.00  0.00    +0.000 C 
ATOM     11  C   UNL     1       1.452   4.024  20.039  0.00  0.00    +0.000 C 
ATOM     12  C   UNL     1       2.828   4.664  20.324  0.00  0.00    +0.000 C 
ATOM     13  N   UNL     1       3.792   4.398  19.250  0.00  0.00    +0.000 N 
ATOM     14  C   UNL     1       4.519   5.475  18.724  0.00  0.00    +0.000 C 
ATOM     15  O   UNL     1       4.321   6.628  19.098  0.00  0.00    +0.000 OA
ENDBRANCH   1  14
BRANCH   4  16
ATOM     16  C   UNL     1       6.783   4.596  14.392  0.00  0.00    +0.000 A 
ATOM     17  C   UNL     1       7.686   5.424  13.727  0.00  0.00    +0.000 A 
ATOM     18  C   UNL     1       7.920   5.244  12.362  0.00  0.00    +0.000 A 
ATOM     19  C   UNL     1       7.234   4.253  11.658  0.00  0.00    +0.000 A 
ATOM     20  C   UNL     1       6.327   3.435  12.324  0.00  0.00    +0.000 A 
ATOM     21 CL   UNL     1       5.449   2.232  11.458  0.00  0.00    +0.000 Cl
ATOM     22  C   UNL     1       6.104   3.586  13.691  0.00  0.00    +0.000 A 
ENDBRANCH   4  16
TORSDOF 2
ENDMDL
MODEL 6
REMARK VINA RESULT:      -7.0      3.879      8.446
REMARK  Name = 
REMARK  4 active torsions:
REMARK  status: ('A' for Active; 'I' for Inactive)
REMARK    1  A    between atoms: C_1  and  C_2
REMARK    2  A    between atoms: N_4  and  C_5
REMARK    3  A    between atoms: C_9  and  C_11
REMARK    4  A    between atoms: N_14  and  C_15
REMARK                            x       y       z     vdW  Elec       q    Type
REMARK                         _______ _______ _______ _____ _____    ______ ____
ROOT
ATOM      1  C   UNL     1       2.943   6.724  18.880  0.00  0.00    +0.000 A 
ATOM      2  C   UNL     1       2.641   7.708  17.917  0.00  0.00    +0.000 A 
ATOM      3  N   UNL     1       1.869   8.689  18.398  0.00  0.00    +0.000 NA
ATOM      4  N   UNL     1       1.644   8.336  19.685  0.00  0.00    +0.000 N 
ATOM      5  C   UNL     1       2.238   7.140  19.983  0.00  0.00    +0.000 A 
ENDROOT
BRANCH   1  14
ATOM      6  C   UNL     1       6.537   7.197  17.419  0.00  0.00    +0.000 C 
ATOM      7  C   UNL     1       5.227   6.576  16.910  0.00  0.00    +0.000 C 
ATOM      8  C   UNL     1       5.353   6.068  15.458  0.00  0.00    +0.000 C 
ATOM      9  N   UNL     1       6.255   4.912  15.352  0.00  0.00    +0.000 NA
ATOM     10  C   UNL     1       6.339   4.468  13.964  0.00  0.00    +0.000 C 
ATOM     11  C   UNL     1       5.770   3.822  16.227  0.00  0.00    +0.000 C 
ATOM     12  C   UNL     1       5.583   4.260  17.696  0.00  0.00    +0.000 C 
ATOM     13  N   UNL     1       4.783   5.485  17.807  0.00  0.00    +0.000 N 
ATOM     14  C   UNL     1       3.715   5.504  18.714  0.00  0.00    +0.000 C 
ATOM     15  O   UNL     1       3.403   4.508  19.361  0.00  0.00    +0.000 OA
ENDBRANCH   1  14
BRANCH   4  16
ATOM     16  C   UNL     1       0.889   9.135  20.583  0.00  0.00    +0.000 A 
ATOM     17  C   UNL     1       0.902   8.840  21.946  0.00  0.00    +0.000 A 
ATOM     18  C   UNL     1       0.157   9.618  22.834  0.00  0.00    +0.000 A 
ATOM     19  C   UNL     1      -0.620  10.674  22.358  0.00  0.00    +0.000 A 
ATOM     20  C   UNL     1      -0.638  10.961  20.996  0.00  0.00    +0.000 A 
ATOM     21 CL   UNL     1      -1.621  12.240  20.394  0.00  0.00    +0.000 Cl
ATOM     22  C   UNL     1       0.123  10.209  20.102  0.00  0.00    +0.000 A 
ENDBRANCH   4  16
TORSDOF 2
ENDMDL
MODEL 7
REMARK VINA RESULT:      -7.0      3.597      7.677
REMARK  Name = 
REMARK  4 active torsions:
REMARK  status: ('A' for Active; 'I' for Inactive)
REMARK    1  A    between atoms: C_1  and  C_2
REMARK    2  A    between atoms: N_4  and  C_5
REMARK    3  A    between atoms: C_9  and  C_11
REMARK    4  A    between atoms: N_14  and  C_15
REMARK                            x       y       z     vdW  Elec       q    Type
REMARK                         _______ _______ _______ _____ _____    ______ ____
ROOT
ATOM      1  C   UNL     1       3.932   5.208  19.385  0.00  0.00    +0.000 A 
ATOM      2  C   UNL     1       2.829   4.644  20.056  0.00  0.00    +0.000 A 
ATOM      3  N   UNL     1       1.882   5.542  20.351  0.00  0.00    +0.000 NA
ATOM      4  N   UNL     1       2.379   6.714  19.888  0.00  0.00    +0.000 N 
ATOM      5  C   UNL     1       3.625   6.546  19.348  0.00  0.00    +0.000 A 
ENDROOT
BRANCH   1  14
ATOM      6  C   UNL     1       6.358   7.425  17.270  0.00  0.00    +0.000 C 
ATOM      7  C   UNL     1       5.465   6.209  16.983  0.00  0.00    +0.000 C 
ATOM      8  C   UNL     1       5.498   5.805  15.494  0.00  0.00    +0.000 C 
ATOM      9  N   UNL     1       6.810   5.274  15.093  0.00  0.00    +0.000 NA
ATOM     10  C   UNL     1       6.790   4.905  13.681  0.00  0.00    +0.000 C 
ATOM     11  C   UNL     1       7.153   4.109  15.939  0.00  0.00    +0.000 C 
ATOM     12  C   UNL     1       7.107   4.422  17.450  0.00  0.00    +0.000 C 
ATOM     13  N   UNL     1       5.847   5.065  17.841  0.00  0.00    +0.000 N 
ATOM     14  C   UNL     1       5.153   4.553  18.946  0.00  0.00    +0.000 C 
ATOM     15  O   UNL     1       5.542   3.553  19.543  0.00  0.00    +0.000 OA
ENDBRANCH   1  14
BRANCH   4  16
ATOM     16  C   UNL     1       1.664   7.938  19.965  0.00  0.00    +0.000 A 
ATOM     17  C   UNL     1       1.655   8.799  18.869  0.00  0.00    +0.000 A 
ATOM     18  C   UNL     1       0.960  10.009  18.939  0.00  0.00    +0.000 A 
ATOM     19  C   UNL     1       0.296  10.367  20.113  0.00  0.00    +0.000 A 
ATOM     20  C   UNL     1       0.315   9.509  21.208  0.00  0.00    +0.000 A 
ATOM     21 CL   UNL     1      -0.472   9.957  22.673  0.00  0.00    +0.000 Cl
ATOM     22  C   UNL     1       0.982   8.287  21.142  0.00  0.00    +0.000 A 
ENDBRANCH   4  16
TORSDOF 2
ENDMDL
MODEL 8
REMARK VINA RESULT:      -6.9      4.385      8.032
REMARK  Name = 
REMARK  4 active torsions:
REMARK  status: ('A' for Active; 'I' for Inactive)
REMARK    1  A    between atoms: C_1  and  C_2
REMARK    2  A    between atoms: N_4  and  C_5
REMARK    3  A    between atoms: C_9  and  C_11
REMARK    4  A    between atoms: N_14  and  C_15
REMARK                            x       y       z     vdW  Elec       q    Type
REMARK                         _______ _______ _______ _____ _____    ______ ____
ROOT
ATOM      1  C   UNL     1       2.297   7.911  18.556  0.00  0.00    +0.000 A 
ATOM      2  C   UNL     1       1.986   8.114  19.915  0.00  0.00    +0.000 A 
ATOM      3  N   UNL     1       0.962   8.956  20.097  0.00  0.00    +0.000 NA
ATOM      4  N   UNL     1       0.611   9.328  18.843  0.00  0.00    +0.000 N 
ATOM      5  C   UNL     1       1.427   8.752  17.908  0.00  0.00    +0.000 A 
ENDROOT
BRANCH   1  14
ATOM      6  C   UNL     1       1.358   4.194  17.802  0.00  0.00    +0.000 C 
ATOM      7  C   UNL     1       2.279   4.902  18.807  0.00  0.00    +0.000 C 
ATOM      8  C   UNL     1       2.948   3.908  19.780  0.00  0.00    +0.000 C 
ATOM      9  N   UNL     1       3.916   3.034  19.100  0.00  0.00    +0.000 NA
ATOM     10  C   UNL     1       4.522   2.116  20.060  0.00  0.00    +0.000 C 
ATOM     11  C   UNL     1       4.948   3.860  18.435  0.00  0.00    +0.000 C 
ATOM     12  C   UNL     1       4.356   4.908  17.468  0.00  0.00    +0.000 C 
ATOM     13  N   UNL     1       3.301   5.708  18.101  0.00  0.00    +0.000 N 
ATOM     14  C   UNL     1       3.361   7.103  17.985  0.00  0.00    +0.000 C 
ATOM     15  O   UNL     1       4.300   7.662  17.423  0.00  0.00    +0.000 OA
ENDBRANCH   1  14
BRANCH   4  16
ATOM     16  C   UNL     1      -0.475  10.201  18.574  0.00  0.00    +0.000 A 
ATOM     17  C   UNL     1      -0.817  11.183  19.503  0.00  0.00    +0.000 A 
ATOM     18  C   UNL     1      -1.889  12.041  19.247  0.00  0.00    +0.000 A 
ATOM     19  C   UNL     1      -2.634  11.901  18.076  0.00  0.00    +0.000 A 
ATOM     20  C   UNL     1      -2.296  10.914  17.155  0.00  0.00    +0.000 A 
ATOM     21 CL   UNL     1      -3.230  10.710  15.723  0.00  0.00    +0.000 Cl
ATOM     22  C   UNL     1      -1.212  10.069  17.385  0.00  0.00    +0.000 A 
ENDBRANCH   4  16
TORSDOF 2
ENDMDL
MODEL 9
REMARK VINA RESULT:      -6.9      4.262      8.404
REMARK  Name = 
REMARK  4 active torsions:
REMARK  status: ('A' for Active; 'I' for Inactive)
REMARK    1  A    between atoms: C_1  and  C_2
REMARK    2  A    between atoms: N_4  and  C_5
REMARK    3  A    between atoms: C_9  and  C_11
REMARK    4  A    between atoms: N_14  and  C_15
REMARK                            x       y       z     vdW  Elec       q    Type
REMARK                         _______ _______ _______ _____ _____    ______ ____
ROOT
ATOM      1  C   UNL     1       2.847   7.164  18.453  0.00  0.00    +0.000 A 
ATOM      2  C   UNL     1       2.844   8.116  17.413  0.00  0.00    +0.000 A 
ATOM      3  N   UNL     1       2.102   9.193  17.693  0.00  0.00    +0.000 NA
ATOM      4  N   UNL     1       1.594   8.937  18.922  0.00  0.00    +0.000 N 
ATOM      5  C   UNL     1       1.989   7.708  19.376  0.00  0.00    +0.000 A 
ENDROOT
BRANCH   1  14
ATOM      6  C   UNL     1       6.566   7.130  17.250  0.00  0.00    +0.000 C 
ATOM      7  C   UNL     1       5.241   6.574  16.707  0.00  0.00    +0.000 C 
ATOM      8  C   UNL     1       5.418   5.887  15.337  0.00  0.00    +0.000 C 
ATOM      9  N   UNL     1       6.206   4.649  15.436  0.00  0.00    +0.000 NA
ATOM     10  C   UNL     1       6.344   4.037  14.118  0.00  0.00    +0.000 C 
ATOM     11  C   UNL     1       5.552   3.720  16.385  0.00  0.00    +0.000 C 
ATOM     12  C   UNL     1       5.305   4.346  17.774  0.00  0.00    +0.000 C 
ATOM     13  N   UNL     1       4.626   5.643  17.681  0.00  0.00    +0.000 N 
ATOM     14  C   UNL     1       3.503   5.868  18.488  0.00  0.00    +0.000 C 
ATOM     15  O   UNL     1       3.048   4.988  19.215  0.00  0.00    +0.000 OA
ENDBRANCH   1  14
BRANCH   4  16
ATOM     16  C   UNL     1       0.768   9.855  19.621  0.00  0.00    +0.000 A 
ATOM     17  C   UNL     1       0.354  11.028  18.990  0.00  0.00    +0.000 A 
ATOM     18  C   UNL     1      -0.454  11.938  19.674  0.00  0.00    +0.000 A 
ATOM     19  C   UNL     1      -0.828  11.689  20.995  0.00  0.00    +0.000 A 
ATOM     20  C   UNL     1      -0.405  10.522  21.625  0.00  0.00    +0.000 A 
ATOM     21 CL   UNL     1      -0.831  10.221  23.266  0.00  0.00    +0.000 Cl
ATOM     22  C   UNL     1       0.379   9.592  20.944  0.00  0.00    +0.000 A 
ENDBRANCH   4  16
TORSDOF 2
ENDMDL
