MODEL 1
REMARK VINA RESULT:      -9.0      0.000      0.000
REMARK  Name = 
REMARK  2 active torsions:
REMARK  status: ('A' for Active; 'I' for Inactive)
REMARK    1  A    between atoms: C_4  and  C_5
REMARK    2  A    between atoms: C_5  and  N_6
REMARK                            x       y       z     vdW  Elec       q    Type
REMARK                         _______ _______ _______ _____ _____    ______ ____
ROOT
ATOM      1  N   UNL     1       3.282   5.558  17.446  0.00  0.00    +0.000 NA
ATOM      2  C   UNL     1       2.761   4.157  17.953  0.00  0.00    +0.000 C 
ATOM      3  C   UNL     1       3.804   3.339  18.882  0.00  0.00    +0.000 C 
ATOM      4  O   UNL     1       3.476   3.367  20.253  0.00  0.00    +0.000 OA
ATOM      5  C   UNL     1       3.190   4.704  20.538  0.00  0.00    +0.000 C 
ATOM      6  C   UNL     1       1.734   4.973  20.238  0.00  0.00    +0.000 C 
ATOM      7  O   UNL     1       1.491   5.966  21.138  0.00  0.00    +0.000 OA
ATOM      8  C   UNL     1       0.675   6.935  20.606  0.00  0.00    +0.000 C 
ATOM      9  C   UNL     1       1.339   8.081  21.261  0.00  0.00    +0.000 C 
ATOM     10  O   UNL     1       0.231   8.859  21.436  0.00  0.00    +0.000 OA
ATOM     11  C   UNL     1       0.593  10.003  22.097  0.00  0.00    +0.000 C 
ATOM     12  C   UNL     1      -0.738  10.617  22.108  0.00  0.00    +0.000 C 
ATOM     13  O   UNL     1      -0.482  11.699  22.908  0.00  0.00    +0.000 OA
ATOM     14  C   UNL     1      -1.613  12.488  23.003  0.00  0.00    +0.000 C 
ATOM     15  C   UNL     1      -0.923  13.794  23.140  0.00  0.00    +0.000 C 
ATOM     16  O   UNL     1      -1.207  14.313  21.837  0.00  0.00    +0.000 OA
ATOM     17  C   UNL     1      -0.130  13.935  20.748  0.00  0.00    +0.000 C 
ATOM     18  C   UNL     1       0.206  12.356  19.644  0.00  0.00    +0.000 C 
ATOM     19  O   UNL     1       1.307  10.848  19.371  0.00  0.00    +0.000 OA
ATOM     20  C   UNL     1       1.655   9.180  18.331  0.00  0.00    +0.000 C 
ATOM     21  C   UNL     1       2.836   7.416  18.118  0.00  0.00    +0.000 C 
ENDROOT
BRANCH   1  22
ATOM     22  C   UNL     1       4.564   4.423  16.500  0.00  0.00    +0.000 C 
BRANCH  22  26
ATOM     23  C   UNL     1       7.414   4.307  11.789  0.00  0.00    +0.000 A 
ATOM     24  C   UNL     1       6.311   3.564  12.158  0.00  0.00    +0.000 A 
ATOM     25  C   UNL     1       5.478   3.575  13.635  0.00  0.00    +0.000 A 
ATOM     26  C   UNL     1       5.701   4.376  14.867  0.00  0.00    +0.000 A 
ATOM     27  C   UNL     1       7.005   5.085  14.356  0.00  0.00    +0.000 A 
ATOM     28  C   UNL     1       7.801   5.045  12.887  0.00  0.00    +0.000 A 
ENDBRANCH  22  26
ENDBRANCH   1  22
TORSDOF 2
ENDMDL
MODEL 2
REMARK VINA RESULT:      -8.6      1.167      1.584
REMARK  Name = 
REMARK  2 active torsions:
REMARK  status: ('A' for Active; 'I' for Inactive)
REMARK    1  A    between atoms: C_4  and  C_5
REMARK    2  A    between atoms: C_5  and  N_6
REMARK                            x       y       z     vdW  Elec       q    Type
REMARK                         _______ _______ _______ _____ _____    ______ ____
ROOT
ATOM      1  N   UNL     1       4.136   6.049  16.651  0.00  0.00    +0.000 NA
ATOM      2  C   UNL     1       4.048   4.546  17.127  0.00  0.00    +0.000 C 
ATOM      3  C   UNL     1       5.369   3.995  17.883  0.00  0.00    +0.000 C 
ATOM      4  O   UNL     1       5.215   3.896  19.281  0.00  0.00    +0.000 OA
ATOM      5  C   UNL     1       4.640   5.106  19.676  0.00  0.00    +0.000 C 
ATOM      6  C   UNL     1       3.137   5.003  19.556  0.00  0.00    +0.000 C 
ATOM      7  O   UNL     1       2.766   5.873  20.536  0.00  0.00    +0.000 OA
ATOM      8  C   UNL     1       1.674   6.615  20.157  0.00  0.00    +0.000 C 
ATOM      9  C   UNL     1       2.105   7.873  20.803  0.00  0.00    +0.000 C 
ATOM     10  O   UNL     1       0.868   8.336  21.147  0.00  0.00    +0.000 OA
ATOM     11  C   UNL     1       1.009   9.514  21.831  0.00  0.00    +0.000 C 
ATOM     12  C   UNL     1      -0.421   9.767  22.027  0.00  0.00    +0.000 C 
ATOM     13  O   UNL     1      -0.349  10.853  22.857  0.00  0.00    +0.000 OA
ATOM     14  C   UNL     1      -1.621  11.323  23.125  0.00  0.00    +0.000 C 
ATOM     15  C   UNL     1      -1.269  12.757  23.263  0.00  0.00    +0.000 C 
ATOM     16  O   UNL     1      -1.831  13.225  22.034  0.00  0.00    +0.000 OA
ATOM     17  C   UNL     1      -0.835  13.169  20.812  0.00  0.00    +0.000 C 
ATOM     18  C   UNL     1      -0.253  11.763  19.584  0.00  0.00    +0.000 C 
ATOM     19  O   UNL     1       1.149  10.596  19.099  0.00  0.00    +0.000 OA
ATOM     20  C   UNL     1       1.774   9.105  17.928  0.00  0.00    +0.000 C 
ATOM     21  C   UNL     1       3.323   7.710  17.479  0.00  0.00    +0.000 C 
ENDROOT
BRANCH   1  22
ATOM     22  C   UNL     1       5.535   5.310  15.502  0.00  0.00    +0.000 C 
BRANCH  22  26
ATOM     23  C   UNL     1       6.535   2.222  11.053  0.00  0.00    +0.000 A 
ATOM     24  C   UNL     1       7.396   3.038  11.757  0.00  0.00    +0.000 A 
ATOM     25  C   UNL     1       7.058   4.023  13.095  0.00  0.00    +0.000 A 
ATOM     26  C   UNL     1       5.792   4.242  13.841  0.00  0.00    +0.000 A 
ATOM     27  C   UNL     1       4.902   3.354  12.901  0.00  0.00    +0.000 A 
ATOM     28  C   UNL     1       5.275   2.396  11.583  0.00  0.00    +0.000 A 
ENDBRANCH  22  26
ENDBRANCH   1  22
TORSDOF 2
ENDMDL
MODEL 3
REMARK VINA RESULT:      -8.1      3.382     11.761
REMARK  Name = 
REMARK  2 active torsions:
REMARK  status: ('A' for Active; 'I' for Inactive)
REMARK    1  A    between atoms: C_4  and  C_5
REMARK    2  A    between atoms: C_5  and  N_6
REMARK                            x       y       z     vdW  Elec       q    Type
REMARK                         _______ _______ _______ _____ _____    ______ ____
ROOT
ATOM      1  N   UNL     1      -0.692  11.908  21.904  0.00  0.00    +0.000 NA
ATOM      2  C   UNL     1      -0.951  12.962  20.758  0.00  0.00    +0.000 C 
ATOM      3  C   UNL     1       0.117  14.177  20.699  0.00  0.00    +0.000 C 
ATOM      4  O   UNL     1       1.053  14.052  19.652  0.00  0.00    +0.000 OA
ATOM      5  C   UNL     1       1.503  12.732  19.715  0.00  0.00    +0.000 C 
ATOM      6  C   UNL     1       0.570  11.852  18.916  0.00  0.00    +0.000 C 
ATOM      7  O   UNL     1       1.442  10.879  18.530  0.00  0.00    +0.000 OA
ATOM      8  C   UNL     1       0.854   9.638  18.569  0.00  0.00    +0.000 C 
ATOM      9  C   UNL     1       2.050   8.911  19.044  0.00  0.00    +0.000 C 
ATOM     10  O   UNL     1       1.824   7.736  18.386  0.00  0.00    +0.000 OA
ATOM     11  C   UNL     1       2.864   6.880  18.635  0.00  0.00    +0.000 C 
ATOM     12  C   UNL     1       2.343   5.753  17.857  0.00  0.00    +0.000 C 
ATOM     13  O   UNL     1       3.421   4.912  17.926  0.00  0.00    +0.000 OA
ATOM     14  C   UNL     1       3.122   3.715  17.301  0.00  0.00    +0.000 C 
ATOM     15  C   UNL     1       3.959   2.839  18.157  0.00  0.00    +0.000 C 
ATOM     16  O   UNL     1       2.908   2.210  18.896  0.00  0.00    +0.000 OA
ATOM     17  C   UNL     1       2.496   2.982  20.208  0.00  0.00    +0.000 C 
ATOM     18  C   UNL     1       1.347   4.518  20.589  0.00  0.00    +0.000 C 
ATOM     19  O   UNL     1       1.287   6.344  21.060  0.00  0.00    +0.000 OA
ATOM     20  C   UNL     1       0.170   7.967  21.383  0.00  0.00    +0.000 C 
ATOM     21  C   UNL     1       0.129  10.060  21.792  0.00  0.00    +0.000 C 
ENDROOT
BRANCH   1  22
ATOM     22  C   UNL     1      -1.093  13.456  23.032  0.00  0.00    +0.000 C 
BRANCH  22  26
ATOM     23  C   UNL     1      -5.096  16.833  24.736  0.00  0.00    +0.000 A 
ATOM     24  C   UNL     1      -3.761  16.818  25.088  0.00  0.00    +0.000 A 
ATOM     25  C   UNL     1      -2.553  15.736  24.593  0.00  0.00    +0.000 A 
ATOM     26  C   UNL     1      -2.612  14.574  23.668  0.00  0.00    +0.000 A 
ATOM     27  C   UNL     1      -4.161  14.648  23.426  0.00  0.00    +0.000 A 
ATOM     28  C   UNL     1      -5.325  15.733  23.938  0.00  0.00    +0.000 A 
ENDBRANCH  22  26
ENDBRANCH   1  22
TORSDOF 2
ENDMDL
MODEL 4
REMARK VINA RESULT:      -8.0      3.657     11.456
REMARK  Name = 
REMARK  2 active torsions:
REMARK  status: ('A' for Active; 'I' for Inactive)
REMARK    1  A    between atoms: C_4  and  C_5
REMARK    2  A    between atoms: C_5  and  N_6
REMARK                            x       y       z     vdW  Elec       q    Type
REMARK                         _______ _______ _______ _____ _____    ______ ____
ROOT
ATOM      1  N   UNL     1       0.156  12.016  21.159  0.00  0.00    +0.000 NA
ATOM      2  C   UNL     1      -0.067  12.950  19.905  0.00  0.00    +0.000 C 
ATOM      3  C   UNL     1       1.112  14.028  19.643  0.00  0.00    +0.000 C 
ATOM      4  O   UNL     1       1.962  13.681  18.574  0.00  0.00    +0.000 OA
ATOM      5  C   UNL     1       2.281  12.336  18.776  0.00  0.00    +0.000 C 
ATOM      6  C   UNL     1       1.215  11.474  18.140  0.00  0.00    +0.000 C 
ATOM      7  O   UNL     1       1.959  10.375  17.834  0.00  0.00    +0.000 OA
ATOM      8  C   UNL     1       1.253   9.217  18.055  0.00  0.00    +0.000 C 
ATOM      9  C   UNL     1       2.397   8.426  18.556  0.00  0.00    +0.000 C 
ATOM     10  O   UNL     1       2.013   7.214  18.059  0.00  0.00    +0.000 OA
ATOM     11  C   UNL     1       2.975   6.286  18.359  0.00  0.00    +0.000 C 
ATOM     12  C   UNL     1       2.295   5.138  17.754  0.00  0.00    +0.000 C 
ATOM     13  O   UNL     1       3.286   4.200  17.871  0.00  0.00    +0.000 OA
ATOM     14  C   UNL     1       2.829   2.977  17.415  0.00  0.00    +0.000 C 
ATOM     15  C   UNL     1       3.626   2.123  18.329  0.00  0.00    +0.000 C 
ATOM     16  O   UNL     1       2.566   1.702  19.192  0.00  0.00    +0.000 OA
ATOM     17  C   UNL     1       2.317   2.662  20.418  0.00  0.00    +0.000 C 
ATOM     18  C   UNL     1       1.354   4.347  20.664  0.00  0.00    +0.000 C 
ATOM     19  O   UNL     1       1.508   6.211  20.909  0.00  0.00    +0.000 OA
ATOM     20  C   UNL     1       0.583   7.971  21.085  0.00  0.00    +0.000 C 
ATOM     21  C   UNL     1       0.779  10.090  21.233  0.00  0.00    +0.000 C 
ENDROOT
BRANCH   1  22
ATOM     22  C   UNL     1      -0.015  13.720  22.105  0.00  0.00    +0.000 C 
BRANCH  22  26
ATOM     23  C   UNL     1      -3.828  16.492  24.953  0.00  0.00    +0.000 A 
ATOM     24  C   UNL     1      -3.723  16.308  23.589  0.00  0.00    +0.000 A 
ATOM     25  C   UNL     1      -2.512  15.494  22.725  0.00  0.00    +0.000 A 
ATOM     26  C   UNL     1      -1.299  14.778  23.199  0.00  0.00    +0.000 A 
ATOM     27  C   UNL     1      -1.487  15.140  24.714  0.00  0.00    +0.000 A 
ATOM     28  C   UNL     1      -2.699  15.952  25.530  0.00  0.00    +0.000 A 
ENDBRANCH  22  26
ENDBRANCH   1  22
TORSDOF 2
ENDMDL
MODEL 5
REMARK VINA RESULT:      -8.0      3.234     10.147
REMARK  Name = 
REMARK  2 active torsions:
REMARK  status: ('A' for Active; 'I' for Inactive)
REMARK    1  A    between atoms: C_4  and  C_5
REMARK    2  A    between atoms: C_5  and  N_6
REMARK                            x       y       z     vdW  Elec       q    Type
REMARK                         _______ _______ _______ _____ _____    ______ ____
ROOT
ATOM      1  N   UNL     1       0.556  12.483  20.079  0.00  0.00    +0.000 NA
ATOM      2  C   UNL     1       0.387  12.901  21.592  0.00  0.00    +0.000 C 
ATOM      3  C   UNL     1      -1.144  13.112  22.072  0.00  0.00    +0.000 C 
ATOM      4  O   UNL     1      -1.637  12.051  22.858  0.00  0.00    +0.000 OA
ATOM      5  C   UNL     1      -1.275  10.887  22.176  0.00  0.00    +0.000 C 
ATOM      6  C   UNL     1       0.119  10.481  22.596  0.00  0.00    +0.000 C 
ATOM      7  O   UNL     1       0.029   9.132  22.424  0.00  0.00    +0.000 OA
ATOM      8  C   UNL     1       1.190   8.617  21.902  0.00  0.00    +0.000 C 
ATOM      9  C   UNL     1       0.542   7.607  21.039  0.00  0.00    +0.000 C 
ATOM     10  O   UNL     1       1.503   6.642  21.132  0.00  0.00    +0.000 OA
ATOM     11  C   UNL     1       1.095   5.540  20.429  0.00  0.00    +0.000 C 
ATOM     12  C   UNL     1       2.290   4.729  20.680  0.00  0.00    +0.000 C 
ATOM     13  O   UNL     1       1.875   3.541  20.141  0.00  0.00    +0.000 OA
ATOM     14  C   UNL     1       2.901   2.616  20.201  0.00  0.00    +0.000 C 
ATOM     15  C   UNL     1       2.556   1.867  18.969  0.00  0.00    +0.000 C 
ATOM     16  O   UNL     1       3.621   2.338  18.138  0.00  0.00    +0.000 OA
ATOM     17  C   UNL     1       3.280   3.660  17.348  0.00  0.00    +0.000 C 
ATOM     18  C   UNL     1       3.281   5.563  17.798  0.00  0.00    +0.000 C 
ATOM     19  O   UNL     1       2.222   7.076  18.187  0.00  0.00    +0.000 OA
ATOM     20  C   UNL     1       2.158   8.997  18.725  0.00  0.00    +0.000 C 
ATOM     21  C   UNL     1       0.945  10.660  19.285  0.00  0.00    +0.000 C 
ENDROOT
BRANCH   1  22
ATOM     22  C   UNL     1      -0.194  14.267  19.794  0.00  0.00    +0.000 C 
BRANCH  22  26
ATOM     23  C   UNL     1       0.716  18.630  16.560  0.00  0.00    +0.000 A 
ATOM     24  C   UNL     1       1.624  17.741  17.097  0.00  0.00    +0.000 A 
ATOM     25  C   UNL     1       1.330  16.432  18.135  0.00  0.00    +0.000 A 
ATOM     26  C   UNL     1       0.059  15.912  18.701  0.00  0.00    +0.000 A 
ATOM     27  C   UNL     1      -0.851  17.042  18.104  0.00  0.00    +0.000 A 
ATOM     28  C   UNL     1      -0.522  18.323  17.082  0.00  0.00    +0.000 A 
ENDBRANCH  22  26
ENDBRANCH   1  22
TORSDOF 2
ENDMDL
MODEL 6
REMARK VINA RESULT:      -7.7      4.160      6.754
REMARK  Name = 
REMARK  2 active torsions:
REMARK  status: ('A' for Active; 'I' for Inactive)
REMARK    1  A    between atoms: C_4  and  C_5
REMARK    2  A    between atoms: C_5  and  N_6
REMARK                            x       y       z     vdW  Elec       q    Type
REMARK                         _______ _______ _______ _____ _____    ______ ____
ROOT
ATOM      1  N   UNL     1       0.881   9.066  21.075  0.00  0.00    +0.000 NA
ATOM      2  C   UNL     1       1.875   9.506  19.931  0.00  0.00    +0.000 C 
ATOM      3  C   UNL     1       1.699   8.708  18.534  0.00  0.00    +0.000 C 
ATOM      4  O   UNL     1       1.048   9.461  17.535  0.00  0.00    +0.000 OA
ATOM      5  C   UNL     1      -0.067  10.021  18.163  0.00  0.00    +0.000 C 
ATOM      6  C   UNL     1       0.333  11.326  18.812  0.00  0.00    +0.000 C 
ATOM      7  O   UNL     1      -0.853  11.992  18.745  0.00  0.00    +0.000 OA
ATOM      8  C   UNL     1      -1.077  12.729  19.882  0.00  0.00    +0.000 C 
ATOM      9  C   UNL     1      -2.535  12.492  19.940  0.00  0.00    +0.000 C 
ATOM     10  O   UNL     1      -2.896  13.700  20.462  0.00  0.00    +0.000 OA
ATOM     11  C   UNL     1      -4.261  13.748  20.567  0.00  0.00    +0.000 C 
ATOM     12  C   UNL     1      -4.337  15.087  21.158  0.00  0.00    +0.000 C 
ATOM     13  O   UNL     1      -5.694  15.269  21.135  0.00  0.00    +0.000 OA
ATOM     14  C   UNL     1      -6.015  16.475  21.730  0.00  0.00    +0.000 C 
ATOM     15  C   UNL     1      -7.329  16.070  22.285  0.00  0.00    +0.000 C 
ATOM     16  O   UNL     1      -6.954  15.993  23.664  0.00  0.00    +0.000 OA
ATOM     17  C   UNL     1      -6.411  14.578  24.101  0.00  0.00    +0.000 C 
ATOM     18  C   UNL     1      -4.684  13.671  23.961  0.00  0.00    +0.000 C 
ATOM     19  O   UNL     1      -3.694  12.328  23.081  0.00  0.00    +0.000 OA
ATOM     20  C   UNL     1      -1.935  11.416  22.835  0.00  0.00    +0.000 C 
ATOM     21  C   UNL     1      -0.801   9.979  21.740  0.00  0.00    +0.000 C 
ENDROOT
BRANCH   1  22
ATOM     22  C   UNL     1       1.880   7.392  20.913  0.00  0.00    +0.000 C 
BRANCH  22  26
ATOM     23  C   UNL     1       1.285   2.347  18.785  0.00  0.00    +0.000 A 
ATOM     24  C   UNL     1       1.133   2.764  20.092  0.00  0.00    +0.000 A 
ATOM     25  C   UNL     1       1.372   4.313  20.739  0.00  0.00    +0.000 A 
ATOM     26  C   UNL     1       1.776   5.585  20.084  0.00  0.00    +0.000 A 
ATOM     27  C   UNL     1       2.003   4.961  18.662  0.00  0.00    +0.000 A 
ATOM     28  C   UNL     1       1.758   3.420  18.062  0.00  0.00    +0.000 A 
ENDBRANCH  22  26
ENDBRANCH   1  22
TORSDOF 2
ENDMDL
MODEL 7
REMARK VINA RESULT:      -7.6      3.321     11.584
REMARK  Name = 
REMARK  2 active torsions:
REMARK  status: ('A' for Active; 'I' for Inactive)
REMARK    1  A    between atoms: C_4  and  C_5
REMARK    2  A    between atoms: C_5  and  N_6
REMARK                            x       y       z     vdW  Elec       q    Type
REMARK                         _______ _______ _______ _____ _____    ______ ____
ROOT
ATOM      1  N   UNL     1      -1.445  12.117  21.746  0.00  0.00    +0.000 NA
ATOM      2  C   UNL     1      -1.895  13.073  20.573  0.00  0.00    +0.000 C 
ATOM      3  C   UNL     1      -1.030  14.434  20.437  0.00  0.00    +0.000 C 
ATOM      4  O   UNL     1      -0.116  14.414  19.365  0.00  0.00    +0.000 OA
ATOM      5  C   UNL     1       0.536  13.181  19.458  0.00  0.00    +0.000 C 
ATOM      6  C   UNL     1      -0.272  12.138  18.721  0.00  0.00    +0.000 C 
ATOM      7  O   UNL     1       0.729  11.296  18.340  0.00  0.00    +0.000 OA
ATOM      8  C   UNL     1       0.342   9.982  18.442  0.00  0.00    +0.000 C 
ATOM      9  C   UNL     1       1.649   9.466  18.901  0.00  0.00    +0.000 C 
ATOM     10  O   UNL     1       1.589   8.246  18.292  0.00  0.00    +0.000 OA
ATOM     11  C   UNL     1       2.755   7.571  18.535  0.00  0.00    +0.000 C 
ATOM     12  C   UNL     1       2.393   6.347  17.815  0.00  0.00    +0.000 C 
ATOM     13  O   UNL     1       3.591   5.685  17.876  0.00  0.00    +0.000 OA
ATOM     14  C   UNL     1       3.463   4.433  17.304  0.00  0.00    +0.000 C 
ATOM     15  C   UNL     1       4.449   3.730  18.160  0.00  0.00    +0.000 C 
ATOM     16  O   UNL     1       3.528   2.977  18.955  0.00  0.00    +0.000 OA
ATOM     17  C   UNL     1       3.039   3.727  20.253  0.00  0.00    +0.000 C 
ATOM     18  C   UNL     1       1.676   5.081  20.619  0.00  0.00    +0.000 C 
ATOM     19  O   UNL     1       1.347   6.894  21.029  0.00  0.00    +0.000 OA
ATOM     20  C   UNL     1       0.002   8.337  21.332  0.00  0.00    +0.000 C 
ATOM     21  C   UNL     1      -0.351  10.414  21.670  0.00  0.00    +0.000 C 
ENDROOT
BRANCH   1  22
ATOM     22  C   UNL     1      -2.049  13.628  22.833  0.00  0.00    +0.000 C 
BRANCH  22  26
ATOM     23  C   UNL     1      -0.262  17.635  26.160  0.00  0.00    +0.000 A 
ATOM     24  C   UNL     1       0.075  17.380  24.847  0.00  0.00    +0.000 A 
ATOM     25  C   UNL     1      -0.446  16.109  23.852  0.00  0.00    +0.000 A 
ATOM     26  C   UNL     1      -1.383  14.988  24.125  0.00  0.00    +0.000 A 
ATOM     27  C   UNL     1      -1.606  15.337  25.638  0.00  0.00    +0.000 A 
ATOM     28  C   UNL     1      -1.069  16.603  26.588  0.00  0.00    +0.000 A 
ENDBRANCH  22  26
ENDBRANCH   1  22
TORSDOF 2
ENDMDL
MODEL 8
REMARK VINA RESULT:      -7.5      3.290     11.903
REMARK  Name = 
REMARK  2 active torsions:
REMARK  status: ('A' for Active; 'I' for Inactive)
REMARK    1  A    between atoms: C_4  and  C_5
REMARK    2  A    between atoms: C_5  and  N_6
REMARK                            x       y       z     vdW  Elec       q    Type
REMARK                         _______ _______ _______ _____ _____    ______ ____
ROOT
ATOM      1  N   UNL     1      -1.571  11.933  21.865  0.00  0.00    +0.000 NA
ATOM      2  C   UNL     1      -2.011  12.910  20.705  0.00  0.00    +0.000 C 
ATOM      3  C   UNL     1      -1.171  14.291  20.625  0.00  0.00    +0.000 C 
ATOM      4  O   UNL     1      -0.231  14.315  19.574  0.00  0.00    +0.000 OA
ATOM      5  C   UNL     1       0.442  13.093  19.652  0.00  0.00    +0.000 C 
ATOM      6  C   UNL     1      -0.327  12.054  18.870  0.00  0.00    +0.000 C 
ATOM      7  O   UNL     1       0.699  11.241  18.493  0.00  0.00    +0.000 OA
ATOM      8  C   UNL     1       0.336   9.918  18.551  0.00  0.00    +0.000 C 
ATOM      9  C   UNL     1       1.641   9.416  19.030  0.00  0.00    +0.000 C 
ATOM     10  O   UNL     1       1.620   8.211  18.388  0.00  0.00    +0.000 OA
ATOM     11  C   UNL     1       2.793   7.551  18.643  0.00  0.00    +0.000 C 
ATOM     12  C   UNL     1       2.473   6.340  17.883  0.00  0.00    +0.000 C 
ATOM     13  O   UNL     1       3.681   5.700  17.957  0.00  0.00    +0.000 OA
ATOM     14  C   UNL     1       3.592   4.461  17.350  0.00  0.00    +0.000 C 
ATOM     15  C   UNL     1       4.570   3.755  18.213  0.00  0.00    +0.000 C 
ATOM     16  O   UNL     1       3.646   2.964  18.966  0.00  0.00    +0.000 OA
ATOM     17  C   UNL     1       3.111   3.671  20.270  0.00  0.00    +0.000 C 
ATOM     18  C   UNL     1       1.714   4.990  20.637  0.00  0.00    +0.000 C 
ATOM     19  O   UNL     1       1.340   6.784  21.084  0.00  0.00    +0.000 OA
ATOM     20  C   UNL     1      -0.040   8.194  21.391  0.00  0.00    +0.000 C 
ATOM     21  C   UNL     1      -0.441  10.254  21.772  0.00  0.00    +0.000 C 
ENDROOT
BRANCH   1  22
ATOM     22  C   UNL     1      -2.230  13.404  22.973  0.00  0.00    +0.000 C 
BRANCH  22  26
ATOM     23  C   UNL     1      -6.497  16.784  23.807  0.00  0.00    +0.000 A 
ATOM     24  C   UNL     1      -5.251  16.793  24.400  0.00  0.00    +0.000 A 
ATOM     25  C   UNL     1      -3.966  15.711  24.169  0.00  0.00    +0.000 A 
ATOM     26  C   UNL     1      -3.847  14.523  23.284  0.00  0.00    +0.000 A 
ATOM     27  C   UNL     1      -5.324  14.574  22.758  0.00  0.00    +0.000 A 
ATOM     28  C   UNL     1      -6.568  15.660  23.013  0.00  0.00    +0.000 A 
ENDBRANCH  22  26
ENDBRANCH   1  22
TORSDOF 2
ENDMDL
MODEL 9
REMARK VINA RESULT:      -7.3      3.454     11.412
REMARK  Name = 
REMARK  2 active torsions:
REMARK  status: ('A' for Active; 'I' for Inactive)
REMARK    1  A    between atoms: C_4  and  C_5
REMARK    2  A    between atoms: C_5  and  N_6
REMARK                            x       y       z     vdW  Elec       q    Type
REMARK                         _______ _______ _______ _____ _____    ______ ____
ROOT
ATOM      1  N   UNL     1      -1.135  12.135  21.330  0.00  0.00    +0.000 NA
ATOM      2  C   UNL     1      -1.348  13.082  20.085  0.00  0.00    +0.000 C 
ATOM      3  C   UNL     1      -0.344  14.349  20.015  0.00  0.00    +0.000 C 
ATOM      4  O   UNL     1       0.684  14.199  19.061  0.00  0.00    +0.000 OA
ATOM      5  C   UNL     1       1.195  12.916  19.267  0.00  0.00    +0.000 C 
ATOM      6  C   UNL     1       0.380  11.925  18.468  0.00  0.00    +0.000 C 
ATOM      7  O   UNL     1       1.331  10.978  18.235  0.00  0.00    +0.000 OA
ATOM      8  C   UNL     1       0.808   9.711  18.326  0.00  0.00    +0.000 C 
ATOM      9  C   UNL     1       1.995   9.093  18.954  0.00  0.00    +0.000 C 
ATOM     10  O   UNL     1       1.887   7.861  18.377  0.00  0.00    +0.000 OA
ATOM     11  C   UNL     1       2.944   7.089  18.778  0.00  0.00    +0.000 C 
ATOM     12  C   UNL     1       2.551   5.877  18.054  0.00  0.00    +0.000 C 
ATOM     13  O   UNL     1       3.662   5.108  18.278  0.00  0.00    +0.000 OA
ATOM     14  C   UNL     1       3.480   3.852  17.730  0.00  0.00    +0.000 C 
ATOM     15  C   UNL     1       4.284   3.094  18.719  0.00  0.00    +0.000 C 
ATOM     16  O   UNL     1       3.208   2.463  19.418  0.00  0.00    +0.000 OA
ATOM     17  C   UNL     1       2.646   3.307  20.626  0.00  0.00    +0.000 C 
ATOM     18  C   UNL     1       1.390   4.797  20.787  0.00  0.00    +0.000 C 
ATOM     19  O   UNL     1       1.195   6.648  21.102  0.00  0.00    +0.000 OA
ATOM     20  C   UNL     1      -0.028   8.222  21.201  0.00  0.00    +0.000 C 
ATOM     21  C   UNL     1      -0.211  10.335  21.434  0.00  0.00    +0.000 C 
ENDROOT
BRANCH   1  22
ATOM     22  C   UNL     1      -1.710  13.738  22.293  0.00  0.00    +0.000 C 
BRANCH  22  26
ATOM     23  C   UNL     1       0.112  17.127  26.233  0.00  0.00    +0.000 A 
ATOM     24  C   UNL     1      -0.744  16.050  26.339  0.00  0.00    +0.000 A 
ATOM     25  C   UNL     1      -1.336  15.049  25.105  0.00  0.00    +0.000 A 
ATOM     26  C   UNL     1      -1.081  15.061  23.641  0.00  0.00    +0.000 A 
ATOM     27  C   UNL     1      -0.195  16.357  23.650  0.00  0.00    +0.000 A 
ATOM     28  C   UNL     1       0.366  17.322  24.893  0.00  0.00    +0.000 A 
ENDBRANCH  22  26
ENDBRANCH   1  22
TORSDOF 2
ENDMDL
