MODEL 1
REMARK VINA RESULT:      -7.0      0.000      0.000
REMARK  Name = 
REMARK  12 active torsions:
REMARK  status: ('A' for Active; 'I' for Inactive)
REMARK    1  A    between atoms: C_1  and  C_2
REMARK    2  A    between atoms: C_2  and  O_3
REMARK    3  A    between atoms: O_3  and  C_4
REMARK    4  A    between atoms: C_9  and  C_10
REMARK    5  A    between atoms: C_10  and  N_11
REMARK    6  A    between atoms: N_14  and  C_15
REMARK    7  A    between atoms: C_15  and  C_16
REMARK    8  A    between atoms: C_23  and  O_24
REMARK    9  A    between atoms: O_24  and  C_25
REMARK   10  A    between atoms: C_29  and  C_30
REMARK   11  A    between atoms: C_30  and  C_31
REMARK   12  A    between atoms: C_31  and  O_32
REMARK                            x       y       z     vdW  Elec       q    Type
REMARK                         _______ _______ _______ _____ _____    ______ ____
ROOT
ATOM      1  N   UNL     1       5.030   4.567  16.181  0.00  0.00    +0.000 NA
ATOM      2  C   UNL     1       3.611   4.264  16.400  0.00  0.00    +0.000 C 
ATOM      3  C   UNL     1       3.030   3.948  17.804  0.00  0.00    +0.000 C 
ATOM      4  N   UNL     1       3.831   4.163  19.001  0.00  0.00    +0.000 NA
ATOM      5  C   UNL     1       5.270   4.238  18.733  0.00  0.00    +0.000 C 
ATOM      6  C   UNL     1       5.809   4.879  17.406  0.00  0.00    +0.000 C 
ENDROOT
BRANCH   1   7
ATOM      7  C   UNL     1       5.707   3.585  15.296  0.00  0.00    +0.000 C 
BRANCH   7  13
ATOM      8  C   UNL     1       6.262   3.658  12.782  0.00  0.00    +0.000 A 
ATOM      9  C   UNL     1       7.029   4.155  11.720  0.00  0.00    +0.000 A 
ATOM     10  C   UNL     1       7.956   5.185  11.939  0.00  0.00    +0.000 A 
ATOM     11  C   UNL     1       8.132   5.710  13.218  0.00  0.00    +0.000 A 
ATOM     12  C   UNL     1       7.412   5.178  14.292  0.00  0.00    +0.000 A 
ATOM     13  C   UNL     1       6.465   4.157  14.093  0.00  0.00    +0.000 A 
BRANCH   8  14
ATOM     14  O   UNL     1       5.196   2.811  12.612  0.00  0.00    +0.000 OA
BRANCH  14  16
ATOM     15  C   UNL     1       3.690   3.541  10.839  0.00  0.00    +0.000 C 
ATOM     16  C   UNL     1       4.716   2.515  11.300  0.00  0.00    +0.000 C 
ENDBRANCH  14  16
ENDBRANCH   8  14
ENDBRANCH   7  13
ENDBRANCH   1   7
BRANCH   4  17
ATOM     17  C   UNL     1       3.266   5.039  20.065  0.00  0.00    +0.000 C 
BRANCH  17  18
ATOM     18  C   UNL     1       2.643   6.407  19.653  0.00  0.00    +0.000 A 
ATOM     19  C   UNL     1       2.855   6.900  18.374  0.00  0.00    +0.000 A 
ATOM     20  C   UNL     1       2.363   8.143  18.031  0.00  0.00    +0.000 A 
ATOM     21  C   UNL     1       1.547   8.866  18.912  0.00  0.00    +0.000 A 
ATOM     22  C   UNL     1       1.051  10.110  18.474  0.00  0.00    +0.000 A 
ATOM     23  C   UNL     1       0.126  10.815  19.223  0.00  0.00    +0.000 A 
ATOM     24  C   UNL     1      -0.289  10.276  20.419  0.00  0.00    +0.000 A 
ATOM     25  C   UNL     1       0.253   9.058  20.902  0.00  0.00    +0.000 A 
ATOM     26  C   UNL     1       1.218   8.295  20.167  0.00  0.00    +0.000 A 
ATOM     27  N   UNL     1       1.812   7.094  20.531  0.00  0.00    +0.000 NA
BRANCH  25  28
ATOM     28  O   UNL     1      -0.349   8.773  22.106  0.00  0.00    +0.000 OA
ATOM     29  C   UNL     1      -0.281   9.711  23.158  0.00  0.00    +0.000 C 
ENDBRANCH  25  28
ENDBRANCH  17  18
ENDBRANCH   4  17
BRANCH   6  30
ATOM     30  C   UNL     1       6.020   6.411  17.515  0.00  0.00    +0.000 C 
BRANCH  30  31
ATOM     31  C   UNL     1       7.474   6.817  17.800  0.00  0.00    +0.000 C 
BRANCH  31  32
ATOM     32  O   UNL     1       7.737   8.084  17.203  0.00  0.00    +0.000 OA
ATOM     33  H   UNL     1       7.878   7.945  16.251  0.00  0.00    +0.000 HD
ENDBRANCH  31  32
ENDBRANCH  30  31
ENDBRANCH   6  30
TORSDOF 10
ENDMDL
MODEL 2
REMARK VINA RESULT:      -7.0      4.066     10.430
REMARK  Name = 
REMARK  12 active torsions:
REMARK  status: ('A' for Active; 'I' for Inactive)
REMARK    1  A    between atoms: C_1  and  C_2
REMARK    2  A    between atoms: C_2  and  O_3
REMARK    3  A    between atoms: O_3  and  C_4
REMARK    4  A    between atoms: C_9  and  C_10
REMARK    5  A    between atoms: C_10  and  N_11
REMARK    6  A    between atoms: N_14  and  C_15
REMARK    7  A    between atoms: C_15  and  C_16
REMARK    8  A    between atoms: C_23  and  O_24
REMARK    9  A    between atoms: O_24  and  C_25
REMARK   10  A    between atoms: C_29  and  C_30
REMARK   11  A    between atoms: C_30  and  C_31
REMARK   12  A    between atoms: C_31  and  O_32
REMARK                            x       y       z     vdW  Elec       q    Type
REMARK                         _______ _______ _______ _____ _____    ______ ____
ROOT
ATOM      1  N   UNL     1      -0.162  12.209  19.417  0.00  0.00    +0.000 NA
ATOM      2  C   UNL     1       1.119  12.359  18.714  0.00  0.00    +0.000 C 
ATOM      3  C   UNL     1       2.089  11.171  18.481  0.00  0.00    +0.000 C 
ATOM      4  N   UNL     1       1.664   9.805  18.752  0.00  0.00    +0.000 NA
ATOM      5  C   UNL     1       0.504   9.722  19.644  0.00  0.00    +0.000 C 
ATOM      6  C   UNL     1      -0.626  10.810  19.599  0.00  0.00    +0.000 C 
ENDROOT
BRANCH   1   7
ATOM      7  C   UNL     1      -0.241  13.014  20.662  0.00  0.00    +0.000 C 
BRANCH   7  13
ATOM      8  C   UNL     1      -1.939  12.291  22.460  0.00  0.00    +0.000 A 
ATOM      9  C   UNL     1      -3.230  12.338  23.002  0.00  0.00    +0.000 A 
ATOM     10  C   UNL     1      -4.186  13.221  22.476  0.00  0.00    +0.000 A 
ATOM     11  C   UNL     1      -3.862  14.044  21.400  0.00  0.00    +0.000 A 
ATOM     12  C   UNL     1      -2.595  13.960  20.817  0.00  0.00    +0.000 A 
ATOM     13  C   UNL     1      -1.615  13.094  21.338  0.00  0.00    +0.000 A 
BRANCH   8  14
ATOM     14  O   UNL     1      -0.897  11.618  23.047  0.00  0.00    +0.000 OA
BRANCH  14  16
ATOM     15  C   UNL     1       0.381   9.543  23.104  0.00  0.00    +0.000 C 
ATOM     16  C   UNL     1      -0.979  10.209  23.257  0.00  0.00    +0.000 C 
ENDBRANCH  14  16
ENDBRANCH   8  14
ENDBRANCH   7  13
ENDBRANCH   1   7
BRANCH   4  17
ATOM     17  C   UNL     1       1.775   8.812  17.648  0.00  0.00    +0.000 C 
BRANCH  17  18
ATOM     18  C   UNL     1       2.625   7.526  17.881  0.00  0.00    +0.000 A 
ATOM     19  C   UNL     1       3.927   7.469  17.406  0.00  0.00    +0.000 A 
ATOM     20  C   UNL     1       4.656   6.306  17.551  0.00  0.00    +0.000 A 
ATOM     21  C   UNL     1       4.149   5.221  18.280  0.00  0.00    +0.000 A 
ATOM     22  C   UNL     1       4.969   4.083  18.418  0.00  0.00    +0.000 A 
ATOM     23  C   UNL     1       4.604   3.032  19.240  0.00  0.00    +0.000 A 
ATOM     24  C   UNL     1       3.406   3.120  19.912  0.00  0.00    +0.000 A 
ATOM     25  C   UNL     1       2.541   4.228  19.729  0.00  0.00    +0.000 A 
ATOM     26  C   UNL     1       2.871   5.337  18.884  0.00  0.00    +0.000 A 
ATOM     27  N   UNL     1       2.115   6.474  18.633  0.00  0.00    +0.000 NA
BRANCH  25  28
ATOM     28  O   UNL     1       1.434   4.039  20.525  0.00  0.00    +0.000 OA
ATOM     29  C   UNL     1       1.490   3.106  21.583  0.00  0.00    +0.000 C 
ENDBRANCH  25  28
ENDBRANCH  17  18
ENDBRANCH   4  17
BRANCH   6  30
ATOM     30  C   UNL     1      -1.735  10.489  18.563  0.00  0.00    +0.000 C 
BRANCH  30  31
ATOM     31  C   UNL     1      -2.182  11.706  17.739  0.00  0.00    +0.000 C 
BRANCH  31  32
ATOM     32  O   UNL     1      -3.546  11.998  18.028  0.00  0.00    +0.000 OA
ATOM     33  H   UNL     1      -4.101  11.380  17.522  0.00  0.00    +0.000 HD
ENDBRANCH  31  32
ENDBRANCH  30  31
ENDBRANCH   6  30
TORSDOF 10
ENDMDL
MODEL 3
REMARK VINA RESULT:      -7.0      4.526      7.905
REMARK  Name = 
REMARK  12 active torsions:
REMARK  status: ('A' for Active; 'I' for Inactive)
REMARK    1  A    between atoms: C_1  and  C_2
REMARK    2  A    between atoms: C_2  and  O_3
REMARK    3  A    between atoms: O_3  and  C_4
REMARK    4  A    between atoms: C_9  and  C_10
REMARK    5  A    between atoms: C_10  and  N_11
REMARK    6  A    between atoms: N_14  and  C_15
REMARK    7  A    between atoms: C_15  and  C_16
REMARK    8  A    between atoms: C_23  and  O_24
REMARK    9  A    between atoms: O_24  and  C_25
REMARK   10  A    between atoms: C_29  and  C_30
REMARK   11  A    between atoms: C_30  and  C_31
REMARK   12  A    between atoms: C_31  and  O_32
REMARK                            x       y       z     vdW  Elec       q    Type
REMARK                         _______ _______ _______ _____ _____    ______ ____
ROOT
ATOM      1  N   UNL     1       0.713   9.101  20.493  0.00  0.00    +0.000 NA
ATOM      2  C   UNL     1      -0.401   9.159  21.447  0.00  0.00    +0.000 C 
ATOM      3  C   UNL     1      -0.710  10.420  22.296  0.00  0.00    +0.000 C 
ATOM      4  N   UNL     1      -0.042  11.683  22.015  0.00  0.00    +0.000 NA
ATOM      5  C   UNL     1       1.191  11.529  21.238  0.00  0.00    +0.000 C 
ATOM      6  C   UNL     1       1.319  10.410  20.145  0.00  0.00    +0.000 C 
ENDROOT
BRANCH   1   7
ATOM      7  C   UNL     1       1.722   8.067  20.837  0.00  0.00    +0.000 C 
BRANCH   7  13
ATOM      8  C   UNL     1       2.318   5.807  19.752  0.00  0.00    +0.000 A 
ATOM      9  C   UNL     1       2.885   5.076  18.700  0.00  0.00    +0.000 A 
ATOM     10  C   UNL     1       3.340   5.732  17.547  0.00  0.00    +0.000 A 
ATOM     11  C   UNL     1       3.247   7.119  17.447  0.00  0.00    +0.000 A 
ATOM     12  C   UNL     1       2.737   7.860  18.516  0.00  0.00    +0.000 A 
ATOM     13  C   UNL     1       2.259   7.221  19.676  0.00  0.00    +0.000 A 
BRANCH   8  14
ATOM     14  O   UNL     1       1.662   5.227  20.808  0.00  0.00    +0.000 OA
BRANCH  14  16
ATOM     15  C   UNL     1       1.295   2.852  21.217  0.00  0.00    +0.000 C 
ATOM     16  C   UNL     1       2.197   4.060  21.432  0.00  0.00    +0.000 C 
ENDBRANCH  14  16
ENDBRANCH   8  14
ENDBRANCH   7  13
ENDBRANCH   1   7
BRANCH   4  17
ATOM     17  C   UNL     1      -0.895  12.875  21.753  0.00  0.00    +0.000 C 
BRANCH  17  18
ATOM     18  C   UNL     1      -2.226  12.682  20.964  0.00  0.00    +0.000 A 
ATOM     19  C   UNL     1      -3.409  13.190  21.481  0.00  0.00    +0.000 A 
ATOM     20  C   UNL     1      -4.597  12.959  20.818  0.00  0.00    +0.000 A 
ATOM     21  C   UNL     1      -4.617  12.328  19.567  0.00  0.00    +0.000 A 
ATOM     22  C   UNL     1      -5.866  12.164  18.935  0.00  0.00    +0.000 A 
ATOM     23  C   UNL     1      -5.956  11.684  17.640  0.00  0.00    +0.000 A 
ATOM     24  C   UNL     1      -4.789  11.355  16.988  0.00  0.00    +0.000 A 
ATOM     25  C   UNL     1      -3.533  11.451  17.636  0.00  0.00    +0.000 A 
ATOM     26  C   UNL     1      -3.389  11.935  18.977  0.00  0.00    +0.000 A 
ATOM     27  N   UNL     1      -2.219  12.081  19.711  0.00  0.00    +0.000 NA
BRANCH  25  28
ATOM     28  O   UNL     1      -2.562  11.062  16.741  0.00  0.00    +0.000 OA
ATOM     29  C   UNL     1      -2.919  10.790  15.403  0.00  0.00    +0.000 C 
ENDBRANCH  25  28
ENDBRANCH  17  18
ENDBRANCH   4  17
BRANCH   6  30
ATOM     30  C   UNL     1       0.814  10.865  18.751  0.00  0.00    +0.000 C 
BRANCH  30  31
ATOM     31  C   UNL     1       1.215  12.302  18.385  0.00  0.00    +0.000 C 
BRANCH  31  32
ATOM     32  O   UNL     1       2.356  12.272  17.531  0.00  0.00    +0.000 OA
ATOM     33  H   UNL     1       2.089  11.874  16.685  0.00  0.00    +0.000 HD
ENDBRANCH  31  32
ENDBRANCH  30  31
ENDBRANCH   6  30
TORSDOF 10
ENDMDL
MODEL 4
REMARK VINA RESULT:      -6.8      4.213      7.739
REMARK  Name = 
REMARK  12 active torsions:
REMARK  status: ('A' for Active; 'I' for Inactive)
REMARK    1  A    between atoms: C_1  and  C_2
REMARK    2  A    between atoms: C_2  and  O_3
REMARK    3  A    between atoms: O_3  and  C_4
REMARK    4  A    between atoms: C_9  and  C_10
REMARK    5  A    between atoms: C_10  and  N_11
REMARK    6  A    between atoms: N_14  and  C_15
REMARK    7  A    between atoms: C_15  and  C_16
REMARK    8  A    between atoms: C_23  and  O_24
REMARK    9  A    between atoms: O_24  and  C_25
REMARK   10  A    between atoms: C_29  and  C_30
REMARK   11  A    between atoms: C_30  and  C_31
REMARK   12  A    between atoms: C_31  and  O_32
REMARK                            x       y       z     vdW  Elec       q    Type
REMARK                         _______ _______ _______ _____ _____    ______ ____
ROOT
ATOM      1  N   UNL     1       0.872   8.742  20.463  0.00  0.00    +0.000 NA
ATOM      2  C   UNL     1      -0.229   8.835  21.430  0.00  0.00    +0.000 C 
ATOM      3  C   UNL     1      -0.504  10.115  22.263  0.00  0.00    +0.000 C 
ATOM      4  N   UNL     1       0.183  11.361  21.954  0.00  0.00    +0.000 NA
ATOM      5  C   UNL     1       1.403  11.172  21.164  0.00  0.00    +0.000 C 
ATOM      6  C   UNL     1       1.497  10.035  20.087  0.00  0.00    +0.000 C 
ENDROOT
BRANCH   1   7
ATOM      7  C   UNL     1       1.866   7.695  20.810  0.00  0.00    +0.000 C 
BRANCH   7  13
ATOM      8  C   UNL     1       2.237   6.275  18.693  0.00  0.00    +0.000 A 
ATOM      9  C   UNL     1       2.066   5.076  17.988  0.00  0.00    +0.000 A 
ATOM     10  C   UNL     1       1.493   3.960  18.618  0.00  0.00    +0.000 A 
ATOM     11  C   UNL     1       1.075   4.042  19.944  0.00  0.00    +0.000 A 
ATOM     12  C   UNL     1       1.188   5.252  20.635  0.00  0.00    +0.000 A 
ATOM     13  C   UNL     1       1.775   6.379  20.029  0.00  0.00    +0.000 A 
BRANCH   8  14
ATOM     14  O   UNL     1       2.974   7.331  18.220  0.00  0.00    +0.000 OA
BRANCH  14  16
ATOM     15  C   UNL     1       5.165   6.288  17.983  0.00  0.00    +0.000 C 
ATOM     16  C   UNL     1       4.061   7.103  17.323  0.00  0.00    +0.000 C 
ENDBRANCH  14  16
ENDBRANCH   8  14
ENDBRANCH   7  13
ENDBRANCH   1   7
BRANCH   4  17
ATOM     17  C   UNL     1      -0.652  12.564  21.684  0.00  0.00    +0.000 C 
BRANCH  17  18
ATOM     18  C   UNL     1      -1.999  12.383  20.920  0.00  0.00    +0.000 A 
ATOM     19  C   UNL     1      -3.184  12.790  21.515  0.00  0.00    +0.000 A 
ATOM     20  C   UNL     1      -4.383  12.566  20.870  0.00  0.00    +0.000 A 
ATOM     21  C   UNL     1      -4.418  12.047  19.568  0.00  0.00    +0.000 A 
ATOM     22  C   UNL     1      -5.679  11.884  18.961  0.00  0.00    +0.000 A 
ATOM     23  C   UNL     1      -5.792  11.517  17.632  0.00  0.00    +0.000 A 
ATOM     24  C   UNL     1      -4.635  11.297  16.919  0.00  0.00    +0.000 A 
ATOM     25  C   UNL     1      -3.363  11.391  17.536  0.00  0.00    +0.000 A 
ATOM     26  C   UNL     1      -3.195  11.762  18.910  0.00  0.00    +0.000 A 
ATOM     27  N   UNL     1      -2.009  11.895  19.619  0.00  0.00    +0.000 NA
BRANCH  25  28
ATOM     28  O   UNL     1      -2.407  11.125  16.582  0.00  0.00    +0.000 OA
ATOM     29  C   UNL     1      -2.803  10.644  15.316  0.00  0.00    +0.000 C 
ENDBRANCH  25  28
ENDBRANCH  17  18
ENDBRANCH   4  17
BRANCH   6  30
ATOM     30  C   UNL     1       0.981  10.477  18.692  0.00  0.00    +0.000 C 
BRANCH  30  31
ATOM     31  C   UNL     1       1.274  11.949  18.363  0.00  0.00    +0.000 C 
BRANCH  31  32
ATOM     32  O   UNL     1       0.102  12.556  17.826  0.00  0.00    +0.000 OA
ATOM     33  H   UNL     1      -0.144  12.075  17.017  0.00  0.00    +0.000 HD
ENDBRANCH  31  32
ENDBRANCH  30  31
ENDBRANCH   6  30
TORSDOF 10
ENDMDL
MODEL 5
REMARK VINA RESULT:      -6.8      4.581     11.154
REMARK  Name = 
REMARK  12 active torsions:
REMARK  status: ('A' for Active; 'I' for Inactive)
REMARK    1  A    between atoms: C_1  and  C_2
REMARK    2  A    between atoms: C_2  and  O_3
REMARK    3  A    between atoms: O_3  and  C_4
REMARK    4  A    between atoms: C_9  and  C_10
REMARK    5  A    between atoms: C_10  and  N_11
REMARK    6  A    between atoms: N_14  and  C_15
REMARK    7  A    between atoms: C_15  and  C_16
REMARK    8  A    between atoms: C_23  and  O_24
REMARK    9  A    between atoms: O_24  and  C_25
REMARK   10  A    between atoms: C_29  and  C_30
REMARK   11  A    between atoms: C_30  and  C_31
REMARK   12  A    between atoms: C_31  and  O_32
REMARK                            x       y       z     vdW  Elec       q    Type
REMARK                         _______ _______ _______ _____ _____    ______ ____
ROOT
ATOM      1  N   UNL     1      -0.864  11.972  21.171  0.00  0.00    +0.000 NA
ATOM      2  C   UNL     1      -0.763  11.127  22.368  0.00  0.00    +0.000 C 
ATOM      3  C   UNL     1      -0.349   9.634  22.305  0.00  0.00    +0.000 C 
ATOM      4  N   UNL     1       0.179   9.064  21.073  0.00  0.00    +0.000 NA
ATOM      5  C   UNL     1      -0.148   9.851  19.881  0.00  0.00    +0.000 C 
ATOM      6  C   UNL     1      -0.234  11.416  19.947  0.00  0.00    +0.000 C 
ENDROOT
BRANCH   1   7
ATOM      7  C   UNL     1      -2.236  12.488  20.936  0.00  0.00    +0.000 C 
BRANCH   7  13
ATOM      8  C   UNL     1      -4.091  13.509  22.403  0.00  0.00    +0.000 A 
ATOM      9  C   UNL     1      -4.548  14.525  23.254  0.00  0.00    +0.000 A 
ATOM     10  C   UNL     1      -3.672  15.532  23.687  0.00  0.00    +0.000 A 
ATOM     11  C   UNL     1      -2.345  15.538  23.262  0.00  0.00    +0.000 A 
ATOM     12  C   UNL     1      -1.898  14.561  22.367  0.00  0.00    +0.000 A 
ATOM     13  C   UNL     1      -2.755  13.533  21.932  0.00  0.00    +0.000 A 
BRANCH   8  14
ATOM     14  O   UNL     1      -4.820  12.385  22.110  0.00  0.00    +0.000 OA
BRANCH  14  16
ATOM     15  C   UNL     1      -7.248  12.217  21.968  0.00  0.00    +0.000 C 
ATOM     16  C   UNL     1      -5.940  12.465  21.229  0.00  0.00    +0.000 C 
ENDBRANCH  14  16
ENDBRANCH   8  14
ENDBRANCH   7  13
ENDBRANCH   1   7
BRANCH   4  17
ATOM     17  C   UNL     1       1.508   8.396  21.132  0.00  0.00    +0.000 C 
BRANCH  17  18
ATOM     18  C   UNL     1       1.808   7.237  20.133  0.00  0.00    +0.000 A 
ATOM     19  C   UNL     1       2.547   7.494  18.987  0.00  0.00    +0.000 A 
ATOM     20  C   UNL     1       2.753   6.485  18.068  0.00  0.00    +0.000 A 
ATOM     21  C   UNL     1       2.335   5.173  18.329  0.00  0.00    +0.000 A 
ATOM     22  C   UNL     1       2.618   4.190  17.359  0.00  0.00    +0.000 A 
ATOM     23  C   UNL     1       2.370   2.851  17.603  0.00  0.00    +0.000 A 
ATOM     24  C   UNL     1       1.824   2.503  18.818  0.00  0.00    +0.000 A 
ATOM     25  C   UNL     1       1.473   3.488  19.775  0.00  0.00    +0.000 A 
ATOM     26  C   UNL     1       1.704   4.887  19.566  0.00  0.00    +0.000 A 
ATOM     27  N   UNL     1       1.412   5.938  20.425  0.00  0.00    +0.000 NA
BRANCH  25  28
ATOM     28  O   UNL     1       0.959   2.845  20.878  0.00  0.00    +0.000 OA
ATOM     29  C   UNL     1       1.807   2.545  21.965  0.00  0.00    +0.000 C 
ENDBRANCH  25  28
ENDBRANCH  17  18
ENDBRANCH   4  17
BRANCH   6  30
ATOM     30  C   UNL     1       1.132  12.109  19.702  0.00  0.00    +0.000 C 
BRANCH  30  31
ATOM     31  C   UNL     1       1.213  13.534  20.268  0.00  0.00    +0.000 C 
BRANCH  31  32
ATOM     32  O   UNL     1       1.750  13.490  21.588  0.00  0.00    +0.000 OA
ATOM     33  H   UNL     1       2.064  14.381  21.816  0.00  0.00    +0.000 HD
ENDBRANCH  31  32
ENDBRANCH  30  31
ENDBRANCH   6  30
TORSDOF 10
ENDMDL
MODEL 6
REMARK VINA RESULT:      -6.7      4.041      7.734
REMARK  Name = 
REMARK  12 active torsions:
REMARK  status: ('A' for Active; 'I' for Inactive)
REMARK    1  A    between atoms: C_1  and  C_2
REMARK    2  A    between atoms: C_2  and  O_3
REMARK    3  A    between atoms: O_3  and  C_4
REMARK    4  A    between atoms: C_9  and  C_10
REMARK    5  A    between atoms: C_10  and  N_11
REMARK    6  A    between atoms: N_14  and  C_15
REMARK    7  A    between atoms: C_15  and  C_16
REMARK    8  A    between atoms: C_23  and  O_24
REMARK    9  A    between atoms: O_24  and  C_25
REMARK   10  A    between atoms: C_29  and  C_30
REMARK   11  A    between atoms: C_30  and  C_31
REMARK   12  A    between atoms: C_31  and  O_32
REMARK                            x       y       z     vdW  Elec       q    Type
REMARK                         _______ _______ _______ _____ _____    ______ ____
ROOT
ATOM      1  N   UNL     1       1.665   9.186  19.181  0.00  0.00    +0.000 NA
ATOM      2  C   UNL     1       1.993  10.416  18.448  0.00  0.00    +0.000 C 
ATOM      3  C   UNL     1       1.015  11.616  18.349  0.00  0.00    +0.000 C 
ATOM      4  N   UNL     1      -0.184  11.663  19.174  0.00  0.00    +0.000 NA
ATOM      5  C   UNL     1      -0.581  10.354  19.699  0.00  0.00    +0.000 C 
ATOM      6  C   UNL     1       0.496   9.283  20.091  0.00  0.00    +0.000 C 
ENDROOT
BRANCH   1   7
ATOM      7  C   UNL     1       1.628   7.982  18.313  0.00  0.00    +0.000 C 
BRANCH   7  13
ATOM      8  C   UNL     1       3.145   6.074  19.147  0.00  0.00    +0.000 A 
ATOM      9  C   UNL     1       4.363   5.382  19.105  0.00  0.00    +0.000 A 
ATOM     10  C   UNL     1       5.328   5.707  18.140  0.00  0.00    +0.000 A 
ATOM     11  C   UNL     1       5.089   6.732  17.227  0.00  0.00    +0.000 A 
ATOM     12  C   UNL     1       3.901   7.465  17.301  0.00  0.00    +0.000 A 
ATOM     13  C   UNL     1       2.912   7.145  18.249  0.00  0.00    +0.000 A 
BRANCH   8  14
ATOM     14  O   UNL     1       2.077   5.678  19.912  0.00  0.00    +0.000 OA
BRANCH  14  16
ATOM     15  C   UNL     1       2.007   3.821  21.490  0.00  0.00    +0.000 C 
ATOM     16  C   UNL     1       1.775   4.291  20.060  0.00  0.00    +0.000 C 
ENDBRANCH  14  16
ENDBRANCH   8  14
ENDBRANCH   7  13
ENDBRANCH   1   7
BRANCH   4  17
ATOM     17  C   UNL     1      -0.384  12.859  20.040  0.00  0.00    +0.000 C 
BRANCH  17  18
ATOM     18  C   UNL     1      -1.417  12.775  21.204  0.00  0.00    +0.000 A 
ATOM     19  C   UNL     1      -0.972  12.784  22.518  0.00  0.00    +0.000 A 
ATOM     20  C   UNL     1      -1.880  12.640  23.547  0.00  0.00    +0.000 A 
ATOM     21  C   UNL     1      -3.259  12.607  23.295  0.00  0.00    +0.000 A 
ATOM     22  C   UNL     1      -4.125  12.498  24.401  0.00  0.00    +0.000 A 
ATOM     23  C   UNL     1      -5.496  12.604  24.251  0.00  0.00    +0.000 A 
ATOM     24  C   UNL     1      -5.997  12.806  22.985  0.00  0.00    +0.000 A 
ATOM     25  C   UNL     1      -5.141  12.850  21.856  0.00  0.00    +0.000 A 
ATOM     26  C   UNL     1      -3.716  12.738  21.959  0.00  0.00    +0.000 A 
ATOM     27  N   UNL     1      -2.780  12.774  20.934  0.00  0.00    +0.000 NA
BRANCH  25  28
ATOM     28  O   UNL     1      -5.919  13.066  20.741  0.00  0.00    +0.000 OA
ATOM     29  C   UNL     1      -6.439  11.961  20.033  0.00  0.00    +0.000 C 
ENDBRANCH  25  28
ENDBRANCH  17  18
ENDBRANCH   4  17
BRANCH   6  30
ATOM     30  C   UNL     1       0.986   9.424  21.556  0.00  0.00    +0.000 C 
BRANCH  30  31
ATOM     31  C   UNL     1      -0.127   9.247  22.600  0.00  0.00    +0.000 C 
BRANCH  31  32
ATOM     32  O   UNL     1       0.338   9.697  23.869  0.00  0.00    +0.000 OA
ATOM     33  H   UNL     1       1.201  10.127  23.739  0.00  0.00    +0.000 HD
ENDBRANCH  31  32
ENDBRANCH  30  31
ENDBRANCH   6  30
TORSDOF 10
ENDMDL
MODEL 7
REMARK VINA RESULT:      -6.7      4.099     11.011
REMARK  Name = 
REMARK  12 active torsions:
REMARK  status: ('A' for Active; 'I' for Inactive)
REMARK    1  A    between atoms: C_1  and  C_2
REMARK    2  A    between atoms: C_2  and  O_3
REMARK    3  A    between atoms: O_3  and  C_4
REMARK    4  A    between atoms: C_9  and  C_10
REMARK    5  A    between atoms: C_10  and  N_11
REMARK    6  A    between atoms: N_14  and  C_15
REMARK    7  A    between atoms: C_15  and  C_16
REMARK    8  A    between atoms: C_23  and  O_24
REMARK    9  A    between atoms: O_24  and  C_25
REMARK   10  A    between atoms: C_29  and  C_30
REMARK   11  A    between atoms: C_30  and  C_31
REMARK   12  A    between atoms: C_31  and  O_32
REMARK                            x       y       z     vdW  Elec       q    Type
REMARK                         _______ _______ _______ _____ _____    ______ ____
ROOT
ATOM      1  N   UNL     1      -0.427  11.542  20.993  0.00  0.00    +0.000 NA
ATOM      2  C   UNL     1       0.385  10.479  21.596  0.00  0.00    +0.000 C 
ATOM      3  C   UNL     1       0.934   9.280  20.779  0.00  0.00    +0.000 C 
ATOM      4  N   UNL     1       0.856   9.278  19.325  0.00  0.00    +0.000 NA
ATOM      5  C   UNL     1      -0.138  10.215  18.795  0.00  0.00    +0.000 C 
ATOM      6  C   UNL     1      -0.416  11.584  19.509  0.00  0.00    +0.000 C 
ENDROOT
BRANCH   1   7
ATOM      7  C   UNL     1      -1.794  11.630  21.567  0.00  0.00    +0.000 C 
BRANCH   7  13
ATOM      8  C   UNL     1      -3.377  13.168  22.895  0.00  0.00    +0.000 A 
ATOM      9  C   UNL     1      -3.581  14.288  23.712  0.00  0.00    +0.000 A 
ATOM     10  C   UNL     1      -2.486  15.007  24.214  0.00  0.00    +0.000 A 
ATOM     11  C   UNL     1      -1.187  14.623  23.888  0.00  0.00    +0.000 A 
ATOM     12  C   UNL     1      -0.977  13.543  23.026  0.00  0.00    +0.000 A 
ATOM     13  C   UNL     1      -2.060  12.797  22.525  0.00  0.00    +0.000 A 
BRANCH   8  14
ATOM     14  O   UNL     1      -4.376  12.296  22.544  0.00  0.00    +0.000 OA
BRANCH  14  16
ATOM     15  C   UNL     1      -6.757  12.714  22.230  0.00  0.00    +0.000 C 
ATOM     16  C   UNL     1      -5.372  12.687  21.599  0.00  0.00    +0.000 C 
ENDBRANCH  14  16
ENDBRANCH   8  14
ENDBRANCH   7  13
ENDBRANCH   1   7
BRANCH   4  17
ATOM     17  C   UNL     1       2.122   9.088  18.563  0.00  0.00    +0.000 C 
BRANCH  17  18
ATOM     18  C   UNL     1       2.667   7.641  18.370  0.00  0.00    +0.000 A 
ATOM     19  C   UNL     1       3.691   7.410  17.462  0.00  0.00    +0.000 A 
ATOM     20  C   UNL     1       4.127   6.120  17.239  0.00  0.00    +0.000 A 
ATOM     21  C   UNL     1       3.640   5.050  18.003  0.00  0.00    +0.000 A 
ATOM     22  C   UNL     1       4.163   3.767  17.743  0.00  0.00    +0.000 A 
ATOM     23  C   UNL     1       3.843   2.687  18.546  0.00  0.00    +0.000 A 
ATOM     24  C   UNL     1       2.985   2.895  19.602  0.00  0.00    +0.000 A 
ATOM     25  C   UNL     1       2.399   4.164  19.833  0.00  0.00    +0.000 A 
ATOM     26  C   UNL     1       2.694   5.311  19.026  0.00  0.00    +0.000 A 
ATOM     27  N   UNL     1       2.192   6.600  19.158  0.00  0.00    +0.000 NA
BRANCH  25  28
ATOM     28  O   UNL     1       1.599   4.067  20.949  0.00  0.00    +0.000 OA
ATOM     29  C   UNL     1       1.426   2.812  21.572  0.00  0.00    +0.000 C 
ENDBRANCH  25  28
ENDBRANCH  17  18
ENDBRANCH   4  17
BRANCH   6  30
ATOM     30  C   UNL     1       0.521  12.721  19.025  0.00  0.00    +0.000 C 
BRANCH  30  31
ATOM     31  C   UNL     1      -0.225  13.960  18.509  0.00  0.00    +0.000 C 
BRANCH  31  32
ATOM     32  O   UNL     1      -1.227  14.336  19.450  0.00  0.00    +0.000 OA
ATOM     33  H   UNL     1      -1.807  14.993  19.028  0.00  0.00    +0.000 HD
ENDBRANCH  31  32
ENDBRANCH  30  31
ENDBRANCH   6  30
TORSDOF 10
ENDMDL
MODEL 8
REMARK VINA RESULT:      -6.6      4.615      8.224
REMARK  Name = 
REMARK  12 active torsions:
REMARK  status: ('A' for Active; 'I' for Inactive)
REMARK    1  A    between atoms: C_1  and  C_2
REMARK    2  A    between atoms: C_2  and  O_3
REMARK    3  A    between atoms: O_3  and  C_4
REMARK    4  A    between atoms: C_9  and  C_10
REMARK    5  A    between atoms: C_10  and  N_11
REMARK    6  A    between atoms: N_14  and  C_15
REMARK    7  A    between atoms: C_15  and  C_16
REMARK    8  A    between atoms: C_23  and  O_24
REMARK    9  A    between atoms: O_24  and  C_25
REMARK   10  A    between atoms: C_29  and  C_30
REMARK   11  A    between atoms: C_30  and  C_31
REMARK   12  A    between atoms: C_31  and  O_32
REMARK                            x       y       z     vdW  Elec       q    Type
REMARK                         _______ _______ _______ _____ _____    ______ ____
ROOT
ATOM      1  N   UNL     1       0.553   9.214  20.521  0.00  0.00    +0.000 NA
ATOM      2  C   UNL     1      -0.511   9.325  21.527  0.00  0.00    +0.000 C 
ATOM      3  C   UNL     1      -0.771  10.628  22.328  0.00  0.00    +0.000 C 
ATOM      4  N   UNL     1      -0.113  11.872  21.951  0.00  0.00    +0.000 NA
ATOM      5  C   UNL     1       1.077  11.672  21.120  0.00  0.00    +0.000 C 
ATOM      6  C   UNL     1       1.145  10.501  20.078  0.00  0.00    +0.000 C 
ENDROOT
BRANCH   1   7
ATOM      7  C   UNL     1       1.575   8.191  20.863  0.00  0.00    +0.000 C 
BRANCH   7  13
ATOM      8  C   UNL     1       2.277   5.984  19.736  0.00  0.00    +0.000 A 
ATOM      9  C   UNL     1       2.892   5.301  18.678  0.00  0.00    +0.000 A 
ATOM     10  C   UNL     1       3.345   6.004  17.551  0.00  0.00    +0.000 A 
ATOM     11  C   UNL     1       3.202   7.388  17.483  0.00  0.00    +0.000 A 
ATOM     12  C   UNL     1       2.642   8.082  18.560  0.00  0.00    +0.000 A 
ATOM     13  C   UNL     1       2.166   7.396  19.693  0.00  0.00    +0.000 A 
BRANCH   8  14
ATOM     14  O   UNL     1       1.624   5.353  20.764  0.00  0.00    +0.000 OA
BRANCH  14  16
ATOM     15  C   UNL     1       1.297   2.965  21.130  0.00  0.00    +0.000 C 
ATOM     16  C   UNL     1       2.183   4.182  21.359  0.00  0.00    +0.000 C 
ENDBRANCH  14  16
ENDBRANCH   8  14
ENDBRANCH   7  13
ENDBRANCH   1   7
BRANCH   4  17
ATOM     17  C   UNL     1      -0.975  13.055  21.674  0.00  0.00    +0.000 C 
BRANCH  17  18
ATOM     18  C   UNL     1      -2.419  12.818  21.138  0.00  0.00    +0.000 A 
ATOM     19  C   UNL     1      -2.604  12.401  19.828  0.00  0.00    +0.000 A 
ATOM     20  C   UNL     1      -3.884  12.259  19.331  0.00  0.00    +0.000 A 
ATOM     21  C   UNL     1      -5.003  12.408  20.163  0.00  0.00    +0.000 A 
ATOM     22  C   UNL     1      -6.275  12.208  19.592  0.00  0.00    +0.000 A 
ATOM     23  C   UNL     1      -7.417  12.193  20.373  0.00  0.00    +0.000 A 
ATOM     24  C   UNL     1      -7.279  12.396  21.728  0.00  0.00    +0.000 A 
ATOM     25  C   UNL     1      -6.013  12.666  22.304  0.00  0.00    +0.000 A 
ATOM     26  C   UNL     1      -4.804  12.698  21.536  0.00  0.00    +0.000 A 
ATOM     27  N   UNL     1      -3.513  12.942  21.987  0.00  0.00    +0.000 NA
BRANCH  25  28
ATOM     28  O   UNL     1      -6.188  12.819  23.661  0.00  0.00    +0.000 OA
ATOM     29  C   UNL     1      -7.428  13.276  24.155  0.00  0.00    +0.000 C 
ENDBRANCH  25  28
ENDBRANCH  17  18
ENDBRANCH   4  17
BRANCH   6  30
ATOM     30  C   UNL     1       0.570  10.890  18.691  0.00  0.00    +0.000 C 
BRANCH  30  31
ATOM     31  C   UNL     1      -0.500   9.918  18.171  0.00  0.00    +0.000 C 
BRANCH  31  32
ATOM     32  O   UNL     1      -1.243  10.546  17.129  0.00  0.00    +0.000 OA
ATOM     33  H   UNL     1      -0.932  11.464  17.047  0.00  0.00    +0.000 HD
ENDBRANCH  31  32
ENDBRANCH  30  31
ENDBRANCH   6  30
TORSDOF 10
ENDMDL
MODEL 9
REMARK VINA RESULT:      -6.6      2.462      5.128
REMARK  Name = 
REMARK  12 active torsions:
REMARK  status: ('A' for Active; 'I' for Inactive)
REMARK    1  A    between atoms: C_1  and  C_2
REMARK    2  A    between atoms: C_2  and  O_3
REMARK    3  A    between atoms: O_3  and  C_4
REMARK    4  A    between atoms: C_9  and  C_10
REMARK    5  A    between atoms: C_10  and  N_11
REMARK    6  A    between atoms: N_14  and  C_15
REMARK    7  A    between atoms: C_15  and  C_16
REMARK    8  A    between atoms: C_23  and  O_24
REMARK    9  A    between atoms: O_24  and  C_25
REMARK   10  A    between atoms: C_29  and  C_30
REMARK   11  A    between atoms: C_30  and  C_31
REMARK   12  A    between atoms: C_31  and  O_32
REMARK                            x       y       z     vdW  Elec       q    Type
REMARK                         _______ _______ _______ _____ _____    ______ ____
ROOT
ATOM      1  N   UNL     1       3.053   5.964  18.684  0.00  0.00    +0.000 NA
ATOM      2  C   UNL     1       2.250   5.127  19.584  0.00  0.00    +0.000 C 
ATOM      3  C   UNL     1       1.460   5.710  20.785  0.00  0.00    +0.000 C 
ATOM      4  N   UNL     1       1.298   7.150  20.934  0.00  0.00    +0.000 NA
ATOM      5  C   UNL     1       2.279   7.928  20.173  0.00  0.00    +0.000 C 
ATOM      6  C   UNL     1       2.804   7.423  18.783  0.00  0.00    +0.000 C 
ENDROOT
BRANCH   1   7
ATOM      7  C   UNL     1       4.498   5.619  18.700  0.00  0.00    +0.000 C 
BRANCH   7  13
ATOM      8  C   UNL     1       5.926   6.090  16.608  0.00  0.00    +0.000 A 
ATOM      9  C   UNL     1       6.410   5.697  15.354  0.00  0.00    +0.000 A 
ATOM     10  C   UNL     1       6.147   4.408  14.865  0.00  0.00    +0.000 A 
ATOM     11  C   UNL     1       5.387   3.515  15.617  0.00  0.00    +0.000 A 
ATOM     12  C   UNL     1       4.852   3.920  16.843  0.00  0.00    +0.000 A 
ATOM     13  C   UNL     1       5.117   5.202  17.361  0.00  0.00    +0.000 A 
BRANCH   8  14
ATOM     14  O   UNL     1       6.315   7.242  17.242  0.00  0.00    +0.000 OA
BRANCH  14  16
ATOM     15  C   UNL     1       8.056   8.842  17.837  0.00  0.00    +0.000 C 
ATOM     16  C   UNL     1       7.651   7.378  17.728  0.00  0.00    +0.000 C 
ENDBRANCH  14  16
ENDBRANCH   8  14
ENDBRANCH   7  13
ENDBRANCH   1   7
BRANCH   4  17
ATOM     17  C   UNL     1      -0.089   7.683  21.048  0.00  0.00    +0.000 C 
BRANCH  17  18
ATOM     18  C   UNL     1      -0.285   9.162  21.499  0.00  0.00    +0.000 A 
ATOM     19  C   UNL     1      -0.642   9.438  22.811  0.00  0.00    +0.000 A 
ATOM     20  C   UNL     1      -0.884  10.742  23.192  0.00  0.00    +0.000 A 
ATOM     21  C   UNL     1      -0.657  11.808  22.310  0.00  0.00    +0.000 A 
ATOM     22  C   UNL     1      -0.889  13.113  22.786  0.00  0.00    +0.000 A 
ATOM     23  C   UNL     1      -0.552  14.222  22.030  0.00  0.00    +0.000 A 
ATOM     24  C   UNL     1       0.005  14.016  20.789  0.00  0.00    +0.000 A 
ATOM     25  C   UNL     1       0.181  12.708  20.271  0.00  0.00    +0.000 A 
ATOM     26  C   UNL     1      -0.158  11.530  21.012  0.00  0.00    +0.000 A 
ATOM     27  N   UNL     1      -0.026  10.205  20.618  0.00  0.00    +0.000 NA
BRANCH  25  28
ATOM     28  O   UNL     1       0.757  12.818  19.026  0.00  0.00    +0.000 OA
ATOM     29  C   UNL     1       2.069  13.324  18.909  0.00  0.00    +0.000 C 
ENDBRANCH  25  28
ENDBRANCH  17  18
ENDBRANCH   4  17
BRANCH   6  30
ATOM     30  C   UNL     1       1.916   7.883  17.597  0.00  0.00    +0.000 C 
BRANCH  30  31
ATOM     31  C   UNL     1       1.209   9.225  17.838  0.00  0.00    +0.000 C 
BRANCH  31  32
ATOM     32  O   UNL     1       2.061  10.290  17.427  0.00  0.00    +0.000 OA
ATOM     33  H   UNL     1       2.834  10.304  18.017  0.00  0.00    +0.000 HD
ENDBRANCH  31  32
ENDBRANCH  30  31
ENDBRANCH   6  30
TORSDOF 10
ENDMDL
