MODEL 1
REMARK VINA RESULT:      -7.5      0.000      0.000
REMARK  Name = 
REMARK  10 active torsions:
REMARK  status: ('A' for Active; 'I' for Inactive)
REMARK    1  A    between atoms: C_1  and  C_2
REMARK    2  A    between atoms: C_2  and  O_3
REMARK    3  A    between atoms: O_3  and  C_4
REMARK    4  A    between atoms: C_4  and  C_6
REMARK    5  A    between atoms: C_7  and  C_8
REMARK    6  A    between atoms: C_11  and  C_12
REMARK    7  A    between atoms: C_17  and  N_18
REMARK    8  A    between atoms: C_19  and  C_21
REMARK    9  A    between atoms: C_26  and  C_27
REMARK   10  A    between atoms: C_27  and  O_29
REMARK                            x       y       z     vdW  Elec       q    Type
REMARK                         _______ _______ _______ _____ _____    ______ ____
ROOT
ATOM      1  C   UNL     1       1.429   9.201  20.218  0.00  0.00    +0.000 A 
ATOM      2  C   UNL     1       0.929  10.261  19.347  0.00  0.00    +0.000 A 
ATOM      3  C   UNL     1       1.314  10.065  18.031  0.00  0.00    +0.000 A 
ATOM      4  S   UNL     1       2.060   8.558  17.789  0.00  0.00    +0.000 S 
ATOM      5  C   UNL     1       2.025   8.222  19.457  0.00  0.00    +0.000 A 
ENDROOT
BRANCH   2   6
ATOM      6  C   UNL     1      -0.014  11.341  19.659  0.00  0.00    +0.000 A 
ATOM      7  C   UNL     1      -1.387  11.198  19.422  0.00  0.00    +0.000 A 
ATOM      8  C   UNL     1      -2.288  12.186  19.834  0.00  0.00    +0.000 A 
ATOM      9  C   UNL     1      -1.831  13.340  20.478  0.00  0.00    +0.000 A 
ATOM     10  C   UNL     1      -2.785  14.404  20.933  0.00  0.00    +0.000 C 
ATOM     11  C   UNL     1      -0.460  13.493  20.704  0.00  0.00    +0.000 A 
ATOM     12  C   UNL     1       0.438  12.498  20.310  0.00  0.00    +0.000 A 
ENDBRANCH   2   6
BRANCH   5  13
ATOM     13  N   UNL     1       2.563   6.985  19.702  0.00  0.00    +0.000 N 
ATOM     14  C   UNL     1       1.908   5.916  20.274  0.00  0.00    +0.000 C 
ATOM     15  O   UNL     1       0.767   5.954  20.725  0.00  0.00    +0.000 OA
ATOM     16  H   UNL     1       3.571   6.998  19.709  0.00  0.00    +0.000 HD
BRANCH  14  17
ATOM     17  C   UNL     1       2.773   4.647  20.459  0.00  0.00    +0.000 C 
ATOM     18  C   UNL     1       2.195   3.666  21.495  0.00  0.00    +0.000 C 
ATOM     19  C   UNL     1       1.134   2.765  20.920  0.00  0.00    +0.000 C 
ATOM     20  C   UNL     1       0.901   2.650  19.600  0.00  0.00    +0.000 C 
ATOM     21  C   UNL     1       1.731   3.343  18.547  0.00  0.00    +0.000 C 
ATOM     22  C   UNL     1       3.037   3.933  19.115  0.00  0.00    +0.000 C 
BRANCH  22  23
ATOM     23  C   UNL     1       4.078   2.821  19.255  0.00  0.00    +0.000 C 
ATOM     24  O   UNL     1       3.859   1.625  19.077  0.00  0.00    +0.000 OA
BRANCH  23  25
ATOM     25  O   UNL     1       5.311   3.257  19.576  0.00  0.00    +0.000 OA
ATOM     26  H   UNL     1       5.548   4.137  19.225  0.00  0.00    +0.000 HD
ENDBRANCH  23  25
ENDBRANCH  22  23
ENDBRANCH  14  17
ENDBRANCH   5  13
BRANCH   1  27
ATOM     27  C   UNL     1       1.202   9.110  21.659  0.00  0.00    +0.000 C 
ATOM     28  O   UNL     1       2.094   9.234  22.490  0.00  0.00    +0.000 OA
BRANCH  27  29
ATOM     29  O   UNL     1      -0.125   9.000  21.967  0.00  0.00    +0.000 OA
BRANCH  29  31
ATOM     30  C   UNL     1      -1.227  10.799  23.137  0.00  0.00    +0.000 C 
ATOM     31  C   UNL     1      -0.499   9.475  23.268  0.00  0.00    +0.000 C 
ENDBRANCH  29  31
ENDBRANCH  27  29
ENDBRANCH   1  27
TORSDOF 8
ENDMDL
MODEL 2
REMARK VINA RESULT:      -7.4      0.946      1.036
REMARK  Name = 
REMARK  10 active torsions:
REMARK  status: ('A' for Active; 'I' for Inactive)
REMARK    1  A    between atoms: C_1  and  C_2
REMARK    2  A    between atoms: C_2  and  O_3
REMARK    3  A    between atoms: O_3  and  C_4
REMARK    4  A    between atoms: C_4  and  C_6
REMARK    5  A    between atoms: C_7  and  C_8
REMARK    6  A    between atoms: C_11  and  C_12
REMARK    7  A    between atoms: C_17  and  N_18
REMARK    8  A    between atoms: C_19  and  C_21
REMARK    9  A    between atoms: C_26  and  C_27
REMARK   10  A    between atoms: C_27  and  O_29
REMARK                            x       y       z     vdW  Elec       q    Type
REMARK                         _______ _______ _______ _____ _____    ______ ____
ROOT
ATOM      1  C   UNL     1       1.399   9.067  20.280  0.00  0.00    +0.000 A 
ATOM      2  C   UNL     1       1.074  10.162  19.371  0.00  0.00    +0.000 A 
ATOM      3  C   UNL     1       1.472   9.884  18.073  0.00  0.00    +0.000 A 
ATOM      4  S   UNL     1       2.017   8.285  17.889  0.00  0.00    +0.000 S 
ATOM      5  C   UNL     1       1.883   7.998  19.561  0.00  0.00    +0.000 A 
ENDROOT
BRANCH   2   6
ATOM      6  C   UNL     1       0.276  11.366  19.627  0.00  0.00    +0.000 A 
ATOM      7  C   UNL     1      -1.102  11.390  19.378  0.00  0.00    +0.000 A 
ATOM      8  C   UNL     1      -1.872  12.501  19.738  0.00  0.00    +0.000 A 
ATOM      9  C   UNL     1      -1.277  13.613  20.343  0.00  0.00    +0.000 A 
ATOM     10  C   UNL     1      -2.090  14.807  20.742  0.00  0.00    +0.000 C 
ATOM     11  C   UNL     1       0.101  13.598  20.581  0.00  0.00    +0.000 A 
ATOM     12  C   UNL     1       0.867  12.481  20.238  0.00  0.00    +0.000 A 
ENDBRANCH   2   6
BRANCH   5  13
ATOM     13  N   UNL     1       2.242   6.707  19.851  0.00  0.00    +0.000 N 
ATOM     14  C   UNL     1       3.316   6.027  19.321  0.00  0.00    +0.000 C 
ATOM     15  O   UNL     1       4.056   6.461  18.442  0.00  0.00    +0.000 OA
ATOM     16  H   UNL     1       1.485   6.181  20.259  0.00  0.00    +0.000 HD
BRANCH  14  17
ATOM     17  C   UNL     1       3.463   4.566  19.807  0.00  0.00    +0.000 C 
ATOM     18  C   UNL     1       2.311   4.112  20.723  0.00  0.00    +0.000 C 
ATOM     19  C   UNL     1       1.099   3.653  19.955  0.00  0.00    +0.000 C 
ATOM     20  C   UNL     1       1.111   3.419  18.631  0.00  0.00    +0.000 C 
ATOM     21  C   UNL     1       2.357   3.508  17.783  0.00  0.00    +0.000 C 
ATOM     22  C   UNL     1       3.644   3.585  18.627  0.00  0.00    +0.000 C 
BRANCH  22  23
ATOM     23  C   UNL     1       4.025   2.183  19.104  0.00  0.00    +0.000 C 
ATOM     24  O   UNL     1       3.547   1.138  18.671  0.00  0.00    +0.000 OA
BRANCH  23  25
ATOM     25  O   UNL     1       4.978   2.164  20.056  0.00  0.00    +0.000 OA
ATOM     26  H   UNL     1       4.980   1.375  20.631  0.00  0.00    +0.000 HD
ENDBRANCH  23  25
ENDBRANCH  22  23
ENDBRANCH  14  17
ENDBRANCH   5  13
BRANCH   1  27
ATOM     27  C   UNL     1       1.117   9.043  21.714  0.00  0.00    +0.000 C 
ATOM     28  O   UNL     1       1.970   9.233  22.572  0.00  0.00    +0.000 OA
BRANCH  27  29
ATOM     29  O   UNL     1      -0.218   8.913  21.975  0.00  0.00    +0.000 OA
BRANCH  29  31
ATOM     30  C   UNL     1      -1.098  10.904  23.016  0.00  0.00    +0.000 C 
ATOM     31  C   UNL     1      -0.662   9.465  23.223  0.00  0.00    +0.000 C 
ENDBRANCH  29  31
ENDBRANCH  27  29
ENDBRANCH   1  27
TORSDOF 8
ENDMDL
MODEL 3
REMARK VINA RESULT:      -7.4      0.280      1.072
REMARK  Name = 
REMARK  10 active torsions:
REMARK  status: ('A' for Active; 'I' for Inactive)
REMARK    1  A    between atoms: C_1  and  C_2
REMARK    2  A    between atoms: C_2  and  O_3
REMARK    3  A    between atoms: O_3  and  C_4
REMARK    4  A    between atoms: C_4  and  C_6
REMARK    5  A    between atoms: C_7  and  C_8
REMARK    6  A    between atoms: C_11  and  C_12
REMARK    7  A    between atoms: C_17  and  N_18
REMARK    8  A    between atoms: C_19  and  C_21
REMARK    9  A    between atoms: C_26  and  C_27
REMARK   10  A    between atoms: C_27  and  O_29
REMARK                            x       y       z     vdW  Elec       q    Type
REMARK                         _______ _______ _______ _____ _____    ______ ____
ROOT
ATOM      1  C   UNL     1       1.418   9.225  20.356  0.00  0.00    +0.000 A 
ATOM      2  C   UNL     1       0.878  10.307  19.539  0.00  0.00    +0.000 A 
ATOM      3  C   UNL     1       1.201  10.149  18.201  0.00  0.00    +0.000 A 
ATOM      4  S   UNL     1       1.935   8.649  17.884  0.00  0.00    +0.000 S 
ATOM      5  C   UNL     1       1.978   8.268  19.542  0.00  0.00    +0.000 A 
ENDROOT
BRANCH   2   6
ATOM      6  C   UNL     1      -0.049  11.378  19.923  0.00  0.00    +0.000 A 
ATOM      7  C   UNL     1       0.407  12.543  20.553  0.00  0.00    +0.000 A 
ATOM      8  C   UNL     1      -0.467  13.606  20.805  0.00  0.00    +0.000 A 
ATOM      9  C   UNL     1      -1.815  13.519  20.444  0.00  0.00    +0.000 A 
ATOM     10  C   UNL     1      -2.761  14.653  20.700  0.00  0.00    +0.000 C 
ATOM     11  C   UNL     1      -2.277  12.352  19.828  0.00  0.00    +0.000 A 
ATOM     12  C   UNL     1      -1.401  11.298  19.559  0.00  0.00    +0.000 A 
ENDBRANCH   2   6
BRANCH   5  13
ATOM     13  N   UNL     1       2.527   7.025  19.728  0.00  0.00    +0.000 N 
ATOM     14  C   UNL     1       1.896   5.937  20.286  0.00  0.00    +0.000 C 
ATOM     15  O   UNL     1       0.770   5.955  20.778  0.00  0.00    +0.000 OA
ATOM     16  H   UNL     1       3.535   7.043  19.700  0.00  0.00    +0.000 HD
BRANCH  14  17
ATOM     17  C   UNL     1       2.770   4.666  20.400  0.00  0.00    +0.000 C 
ATOM     18  C   UNL     1       2.167   3.597  21.331  0.00  0.00    +0.000 C 
ATOM     19  C   UNL     1       1.139   2.736  20.646  0.00  0.00    +0.000 C 
ATOM     20  C   UNL     1       0.956   2.726  19.313  0.00  0.00    +0.000 C 
ATOM     21  C   UNL     1       1.814   3.511  18.352  0.00  0.00    +0.000 C 
ATOM     22  C   UNL     1       3.092   4.065  19.014  0.00  0.00    +0.000 C 
BRANCH  22  23
ATOM     23  C   UNL     1       4.140   2.956  19.102  0.00  0.00    +0.000 C 
ATOM     24  O   UNL     1       5.046   2.908  19.931  0.00  0.00    +0.000 OA
BRANCH  23  25
ATOM     25  O   UNL     1       3.987   1.978  18.189  0.00  0.00    +0.000 OA
ATOM     26  H   UNL     1       3.975   1.070  18.547  0.00  0.00    +0.000 HD
ENDBRANCH  23  25
ENDBRANCH  22  23
ENDBRANCH  14  17
ENDBRANCH   5  13
BRANCH   1  27
ATOM     27  C   UNL     1       1.260   9.095  21.803  0.00  0.00    +0.000 C 
ATOM     28  O   UNL     1       2.173   9.273  22.599  0.00  0.00    +0.000 OA
BRANCH  27  29
ATOM     29  O   UNL     1      -0.041   8.881  22.162  0.00  0.00    +0.000 OA
BRANCH  29  31
ATOM     30  C   UNL     1      -1.218  10.721  23.188  0.00  0.00    +0.000 C 
ATOM     31  C   UNL     1      -0.436   9.442  23.423  0.00  0.00    +0.000 C 
ENDBRANCH  29  31
ENDBRANCH  27  29
ENDBRANCH   1  27
TORSDOF 8
ENDMDL
MODEL 4
REMARK VINA RESULT:      -7.2      0.995      1.248
REMARK  Name = 
REMARK  10 active torsions:
REMARK  status: ('A' for Active; 'I' for Inactive)
REMARK    1  A    between atoms: C_1  and  C_2
REMARK    2  A    between atoms: C_2  and  O_3
REMARK    3  A    between atoms: O_3  and  C_4
REMARK    4  A    between atoms: C_4  and  C_6
REMARK    5  A    between atoms: C_7  and  C_8
REMARK    6  A    between atoms: C_11  and  C_12
REMARK    7  A    between atoms: C_17  and  N_18
REMARK    8  A    between atoms: C_19  and  C_21
REMARK    9  A    between atoms: C_26  and  C_27
REMARK   10  A    between atoms: C_27  and  O_29
REMARK                            x       y       z     vdW  Elec       q    Type
REMARK                         _______ _______ _______ _____ _____    ______ ____
ROOT
ATOM      1  C   UNL     1       1.152   8.770  20.160  0.00  0.00    +0.000 A 
ATOM      2  C   UNL     1       0.866   9.896  19.276  0.00  0.00    +0.000 A 
ATOM      3  C   UNL     1       1.652   9.863  18.136  0.00  0.00    +0.000 A 
ATOM      4  S   UNL     1       2.549   8.425  18.006  0.00  0.00    +0.000 S 
ATOM      5  C   UNL     1       2.026   7.907  19.540  0.00  0.00    +0.000 A 
ENDROOT
BRANCH   2   6
ATOM      6  C   UNL     1      -0.206  10.893  19.371  0.00  0.00    +0.000 A 
ATOM      7  C   UNL     1      -1.478  10.645  18.840  0.00  0.00    +0.000 A 
ATOM      8  C   UNL     1      -2.524  11.553  19.042  0.00  0.00    +0.000 A 
ATOM      9  C   UNL     1      -2.314  12.729  19.768  0.00  0.00    +0.000 A 
ATOM     10  C   UNL     1      -3.427  13.706  20.001  0.00  0.00    +0.000 C 
ATOM     11  C   UNL     1      -1.042  12.986  20.288  0.00  0.00    +0.000 A 
ATOM     12  C   UNL     1      -0.003  12.072  20.102  0.00  0.00    +0.000 A 
ENDBRANCH   2   6
BRANCH   5  13
ATOM     13  N   UNL     1       2.554   6.675  19.830  0.00  0.00    +0.000 N 
ATOM     14  C   UNL     1       2.495   5.560  19.026  0.00  0.00    +0.000 C 
ATOM     15  O   UNL     1       1.878   5.492  17.965  0.00  0.00    +0.000 OA
ATOM     16  H   UNL     1       2.735   6.557  20.815  0.00  0.00    +0.000 HD
BRANCH  14  17
ATOM     17  C   UNL     1       3.152   4.293  19.622  0.00  0.00    +0.000 C 
ATOM     18  C   UNL     1       2.513   3.845  20.950  0.00  0.00    +0.000 C 
ATOM     19  C   UNL     1       1.272   3.015  20.752  0.00  0.00    +0.000 C 
ATOM     20  C   UNL     1       0.910   2.503  19.562  0.00  0.00    +0.000 C 
ATOM     21  C   UNL     1       1.747   2.633  18.313  0.00  0.00    +0.000 C 
ATOM     22  C   UNL     1       3.177   3.128  18.606  0.00  0.00    +0.000 C 
BRANCH  22  23
ATOM     23  C   UNL     1       4.029   1.959  19.101  0.00  0.00    +0.000 C 
ATOM     24  O   UNL     1       4.794   2.002  20.061  0.00  0.00    +0.000 OA
BRANCH  23  25
ATOM     25  O   UNL     1       3.861   0.819  18.402  0.00  0.00    +0.000 OA
ATOM     26  H   UNL     1       3.572   0.047  18.925  0.00  0.00    +0.000 HD
ENDBRANCH  23  25
ENDBRANCH  22  23
ENDBRANCH  14  17
ENDBRANCH   5  13
BRANCH   1  27
ATOM     27  C   UNL     1       0.499   8.512  21.442  0.00  0.00    +0.000 C 
ATOM     28  O   UNL     1      -0.242   7.557  21.640  0.00  0.00    +0.000 OA
BRANCH  27  29
ATOM     29  O   UNL     1       0.911   9.379  22.415  0.00  0.00    +0.000 OA
BRANCH  29  31
ATOM     30  C   UNL     1      -1.024  10.632  23.124  0.00  0.00    +0.000 C 
ATOM     31  C   UNL     1      -0.006   9.572  23.501  0.00  0.00    +0.000 C 
ENDBRANCH  29  31
ENDBRANCH  27  29
ENDBRANCH   1  27
TORSDOF 8
ENDMDL
MODEL 5
REMARK VINA RESULT:      -7.2      1.001      1.489
REMARK  Name = 
REMARK  10 active torsions:
REMARK  status: ('A' for Active; 'I' for Inactive)
REMARK    1  A    between atoms: C_1  and  C_2
REMARK    2  A    between atoms: C_2  and  O_3
REMARK    3  A    between atoms: O_3  and  C_4
REMARK    4  A    between atoms: C_4  and  C_6
REMARK    5  A    between atoms: C_7  and  C_8
REMARK    6  A    between atoms: C_11  and  C_12
REMARK    7  A    between atoms: C_17  and  N_18
REMARK    8  A    between atoms: C_19  and  C_21
REMARK    9  A    between atoms: C_26  and  C_27
REMARK   10  A    between atoms: C_27  and  O_29
REMARK                            x       y       z     vdW  Elec       q    Type
REMARK                         _______ _______ _______ _____ _____    ______ ____
ROOT
ATOM      1  C   UNL     1       1.430   9.116  20.454  0.00  0.00    +0.000 A 
ATOM      2  C   UNL     1       1.096  10.217  19.556  0.00  0.00    +0.000 A 
ATOM      3  C   UNL     1       1.436   9.929  18.244  0.00  0.00    +0.000 A 
ATOM      4  S   UNL     1       1.935   8.317  18.043  0.00  0.00    +0.000 S 
ATOM      5  C   UNL     1       1.860   8.035  19.719  0.00  0.00    +0.000 A 
ENDROOT
BRANCH   2   6
ATOM      6  C   UNL     1       0.337  11.441  19.840  0.00  0.00    +0.000 A 
ATOM      7  C   UNL     1       0.947  12.552  20.435  0.00  0.00    +0.000 A 
ATOM      8  C   UNL     1       0.245  13.752  20.591  0.00  0.00    +0.000 A 
ATOM      9  C   UNL     1      -1.084  13.859  20.166  0.00  0.00    +0.000 A 
ATOM     10  C   UNL     1      -1.846  15.140  20.318  0.00  0.00    +0.000 C 
ATOM     11  C   UNL     1      -1.700  12.747  19.584  0.00  0.00    +0.000 A 
ATOM     12  C   UNL     1      -0.993  11.555  19.412  0.00  0.00    +0.000 A 
ENDBRANCH   2   6
BRANCH   5  13
ATOM     13  N   UNL     1       2.199   6.736  19.997  0.00  0.00    +0.000 N 
ATOM     14  C   UNL     1       3.223   6.024  19.414  0.00  0.00    +0.000 C 
ATOM     15  O   UNL     1       3.925   6.432  18.492  0.00  0.00    +0.000 OA
ATOM     16  H   UNL     1       1.452   6.233  20.451  0.00  0.00    +0.000 HD
BRANCH  14  17
ATOM     17  C   UNL     1       3.358   4.562  19.901  0.00  0.00    +0.000 C 
ATOM     18  C   UNL     1       2.159   4.092  20.746  0.00  0.00    +0.000 C 
ATOM     19  C   UNL     1       0.998   3.624  19.907  0.00  0.00    +0.000 C 
ATOM     20  C   UNL     1       1.090   3.397  18.584  0.00  0.00    +0.000 C 
ATOM     21  C   UNL     1       2.382   3.503  17.811  0.00  0.00    +0.000 C 
ATOM     22  C   UNL     1       3.617   3.589  18.729  0.00  0.00    +0.000 C 
BRANCH  22  23
ATOM     23  C   UNL     1       3.984   2.189  19.222  0.00  0.00    +0.000 C 
ATOM     24  O   UNL     1       4.725   1.948  20.171  0.00  0.00    +0.000 OA
BRANCH  23  25
ATOM     25  O   UNL     1       3.396   1.191  18.534  0.00  0.00    +0.000 OA
ATOM     26  H   UNL     1       3.943   0.393  18.404  0.00  0.00    +0.000 HD
ENDBRANCH  23  25
ENDBRANCH  22  23
ENDBRANCH  14  17
ENDBRANCH   5  13
BRANCH   1  27
ATOM     27  C   UNL     1       1.203   9.101  21.898  0.00  0.00    +0.000 C 
ATOM     28  O   UNL     1       2.087   9.307  22.721  0.00  0.00    +0.000 OA
BRANCH  27  29
ATOM     29  O   UNL     1      -0.120   8.959  22.211  0.00  0.00    +0.000 OA
BRANCH  29  31
ATOM     30  C   UNL     1      -1.210  10.940  23.052  0.00  0.00    +0.000 C 
ATOM     31  C   UNL     1      -0.547   9.623  23.409  0.00  0.00    +0.000 C 
ENDBRANCH  29  31
ENDBRANCH  27  29
ENDBRANCH   1  27
TORSDOF 8
ENDMDL
MODEL 6
REMARK VINA RESULT:      -6.8      1.990      3.163
REMARK  Name = 
REMARK  10 active torsions:
REMARK  status: ('A' for Active; 'I' for Inactive)
REMARK    1  A    between atoms: C_1  and  C_2
REMARK    2  A    between atoms: C_2  and  O_3
REMARK    3  A    between atoms: O_3  and  C_4
REMARK    4  A    between atoms: C_4  and  C_6
REMARK    5  A    between atoms: C_7  and  C_8
REMARK    6  A    between atoms: C_11  and  C_12
REMARK    7  A    between atoms: C_17  and  N_18
REMARK    8  A    between atoms: C_19  and  C_21
REMARK    9  A    between atoms: C_26  and  C_27
REMARK   10  A    between atoms: C_27  and  O_29
REMARK                            x       y       z     vdW  Elec       q    Type
REMARK                         _______ _______ _______ _____ _____    ______ ____
ROOT
ATOM      1  C   UNL     1       1.461   9.091  19.445  0.00  0.00    +0.000 A 
ATOM      2  C   UNL     1       0.792  10.219  20.085  0.00  0.00    +0.000 A 
ATOM      3  C   UNL     1       0.435   9.928  21.392  0.00  0.00    +0.000 A 
ATOM      4  S   UNL     1       1.067   8.442  21.922  0.00  0.00    +0.000 S 
ATOM      5  C   UNL     1       1.681   8.098  20.372  0.00  0.00    +0.000 A 
ENDROOT
BRANCH   2   6
ATOM      6  C   UNL     1       0.619  11.590  19.590  0.00  0.00    +0.000 A 
ATOM      7  C   UNL     1      -0.522  11.963  18.869  0.00  0.00    +0.000 A 
ATOM      8  C   UNL     1      -0.731  13.298  18.507  0.00  0.00    +0.000 A 
ATOM      9  C   UNL     1       0.202  14.282  18.849  0.00  0.00    +0.000 A 
ATOM     10  C   UNL     1      -0.013  15.718  18.476  0.00  0.00    +0.000 C 
ATOM     11  C   UNL     1       1.349  13.911  19.557  0.00  0.00    +0.000 A 
ATOM     12  C   UNL     1       1.549  12.581  19.935  0.00  0.00    +0.000 A 
ENDBRANCH   2   6
BRANCH   5  13
ATOM     13  N   UNL     1       2.335   6.894  20.379  0.00  0.00    +0.000 N 
ATOM     14  C   UNL     1       1.745   5.652  20.446  0.00  0.00    +0.000 C 
ATOM     15  O   UNL     1       0.542   5.455  20.600  0.00  0.00    +0.000 OA
ATOM     16  H   UNL     1       3.307   6.986  20.632  0.00  0.00    +0.000 HD
BRANCH  14  17
ATOM     17  C   UNL     1       2.733   4.462  20.466  0.00  0.00    +0.000 C 
ATOM     18  C   UNL     1       2.232   3.271  21.305  0.00  0.00    +0.000 C 
ATOM     19  C   UNL     1       1.288   2.376  20.544  0.00  0.00    +0.000 C 
ATOM     20  C   UNL     1       1.108   2.455  19.214  0.00  0.00    +0.000 C 
ATOM     21  C   UNL     1       1.891   3.391  18.325  0.00  0.00    +0.000 C 
ATOM     22  C   UNL     1       3.111   4.007  19.039  0.00  0.00    +0.000 C 
BRANCH  22  23
ATOM     23  C   UNL     1       4.258   2.996  19.048  0.00  0.00    +0.000 C 
ATOM     24  O   UNL     1       5.190   2.995  19.849  0.00  0.00    +0.000 OA
BRANCH  23  25
ATOM     25  O   UNL     1       4.166   2.048  18.095  0.00  0.00    +0.000 OA
ATOM     26  H   UNL     1       3.322   2.029  17.604  0.00  0.00    +0.000 HD
ENDBRANCH  23  25
ENDBRANCH  22  23
ENDBRANCH  14  17
ENDBRANCH   5  13
BRANCH   1  27
ATOM     27  C   UNL     1       1.961   9.070  18.072  0.00  0.00    +0.000 C 
ATOM     28  O   UNL     1       2.019  10.065  17.361  0.00  0.00    +0.000 OA
BRANCH  27  29
ATOM     29  O   UNL     1       2.469   7.849  17.727  0.00  0.00    +0.000 OA
BRANCH  29  31
ATOM     30  C   UNL     1       4.282   6.420  17.024  0.00  0.00    +0.000 C 
ATOM     31  C   UNL     1       3.857   7.837  17.361  0.00  0.00    +0.000 C 
ENDBRANCH  29  31
ENDBRANCH  27  29
ENDBRANCH   1  27
TORSDOF 8
ENDMDL
MODEL 7
REMARK VINA RESULT:      -6.7      1.267      1.808
REMARK  Name = 
REMARK  10 active torsions:
REMARK  status: ('A' for Active; 'I' for Inactive)
REMARK    1  A    between atoms: C_1  and  C_2
REMARK    2  A    between atoms: C_2  and  O_3
REMARK    3  A    between atoms: O_3  and  C_4
REMARK    4  A    between atoms: C_4  and  C_6
REMARK    5  A    between atoms: C_7  and  C_8
REMARK    6  A    between atoms: C_11  and  C_12
REMARK    7  A    between atoms: C_17  and  N_18
REMARK    8  A    between atoms: C_19  and  C_21
REMARK    9  A    between atoms: C_26  and  C_27
REMARK   10  A    between atoms: C_27  and  O_29
REMARK                            x       y       z     vdW  Elec       q    Type
REMARK                         _______ _______ _______ _____ _____    ______ ____
ROOT
ATOM      1  C   UNL     1       1.323   8.585  20.125  0.00  0.00    +0.000 A 
ATOM      2  C   UNL     1       1.304   9.772  19.275  0.00  0.00    +0.000 A 
ATOM      3  C   UNL     1       2.103   9.610  18.154  0.00  0.00    +0.000 A 
ATOM      4  S   UNL     1       2.686   8.022  17.996  0.00  0.00    +0.000 S 
ATOM      5  C   UNL     1       2.019   7.579  19.497  0.00  0.00    +0.000 A 
ENDROOT
BRANCH   2   6
ATOM      6  C   UNL     1       0.459  10.967  19.379  0.00  0.00    +0.000 A 
ATOM      7  C   UNL     1      -0.908  10.918  19.081  0.00  0.00    +0.000 A 
ATOM      8  C   UNL     1      -1.726  12.032  19.298  0.00  0.00    +0.000 A 
ATOM      9  C   UNL     1      -1.188  13.219  19.807  0.00  0.00    +0.000 A 
ATOM     10  C   UNL     1      -2.053  14.419  20.054  0.00  0.00    +0.000 C 
ATOM     11  C   UNL     1       0.178  13.276  20.093  0.00  0.00    +0.000 A 
ATOM     12  C   UNL     1       0.991  12.158  19.893  0.00  0.00    +0.000 A 
ENDBRANCH   2   6
BRANCH   5  13
ATOM     13  N   UNL     1       2.272   6.256  19.756  0.00  0.00    +0.000 N 
ATOM     14  C   UNL     1       1.930   5.194  18.950  0.00  0.00    +0.000 C 
ATOM     15  O   UNL     1       1.269   5.281  17.918  0.00  0.00    +0.000 OA
ATOM     16  H   UNL     1       2.464   6.085  20.731  0.00  0.00    +0.000 HD
BRANCH  14  17
ATOM     17  C   UNL     1       2.314   3.803  19.508  0.00  0.00    +0.000 C 
ATOM     18  C   UNL     1       1.815   2.639  18.632  0.00  0.00    +0.000 C 
ATOM     19  C   UNL     1       2.732   2.342  17.474  0.00  0.00    +0.000 C 
ATOM     20  C   UNL     1       3.970   2.856  17.365  0.00  0.00    +0.000 C 
ATOM     21  C   UNL     1       4.609   3.716  18.428  0.00  0.00    +0.000 C 
ATOM     22  C   UNL     1       3.834   3.687  19.760  0.00  0.00    +0.000 C 
BRANCH  22  23
ATOM     23  C   UNL     1       4.189   2.412  20.526  0.00  0.00    +0.000 C 
ATOM     24  O   UNL     1       5.110   1.652  20.241  0.00  0.00    +0.000 OA
BRANCH  23  25
ATOM     25  O   UNL     1       3.407   2.177  21.598  0.00  0.00    +0.000 OA
ATOM     26  H   UNL     1       3.881   2.053  22.443  0.00  0.00    +0.000 HD
ENDBRANCH  23  25
ENDBRANCH  22  23
ENDBRANCH  14  17
ENDBRANCH   5  13
BRANCH   1  27
ATOM     27  C   UNL     1       0.590   8.431  21.380  0.00  0.00    +0.000 C 
ATOM     28  O   UNL     1      -0.212   7.528  21.585  0.00  0.00    +0.000 OA
BRANCH  27  29
ATOM     29  O   UNL     1       0.998   9.325  22.330  0.00  0.00    +0.000 OA
BRANCH  29  31
ATOM     30  C   UNL     1      -0.870  10.741  22.902  0.00  0.00    +0.000 C 
ATOM     31  C   UNL     1       0.040   9.617  23.358  0.00  0.00    +0.000 C 
ENDBRANCH  29  31
ENDBRANCH  27  29
ENDBRANCH   1  27
TORSDOF 8
ENDMDL
MODEL 8
REMARK VINA RESULT:      -6.7      1.027      1.453
REMARK  Name = 
REMARK  10 active torsions:
REMARK  status: ('A' for Active; 'I' for Inactive)
REMARK    1  A    between atoms: C_1  and  C_2
REMARK    2  A    between atoms: C_2  and  O_3
REMARK    3  A    between atoms: O_3  and  C_4
REMARK    4  A    between atoms: C_4  and  C_6
REMARK    5  A    between atoms: C_7  and  C_8
REMARK    6  A    between atoms: C_11  and  C_12
REMARK    7  A    between atoms: C_17  and  N_18
REMARK    8  A    between atoms: C_19  and  C_21
REMARK    9  A    between atoms: C_26  and  C_27
REMARK   10  A    between atoms: C_27  and  O_29
REMARK                            x       y       z     vdW  Elec       q    Type
REMARK                         _______ _______ _______ _____ _____    ______ ____
ROOT
ATOM      1  C   UNL     1       1.287   9.039  19.991  0.00  0.00    +0.000 A 
ATOM      2  C   UNL     1       1.001  10.290  19.294  0.00  0.00    +0.000 A 
ATOM      3  C   UNL     1       1.691  10.376  18.095  0.00  0.00    +0.000 A 
ATOM      4  S   UNL     1       2.485   8.927  17.697  0.00  0.00    +0.000 S 
ATOM      5  C   UNL     1       2.055   8.228  19.188  0.00  0.00    +0.000 A 
ENDROOT
BRANCH   2   6
ATOM      6  C   UNL     1       0.004  11.317  19.614  0.00  0.00    +0.000 A 
ATOM      7  C   UNL     1      -1.353  11.127  19.325  0.00  0.00    +0.000 A 
ATOM      8  C   UNL     1      -2.309  12.059  19.743  0.00  0.00    +0.000 A 
ATOM      9  C   UNL     1      -1.924  13.204  20.448  0.00  0.00    +0.000 A 
ATOM     10  C   UNL     1      -2.937  14.207  20.911  0.00  0.00    +0.000 C 
ATOM     11  C   UNL     1      -0.569  13.404  20.727  0.00  0.00    +0.000 A 
ATOM     12  C   UNL     1       0.384  12.464  20.326  0.00  0.00    +0.000 A 
ENDBRANCH   2   6
BRANCH   5  13
ATOM     13  N   UNL     1       2.528   6.943  19.263  0.00  0.00    +0.000 N 
ATOM     14  C   UNL     1       2.221   5.916  18.399  0.00  0.00    +0.000 C 
ATOM     15  O   UNL     1       1.405   5.989  17.484  0.00  0.00    +0.000 OA
ATOM     16  H   UNL     1       2.888   6.720  20.177  0.00  0.00    +0.000 HD
BRANCH  14  17
ATOM     17  C   UNL     1       2.878   4.559  18.744  0.00  0.00    +0.000 C 
ATOM     18  C   UNL     1       3.316   4.454  20.217  0.00  0.00    +0.000 C 
ATOM     19  C   UNL     1       2.191   4.056  21.136  0.00  0.00    +0.000 C 
ATOM     20  C   UNL     1       1.008   3.592  20.695  0.00  0.00    +0.000 C 
ATOM     21  C   UNL     1       0.707   3.340  19.238  0.00  0.00    +0.000 C 
ATOM     22  C   UNL     1       1.972   3.369  18.357  0.00  0.00    +0.000 C 
BRANCH  22  23
ATOM     23  C   UNL     1       2.705   2.032  18.475  0.00  0.00    +0.000 C 
ATOM     24  O   UNL     1       3.846   1.817  18.075  0.00  0.00    +0.000 OA
BRANCH  23  25
ATOM     25  O   UNL     1       1.998   1.068  19.097  0.00  0.00    +0.000 OA
ATOM     26  H   UNL     1       1.067   0.984  18.815  0.00  0.00    +0.000 HD
ENDBRANCH  23  25
ENDBRANCH  22  23
ENDBRANCH  14  17
ENDBRANCH   5  13
BRANCH   1  27
ATOM     27  C   UNL     1       0.724   8.640  21.279  0.00  0.00    +0.000 C 
ATOM     28  O   UNL     1       0.146   7.575  21.460  0.00  0.00    +0.000 OA
BRANCH  27  29
ATOM     29  O   UNL     1       1.029   9.526  22.273  0.00  0.00    +0.000 OA
BRANCH  29  31
ATOM     30  C   UNL     1      -1.013  10.510  23.100  0.00  0.00    +0.000 C 
ATOM     31  C   UNL     1       0.122   9.545  23.386  0.00  0.00    +0.000 C 
ENDBRANCH  29  31
ENDBRANCH  27  29
ENDBRANCH   1  27
TORSDOF 8
ENDMDL
MODEL 9
REMARK VINA RESULT:      -6.6      1.912      2.694
REMARK  Name = 
REMARK  10 active torsions:
REMARK  status: ('A' for Active; 'I' for Inactive)
REMARK    1  A    between atoms: C_1  and  C_2
REMARK    2  A    between atoms: C_2  and  O_3
REMARK    3  A    between atoms: O_3  and  C_4
REMARK    4  A    between atoms: C_4  and  C_6
REMARK    5  A    between atoms: C_7  and  C_8
REMARK    6  A    between atoms: C_11  and  C_12
REMARK    7  A    between atoms: C_17  and  N_18
REMARK    8  A    between atoms: C_19  and  C_21
REMARK    9  A    between atoms: C_26  and  C_27
REMARK   10  A    between atoms: C_27  and  O_29
REMARK                            x       y       z     vdW  Elec       q    Type
REMARK                         _______ _______ _______ _____ _____    ______ ____
ROOT
ATOM      1  C   UNL     1       1.094   9.434  19.697  0.00  0.00    +0.000 A 
ATOM      2  C   UNL     1       0.577  10.544  20.492  0.00  0.00    +0.000 A 
ATOM      3  C   UNL     1       0.598  10.257  21.847  0.00  0.00    +0.000 A 
ATOM      4  S   UNL     1       1.409   8.804  22.190  0.00  0.00    +0.000 S 
ATOM      5  C   UNL     1       1.596   8.463  20.533  0.00  0.00    +0.000 A 
ENDROOT
BRANCH   2   6
ATOM      6  C   UNL     1       0.222  11.901  20.059  0.00  0.00    +0.000 A 
ATOM      7  C   UNL     1      -1.074  12.403  20.235  0.00  0.00    +0.000 A 
ATOM      8  C   UNL     1      -1.369  13.737  19.929  0.00  0.00    +0.000 A 
ATOM      9  C   UNL     1      -0.377  14.587  19.430  0.00  0.00    +0.000 A 
ATOM     10  C   UNL     1      -0.676  16.020  19.106  0.00  0.00    +0.000 C 
ATOM     11  C   UNL     1       0.913  14.085  19.240  0.00  0.00    +0.000 A 
ATOM     12  C   UNL     1       1.213  12.760  19.563  0.00  0.00    +0.000 A 
ENDBRANCH   2   6
BRANCH   5  13
ATOM     13  N   UNL     1       2.276   7.285  20.365  0.00  0.00    +0.000 N 
ATOM     14  C   UNL     1       1.732   6.021  20.418  0.00  0.00    +0.000 C 
ATOM     15  O   UNL     1       0.565   5.772  20.712  0.00  0.00    +0.000 OA
ATOM     16  H   UNL     1       3.269   7.393  20.496  0.00  0.00    +0.000 HD
BRANCH  14  17
ATOM     17  C   UNL     1       2.744   4.868  20.221  0.00  0.00    +0.000 C 
ATOM     18  C   UNL     1       2.212   3.506  20.703  0.00  0.00    +0.000 C 
ATOM     19  C   UNL     1       1.347   2.819  19.678  0.00  0.00    +0.000 C 
ATOM     20  C   UNL     1       1.261   3.221  18.398  0.00  0.00    +0.000 C 
ATOM     21  C   UNL     1       2.083   4.351  17.826  0.00  0.00    +0.000 C 
ATOM     22  C   UNL     1       3.233   4.779  18.758  0.00  0.00    +0.000 C 
BRANCH  22  23
ATOM     23  C   UNL     1       4.401   3.803  18.606  0.00  0.00    +0.000 C 
ATOM     24  O   UNL     1       5.276   3.616  19.448  0.00  0.00    +0.000 OA
BRANCH  23  25
ATOM     25  O   UNL     1       4.395   3.112  17.450  0.00  0.00    +0.000 OA
ATOM     26  H   UNL     1       5.233   3.129  16.948  0.00  0.00    +0.000 HD
ENDBRANCH  23  25
ENDBRANCH  22  23
ENDBRANCH  14  17
ENDBRANCH   5  13
BRANCH   1  27
ATOM     27  C   UNL     1       1.206   9.414  18.240  0.00  0.00    +0.000 C 
ATOM     28  O   UNL     1       2.003   8.708  17.635  0.00  0.00    +0.000 OA
BRANCH  27  29
ATOM     29  O   UNL     1       0.240  10.171  17.638  0.00  0.00    +0.000 OA
BRANCH  29  31
ATOM     30  C   UNL     1      -2.112  10.578  17.284  0.00  0.00    +0.000 C 
ATOM     31  C   UNL     1      -1.032   9.528  17.465  0.00  0.00    +0.000 C 
ENDBRANCH  29  31
ENDBRANCH  27  29
ENDBRANCH   1  27
TORSDOF 8
ENDMDL
