MODEL 1
REMARK VINA RESULT:      -7.5      0.000      0.000
REMARK  Name = 
REMARK  6 active torsions:
REMARK  status: ('A' for Active; 'I' for Inactive)
REMARK    1  A    between atoms: C_2  and  O_3
REMARK    2  A    between atoms: C_2  and  C_7
REMARK    3  A    between atoms: O_3  and  C_4
REMARK    4  A    between atoms: C_4  and  C_5
REMARK    5  A    between atoms: C_13  and  C_14
REMARK    6  A    between atoms: C_18  and  C_19
REMARK                            x       y       z     vdW  Elec       q    Type
REMARK                         _______ _______ _______ _____ _____    ______ ____
ROOT
ATOM      1  C   UNL     1       6.643   5.572  16.728  0.00  0.00    +0.000 C 
ATOM      2  C   UNL     1       7.424   4.603  15.776  0.00  0.00    +0.000 C 
ATOM      3  C   UNL     1       7.408   5.015  14.288  0.00  0.00    +0.000 C 
ATOM      4  C   UNL     1       6.325   4.143  13.643  0.00  0.00    +0.000 C 
ATOM      5  C   UNL     1       5.550   3.632  14.845  0.00  0.00    +0.000 C 
ATOM      6  C   UNL     1       4.658   4.734  15.478  0.00  0.00    +0.000 C 
ATOM      7  C   UNL     1       5.183   5.063  16.891  0.00  0.00    +0.000 C 
ATOM      8  N   UNL     1       6.694   3.311  15.729  0.00  0.00    +0.000 NA
ATOM      9  H   UNL     1       7.277   2.598  15.290  0.00  0.00    +0.000 HD
ENDROOT
BRANCH   7  10
ATOM     10  C   UNL     1       4.211   5.873  17.728  0.00  0.00    +0.000 A 
ATOM     11  C   UNL     1       3.834   7.182  17.434  0.00  0.00    +0.000 A 
ATOM     12  C   UNL     1       2.874   7.824  18.240  0.00  0.00    +0.000 A 
ATOM     13  C   UNL     1       2.286   7.163  19.322  0.00  0.00    +0.000 A 
ATOM     14  C   UNL     1       2.626   5.846  19.614  0.00  0.00    +0.000 A 
ATOM     15  C   UNL     1       3.601   5.230  18.832  0.00  0.00    +0.000 A 
BRANCH  14  16
ATOM     16  C   UNL     1       2.067   5.077  20.740  0.00  0.00    +0.000 C 
ATOM     17  C   UNL     1       1.468   3.875  20.771  0.00  0.00    +0.000 C 
ATOM     18  I   UNL     1       1.110   2.583  19.237  0.00  0.00    +0.000 I 
ENDBRANCH  14  16
ENDBRANCH   7  10
BRANCH   1  20
ATOM     19  O   UNL     1       7.748   4.670  18.680  0.00  0.00    +0.000 OA
ATOM     20  C   UNL     1       7.423   5.665  18.026  0.00  0.00    +0.000 C 
BRANCH  20  21
ATOM     21  O   UNL     1       7.584   6.939  18.441  0.00  0.00    +0.000 OA
BRANCH  21  22
ATOM     22  C   UNL     1       7.821   7.946  17.442  0.00  0.00    +0.000 C 
BRANCH  22  23
ATOM     23  C   UNL     1       8.202   9.277  18.067  0.00  0.00    +0.000 C 
ATOM     24  F   UNL     1       9.127   9.070  19.046  0.00  0.00    +0.000 F 
ENDBRANCH  22  23
ENDBRANCH  21  22
ENDBRANCH  20  21
ENDBRANCH   1  20
TORSDOF 6
ENDMDL
MODEL 2
REMARK VINA RESULT:      -7.3      2.983      4.359
REMARK  Name = 
REMARK  6 active torsions:
REMARK  status: ('A' for Active; 'I' for Inactive)
REMARK    1  A    between atoms: C_2  and  O_3
REMARK    2  A    between atoms: C_2  and  C_7
REMARK    3  A    between atoms: O_3  and  C_4
REMARK    4  A    between atoms: C_4  and  C_5
REMARK    5  A    between atoms: C_13  and  C_14
REMARK    6  A    between atoms: C_18  and  C_19
REMARK                            x       y       z     vdW  Elec       q    Type
REMARK                         _______ _______ _______ _____ _____    ______ ____
ROOT
ATOM      1  C   UNL     1       3.958   4.678  18.506  0.00  0.00    +0.000 C 
ATOM      2  C   UNL     1       4.160   3.164  18.860  0.00  0.00    +0.000 C 
ATOM      3  C   UNL     1       3.340   2.188  17.990  0.00  0.00    +0.000 C 
ATOM      4  C   UNL     1       2.122   1.819  18.842  0.00  0.00    +0.000 C 
ATOM      5  C   UNL     1       2.124   2.897  19.911  0.00  0.00    +0.000 C 
ATOM      6  C   UNL     1       1.652   4.270  19.358  0.00  0.00    +0.000 C 
ATOM      7  C   UNL     1       2.830   5.266  19.401  0.00  0.00    +0.000 C 
ATOM      8  N   UNL     1       3.576   2.920  20.202  0.00  0.00    +0.000 NA
ATOM      9  H   UNL     1       3.871   2.006  20.548  0.00  0.00    +0.000 HD
ENDROOT
BRANCH   7  10
ATOM     10  C   UNL     1       2.413   6.710  19.202  0.00  0.00    +0.000 A 
ATOM     11  C   UNL     1       2.429   7.364  17.971  0.00  0.00    +0.000 A 
ATOM     12  C   UNL     1       1.960   8.688  17.883  0.00  0.00    +0.000 A 
ATOM     13  C   UNL     1       1.466   9.352  19.010  0.00  0.00    +0.000 A 
ATOM     14  C   UNL     1       1.412   8.708  20.242  0.00  0.00    +0.000 A 
ATOM     15  C   UNL     1       1.910   7.409  20.327  0.00  0.00    +0.000 A 
BRANCH  14  16
ATOM     16  C   UNL     1       0.920   9.333  21.482  0.00  0.00    +0.000 C 
ATOM     17  C   UNL     1       0.090  10.373  21.671  0.00  0.00    +0.000 C 
ATOM     18  I   UNL     1      -0.871  11.515  20.285  0.00  0.00    +0.000 I 
ENDBRANCH  14  16
ENDBRANCH   7  10
BRANCH   1  20
ATOM     19  O   UNL     1       5.932   5.370  19.717  0.00  0.00    +0.000 OA
ATOM     20  C   UNL     1       5.301   5.367  18.656  0.00  0.00    +0.000 C 
BRANCH  20  21
ATOM     21  O   UNL     1       5.641   6.080  17.562  0.00  0.00    +0.000 OA
BRANCH  21  22
ATOM     22  C   UNL     1       7.038   6.193  17.241  0.00  0.00    +0.000 C 
BRANCH  22  23
ATOM     23  C   UNL     1       7.603   7.536  17.666  0.00  0.00    +0.000 C 
ATOM     24  F   UNL     1       8.489   7.354  18.686  0.00  0.00    +0.000 F 
ENDBRANCH  22  23
ENDBRANCH  21  22
ENDBRANCH  20  21
ENDBRANCH   1  20
TORSDOF 6
ENDMDL
MODEL 3
REMARK VINA RESULT:      -7.3      3.911      5.371
REMARK  Name = 
REMARK  6 active torsions:
REMARK  status: ('A' for Active; 'I' for Inactive)
REMARK    1  A    between atoms: C_2  and  O_3
REMARK    2  A    between atoms: C_2  and  C_7
REMARK    3  A    between atoms: O_3  and  C_4
REMARK    4  A    between atoms: C_4  and  C_5
REMARK    5  A    between atoms: C_13  and  C_14
REMARK    6  A    between atoms: C_18  and  C_19
REMARK                            x       y       z     vdW  Elec       q    Type
REMARK                         _______ _______ _______ _____ _____    ______ ____
ROOT
ATOM      1  C   UNL     1       3.123   5.077  18.622  0.00  0.00    +0.000 C 
ATOM      2  C   UNL     1       4.115   4.067  17.948  0.00  0.00    +0.000 C 
ATOM      3  C   UNL     1       5.505   3.991  18.616  0.00  0.00    +0.000 C 
ATOM      4  C   UNL     1       6.416   4.861  17.745  0.00  0.00    +0.000 C 
ATOM      5  C   UNL     1       5.423   5.671  16.930  0.00  0.00    +0.000 C 
ATOM      6  C   UNL     1       4.736   6.777  17.777  0.00  0.00    +0.000 C 
ATOM      7  C   UNL     1       3.234   6.455  17.910  0.00  0.00    +0.000 C 
ATOM      8  N   UNL     1       4.466   4.590  16.604  0.00  0.00    +0.000 NA
ATOM      9  H   UNL     1       4.939   3.865  16.062  0.00  0.00    +0.000 HD
ENDROOT
BRANCH   7  10
ATOM     10  C   UNL     1       2.405   7.616  18.424  0.00  0.00    +0.000 A 
ATOM     11  C   UNL     1       1.852   8.600  17.607  0.00  0.00    +0.000 A 
ATOM     12  C   UNL     1       1.043   9.602  18.177  0.00  0.00    +0.000 A 
ATOM     13  C   UNL     1       0.778   9.616  19.550  0.00  0.00    +0.000 A 
ATOM     14  C   UNL     1       1.296   8.626  20.379  0.00  0.00    +0.000 A 
ATOM     15  C   UNL     1       2.122   7.658  19.811  0.00  0.00    +0.000 A 
BRANCH  14  16
ATOM     16  C   UNL     1       1.079   8.569  21.835  0.00  0.00    +0.000 C 
ATOM     17  C   UNL     1       0.398   9.389  22.654  0.00  0.00    +0.000 C 
ATOM     18  I   UNL     1      -0.662  11.067  22.196  0.00  0.00    +0.000 I 
ENDBRANCH  14  16
ENDBRANCH   7  10
BRANCH   1  20
ATOM     19  O   UNL     1       1.158   4.199  17.520  0.00  0.00    +0.000 OA
ATOM     20  C   UNL     1       1.739   4.457  18.579  0.00  0.00    +0.000 C 
BRANCH  20  21
ATOM     21  O   UNL     1       1.177   4.363  19.802  0.00  0.00    +0.000 OA
BRANCH  21  22
ATOM     22  C   UNL     1       1.048   3.054  20.383  0.00  0.00    +0.000 C 
BRANCH  22  23
ATOM     23  C   UNL     1       2.016   2.854  21.535  0.00  0.00    +0.000 C 
ATOM     24  F   UNL     1       3.266   2.625  21.043  0.00  0.00    +0.000 F 
ENDBRANCH  22  23
ENDBRANCH  21  22
ENDBRANCH  20  21
ENDBRANCH   1  20
TORSDOF 6
ENDMDL
MODEL 4
REMARK VINA RESULT:      -7.3      3.210      4.625
REMARK  Name = 
REMARK  6 active torsions:
REMARK  status: ('A' for Active; 'I' for Inactive)
REMARK    1  A    between atoms: C_2  and  O_3
REMARK    2  A    between atoms: C_2  and  C_7
REMARK    3  A    between atoms: O_3  and  C_4
REMARK    4  A    between atoms: C_4  and  C_5
REMARK    5  A    between atoms: C_13  and  C_14
REMARK    6  A    between atoms: C_18  and  C_19
REMARK                            x       y       z     vdW  Elec       q    Type
REMARK                         _______ _______ _______ _____ _____    ______ ____
ROOT
ATOM      1  C   UNL     1       3.849   4.688  18.535  0.00  0.00    +0.000 C 
ATOM      2  C   UNL     1       4.088   3.159  18.786  0.00  0.00    +0.000 C 
ATOM      3  C   UNL     1       3.222   2.224  17.915  0.00  0.00    +0.000 C 
ATOM      4  C   UNL     1       2.065   1.790  18.822  0.00  0.00    +0.000 C 
ATOM      5  C   UNL     1       2.128   2.805  19.950  0.00  0.00    +0.000 C 
ATOM      6  C   UNL     1       1.608   4.201  19.510  0.00  0.00    +0.000 C 
ATOM      7  C   UNL     1       2.776   5.208  19.533  0.00  0.00    +0.000 C 
ATOM      8  N   UNL     1       3.595   2.831  20.147  0.00  0.00    +0.000 NA
ATOM      9  H   UNL     1       3.920   1.902  20.419  0.00  0.00    +0.000 HD
ENDROOT
BRANCH   7  10
ATOM     10  C   UNL     1       2.333   6.656  19.447  0.00  0.00    +0.000 A 
ATOM     11  C   UNL     1       2.389   7.420  18.282  0.00  0.00    +0.000 A 
ATOM     12  C   UNL     1       1.892   8.737  18.291  0.00  0.00    +0.000 A 
ATOM     13  C   UNL     1       1.332   9.285  19.450  0.00  0.00    +0.000 A 
ATOM     14  C   UNL     1       1.239   8.531  20.614  0.00  0.00    +0.000 A 
ATOM     15  C   UNL     1       1.764   7.240  20.605  0.00  0.00    +0.000 A 
BRANCH  14  16
ATOM     16  C   UNL     1       0.677   9.030  21.882  0.00  0.00    +0.000 C 
ATOM     17  C   UNL     1       0.034  10.175  22.166  0.00  0.00    +0.000 C 
ATOM     18  I   UNL     1      -0.465  11.708  20.921  0.00  0.00    +0.000 I 
ENDBRANCH  14  16
ENDBRANCH   7  10
BRANCH   1  20
ATOM     19  O   UNL     1       5.848   5.415  19.683  0.00  0.00    +0.000 OA
ATOM     20  C   UNL     1       5.192   5.385  18.638  0.00  0.00    +0.000 C 
BRANCH  20  21
ATOM     21  O   UNL     1       5.503   6.073  17.520  0.00  0.00    +0.000 OA
BRANCH  21  22
ATOM     22  C   UNL     1       6.863   6.020  17.055  0.00  0.00    +0.000 C 
BRANCH  22  23
ATOM     23  C   UNL     1       7.266   4.610  16.661  0.00  0.00    +0.000 C 
ATOM     24  F   UNL     1       8.168   4.128  17.562  0.00  0.00    +0.000 F 
ENDBRANCH  22  23
ENDBRANCH  21  22
ENDBRANCH  20  21
ENDBRANCH   1  20
TORSDOF 6
ENDMDL
MODEL 5
REMARK VINA RESULT:      -7.2      3.274      4.648
REMARK  Name = 
REMARK  6 active torsions:
REMARK  status: ('A' for Active; 'I' for Inactive)
REMARK    1  A    between atoms: C_2  and  O_3
REMARK    2  A    between atoms: C_2  and  C_7
REMARK    3  A    between atoms: O_3  and  C_4
REMARK    4  A    between atoms: C_4  and  C_5
REMARK    5  A    between atoms: C_13  and  C_14
REMARK    6  A    between atoms: C_18  and  C_19
REMARK                            x       y       z     vdW  Elec       q    Type
REMARK                         _______ _______ _______ _____ _____    ______ ____
ROOT
ATOM      1  C   UNL     1       3.382   5.370  17.834  0.00  0.00    +0.000 C 
ATOM      2  C   UNL     1       3.867   3.881  17.903  0.00  0.00    +0.000 C 
ATOM      3  C   UNL     1       2.816   2.843  17.456  0.00  0.00    +0.000 C 
ATOM      4  C   UNL     1       2.216   2.295  18.755  0.00  0.00    +0.000 C 
ATOM      5  C   UNL     1       2.650   3.326  19.783  0.00  0.00    +0.000 C 
ATOM      6  C   UNL     1       1.846   4.649  19.659  0.00  0.00    +0.000 C 
ATOM      7  C   UNL     1       2.796   5.781  19.215  0.00  0.00    +0.000 C 
ATOM      8  N   UNL     1       4.048   3.518  19.331  0.00  0.00    +0.000 NA
ATOM      9  H   UNL     1       4.555   2.635  19.403  0.00  0.00    +0.000 HD
ENDROOT
BRANCH   7  10
ATOM     10  C   UNL     1       2.207   7.169  19.379  0.00  0.00    +0.000 A 
ATOM     11  C   UNL     1       2.107   8.100  18.347  0.00  0.00    +0.000 A 
ATOM     12  C   UNL     1       1.484   9.339  18.588  0.00  0.00    +0.000 A 
ATOM     13  C   UNL     1       0.955   9.644  19.846  0.00  0.00    +0.000 A 
ATOM     14  C   UNL     1       1.017   8.718  20.882  0.00  0.00    +0.000 A 
ATOM     15  C   UNL     1       1.664   7.507  20.643  0.00  0.00    +0.000 A 
BRANCH  14  16
ATOM     16  C   UNL     1       0.497   8.958  22.239  0.00  0.00    +0.000 C 
ATOM     17  C   UNL     1      -0.179  10.002  22.749  0.00  0.00    +0.000 C 
ATOM     18  I   UNL     1      -0.800  11.704  21.818  0.00  0.00    +0.000 I 
ENDBRANCH  14  16
ENDBRANCH   7  10
BRANCH   1  20
ATOM     19  O   UNL     1       4.562   6.813  16.296  0.00  0.00    +0.000 OA
ATOM     20  C   UNL     1       4.556   6.214  17.375  0.00  0.00    +0.000 C 
BRANCH  20  21
ATOM     21  O   UNL     1       5.620   6.110  18.198  0.00  0.00    +0.000 OA
BRANCH  21  22
ATOM     22  C   UNL     1       6.930   6.100  17.604  0.00  0.00    +0.000 C 
BRANCH  22  23
ATOM     23  C   UNL     1       7.273   4.737  17.029  0.00  0.00    +0.000 C 
ATOM     24  F   UNL     1       8.238   4.152  17.793  0.00  0.00    +0.000 F 
ENDBRANCH  22  23
ENDBRANCH  21  22
ENDBRANCH  20  21
ENDBRANCH   1  20
TORSDOF 6
ENDMDL
MODEL 6
REMARK VINA RESULT:      -7.2      3.346      5.277
REMARK  Name = 
REMARK  6 active torsions:
REMARK  status: ('A' for Active; 'I' for Inactive)
REMARK    1  A    between atoms: C_2  and  O_3
REMARK    2  A    between atoms: C_2  and  C_7
REMARK    3  A    between atoms: O_3  and  C_4
REMARK    4  A    between atoms: C_4  and  C_5
REMARK    5  A    between atoms: C_13  and  C_14
REMARK    6  A    between atoms: C_18  and  C_19
REMARK                            x       y       z     vdW  Elec       q    Type
REMARK                         _______ _______ _______ _____ _____    ______ ____
ROOT
ATOM      1  C   UNL     1       2.942   4.277  18.727  0.00  0.00    +0.000 C 
ATOM      2  C   UNL     1       3.036   2.940  19.540  0.00  0.00    +0.000 C 
ATOM      3  C   UNL     1       1.695   2.192  19.700  0.00  0.00    +0.000 C 
ATOM      4  C   UNL     1       1.200   2.553  21.104  0.00  0.00    +0.000 C 
ATOM      5  C   UNL     1       2.048   3.763  21.455  0.00  0.00    +0.000 C 
ATOM      6  C   UNL     1       1.599   5.034  20.684  0.00  0.00    +0.000 C 
ATOM      7  C   UNL     1       2.719   5.459  19.711  0.00  0.00    +0.000 C 
ATOM      8  N   UNL     1       3.352   3.277  20.950  0.00  0.00    +0.000 NA
ATOM      9  H   UNL     1       3.622   2.432  21.457  0.00  0.00    +0.000 HD
ENDROOT
BRANCH   7  10
ATOM     10  C   UNL     1       2.540   6.858  19.151  0.00  0.00    +0.000 A 
ATOM     11  C   UNL     1       3.085   7.288  17.943  0.00  0.00    +0.000 A 
ATOM     12  C   UNL     1       2.806   8.588  17.480  0.00  0.00    +0.000 A 
ATOM     13  C   UNL     1       1.980   9.449  18.211  0.00  0.00    +0.000 A 
ATOM     14  C   UNL     1       1.402   9.029  19.404  0.00  0.00    +0.000 A 
ATOM     15  C   UNL     1       1.711   7.752  19.871  0.00  0.00    +0.000 A 
BRANCH  14  16
ATOM     16  C   UNL     1       0.532   9.871  20.243  0.00  0.00    +0.000 C 
ATOM     17  C   UNL     1      -0.616  10.508  19.956  0.00  0.00    +0.000 C 
ATOM     18  I   UNL     1      -1.658  10.541  18.206  0.00  0.00    +0.000 I 
ENDBRANCH  14  16
ENDBRANCH   7  10
BRANCH   1  20
ATOM     19  O   UNL     1       4.180   4.354  16.652  0.00  0.00    +0.000 OA
ATOM     20  C   UNL     1       4.200   4.390  17.885  0.00  0.00    +0.000 C 
BRANCH  20  21
ATOM     21  O   UNL     1       5.323   4.384  18.633  0.00  0.00    +0.000 OA
BRANCH  21  22
ATOM     22  C   UNL     1       6.289   5.425  18.402  0.00  0.00    +0.000 C 
BRANCH  22  23
ATOM     23  C   UNL     1       7.629   4.860  17.967  0.00  0.00    +0.000 C 
ATOM     24  F   UNL     1       7.475   4.175  16.799  0.00  0.00    +0.000 F 
ENDBRANCH  22  23
ENDBRANCH  21  22
ENDBRANCH  20  21
ENDBRANCH   1  20
TORSDOF 6
ENDMDL
MODEL 7
REMARK VINA RESULT:      -7.1      3.045      4.541
REMARK  Name = 
REMARK  6 active torsions:
REMARK  status: ('A' for Active; 'I' for Inactive)
REMARK    1  A    between atoms: C_2  and  O_3
REMARK    2  A    between atoms: C_2  and  C_7
REMARK    3  A    between atoms: O_3  and  C_4
REMARK    4  A    between atoms: C_4  and  C_5
REMARK    5  A    between atoms: C_13  and  C_14
REMARK    6  A    between atoms: C_18  and  C_19
REMARK                            x       y       z     vdW  Elec       q    Type
REMARK                         _______ _______ _______ _____ _____    ______ ____
ROOT
ATOM      1  C   UNL     1       3.470   4.601  17.977  0.00  0.00    +0.000 C 
ATOM      2  C   UNL     1       3.704   3.084  18.292  0.00  0.00    +0.000 C 
ATOM      3  C   UNL     1       2.586   2.145  17.791  0.00  0.00    +0.000 C 
ATOM      4  C   UNL     1       1.719   1.862  19.022  0.00  0.00    +0.000 C 
ATOM      5  C   UNL     1       2.145   2.954  19.987  0.00  0.00    +0.000 C 
ATOM      6  C   UNL     1       1.582   4.344  19.583  0.00  0.00    +0.000 C 
ATOM      7  C   UNL     1       2.751   5.268  19.184  0.00  0.00    +0.000 C 
ATOM      8  N   UNL     1       3.607   2.895  19.761  0.00  0.00    +0.000 NA
ATOM      9  H   UNL     1       3.956   1.970  20.016  0.00  0.00    +0.000 HD
ENDROOT
BRANCH   7  10
ATOM     10  C   UNL     1       2.364   6.732  19.091  0.00  0.00    +0.000 A 
ATOM     11  C   UNL     1       2.379   7.468  17.908  0.00  0.00    +0.000 A 
ATOM     12  C   UNL     1       1.939   8.806  17.917  0.00  0.00    +0.000 A 
ATOM     13  C   UNL     1       1.478   9.402  19.095  0.00  0.00    +0.000 A 
ATOM     14  C   UNL     1       1.427   8.676  20.280  0.00  0.00    +0.000 A 
ATOM     15  C   UNL     1       1.895   7.364  20.269  0.00  0.00    +0.000 A 
BRANCH  14  16
ATOM     16  C   UNL     1       0.967   9.226  21.568  0.00  0.00    +0.000 C 
ATOM     17  C   UNL     1       0.174  10.275  21.842  0.00  0.00    +0.000 C 
ATOM     18  I   UNL     1      -0.763  11.544  20.552  0.00  0.00    +0.000 I 
ENDBRANCH  14  16
ENDBRANCH   7  10
BRANCH   1  20
ATOM     19  O   UNL     1       5.000   5.883  16.615  0.00  0.00    +0.000 OA
ATOM     20  C   UNL     1       4.816   5.211  17.633  0.00  0.00    +0.000 C 
BRANCH  20  21
ATOM     21  O   UNL     1       5.792   4.814  18.476  0.00  0.00    +0.000 OA
BRANCH  21  22
ATOM     22  C   UNL     1       7.156   5.039  18.076  0.00  0.00    +0.000 C 
BRANCH  22  23
ATOM     23  C   UNL     1       7.842   6.053  18.974  0.00  0.00    +0.000 C 
ATOM     24  F   UNL     1       8.178   7.152  18.242  0.00  0.00    +0.000 F 
ENDBRANCH  22  23
ENDBRANCH  21  22
ENDBRANCH  20  21
ENDBRANCH   1  20
TORSDOF 6
ENDMDL
MODEL 8
REMARK VINA RESULT:      -7.1      3.545      4.923
REMARK  Name = 
REMARK  6 active torsions:
REMARK  status: ('A' for Active; 'I' for Inactive)
REMARK    1  A    between atoms: C_2  and  O_3
REMARK    2  A    between atoms: C_2  and  C_7
REMARK    3  A    between atoms: O_3  and  C_4
REMARK    4  A    between atoms: C_4  and  C_5
REMARK    5  A    between atoms: C_13  and  C_14
REMARK    6  A    between atoms: C_18  and  C_19
REMARK                            x       y       z     vdW  Elec       q    Type
REMARK                         _______ _______ _______ _____ _____    ______ ____
ROOT
ATOM      1  C   UNL     1       5.025   4.515  18.053  0.00  0.00    +0.000 C 
ATOM      2  C   UNL     1       5.876   3.871  16.905  0.00  0.00    +0.000 C 
ATOM      3  C   UNL     1       7.225   4.572  16.636  0.00  0.00    +0.000 C 
ATOM      4  C   UNL     1       6.976   5.466  15.417  0.00  0.00    +0.000 C 
ATOM      5  C   UNL     1       5.460   5.526  15.352  0.00  0.00    +0.000 C 
ATOM      6  C   UNL     1       4.862   6.429  16.466  0.00  0.00    +0.000 C 
ATOM      7  C   UNL     1       4.046   5.556  17.442  0.00  0.00    +0.000 C 
ATOM      8  N   UNL     1       5.168   4.099  15.620  0.00  0.00    +0.000 NA
ATOM      9  H   UNL     1       5.582   3.522  14.888  0.00  0.00    +0.000 HD
ENDROOT
BRANCH   7  10
ATOM     10  C   UNL     1       3.151   6.356  18.370  0.00  0.00    +0.000 A 
ATOM     11  C   UNL     1       2.786   5.941  19.649  0.00  0.00    +0.000 A 
ATOM     12  C   UNL     1       2.003   6.787  20.457  0.00  0.00    +0.000 A 
ATOM     13  C   UNL     1       1.596   8.044  19.997  0.00  0.00    +0.000 A 
ATOM     14  C   UNL     1       1.975   8.491  18.735  0.00  0.00    +0.000 A 
ATOM     15  C   UNL     1       2.722   7.632  17.931  0.00  0.00    +0.000 A 
BRANCH  14  16
ATOM     16  C   UNL     1       1.583   9.792  18.166  0.00  0.00    +0.000 C 
ATOM     17  C   UNL     1       1.037  10.875  18.744  0.00  0.00    +0.000 C 
ATOM     18  I   UNL     1       0.547  11.173  20.699  0.00  0.00    +0.000 I 
ENDBRANCH  14  16
ENDBRANCH   7  10
BRANCH   1  20
ATOM     19  O   UNL     1       4.793   2.939  19.872  0.00  0.00    +0.000 OA
ATOM     20  C   UNL     1       4.350   3.387  18.810  0.00  0.00    +0.000 C 
BRANCH  20  21
ATOM     21  O   UNL     1       3.319   2.849  18.125  0.00  0.00    +0.000 OA
BRANCH  21  22
ATOM     22  C   UNL     1       2.359   2.070  18.858  0.00  0.00    +0.000 C 
BRANCH  22  23
ATOM     23  C   UNL     1       0.955   2.629  18.712  0.00  0.00    +0.000 C 
ATOM     24  F   UNL     1       0.641   3.363  19.816  0.00  0.00    +0.000 F 
ENDBRANCH  22  23
ENDBRANCH  21  22
ENDBRANCH  20  21
ENDBRANCH   1  20
TORSDOF 6
ENDMDL
MODEL 9
REMARK VINA RESULT:      -7.0      2.923      4.023
REMARK  Name = 
REMARK  6 active torsions:
REMARK  status: ('A' for Active; 'I' for Inactive)
REMARK    1  A    between atoms: C_2  and  O_3
REMARK    2  A    between atoms: C_2  and  C_7
REMARK    3  A    between atoms: O_3  and  C_4
REMARK    4  A    between atoms: C_4  and  C_5
REMARK    5  A    between atoms: C_13  and  C_14
REMARK    6  A    between atoms: C_18  and  C_19
REMARK                            x       y       z     vdW  Elec       q    Type
REMARK                         _______ _______ _______ _____ _____    ______ ____
ROOT
ATOM      1  C   UNL     1       3.899   5.072  17.525  0.00  0.00    +0.000 C 
ATOM      2  C   UNL     1       4.578   3.668  17.683  0.00  0.00    +0.000 C 
ATOM      3  C   UNL     1       3.628   2.470  17.473  0.00  0.00    +0.000 C 
ATOM      4  C   UNL     1       3.247   2.009  18.884  0.00  0.00    +0.000 C 
ATOM      5  C   UNL     1       3.652   3.194  19.743  0.00  0.00    +0.000 C 
ATOM      6  C   UNL     1       2.674   4.391  19.584  0.00  0.00    +0.000 C 
ATOM      7  C   UNL     1       3.417   5.568  18.917  0.00  0.00    +0.000 C 
ATOM      8  N   UNL     1       4.956   3.495  19.108  0.00  0.00    +0.000 NA
ATOM      9  H   UNL     1       5.578   2.692  19.207  0.00  0.00    +0.000 HD
ENDROOT
BRANCH   7  10
ATOM     10  C   UNL     1       2.674   6.887  19.011  0.00  0.00    +0.000 A 
ATOM     11  C   UNL     1       2.420   7.717  17.921  0.00  0.00    +0.000 A 
ATOM     12  C   UNL     1       1.665   8.891  18.104  0.00  0.00    +0.000 A 
ATOM     13  C   UNL     1       1.157   9.230  19.362  0.00  0.00    +0.000 A 
ATOM     14  C   UNL     1       1.374   8.401  20.457  0.00  0.00    +0.000 A 
ATOM     15  C   UNL     1       2.150   7.258  20.274  0.00  0.00    +0.000 A 
BRANCH  14  16
ATOM     16  C   UNL     1       0.888   8.684  21.819  0.00  0.00    +0.000 C 
ATOM     17  C   UNL     1       0.213   9.738  22.309  0.00  0.00    +0.000 C 
ATOM     18  I   UNL     1      -0.456  11.396  21.334  0.00  0.00    +0.000 I 
ENDBRANCH  14  16
ENDBRANCH   7  10
BRANCH   1  20
ATOM     19  O   UNL     1       5.070   5.996  15.622  0.00  0.00    +0.000 OA
ATOM     20  C   UNL     1       4.898   5.990  16.844  0.00  0.00    +0.000 C 
BRANCH  20  21
ATOM     21  O   UNL     1       5.659   6.670  17.727  0.00  0.00    +0.000 OA
BRANCH  21  22
ATOM     22  C   UNL     1       7.087   6.531  17.631  0.00  0.00    +0.000 C 
BRANCH  22  23
ATOM     23  C   UNL     1       7.785   7.879  17.667  0.00  0.00    +0.000 C 
ATOM     24  F   UNL     1       8.669   7.904  18.703  0.00  0.00    +0.000 F 
ENDBRANCH  22  23
ENDBRANCH  21  22
ENDBRANCH  20  21
ENDBRANCH   1  20
TORSDOF 6
ENDMDL
