MODEL 1
REMARK VINA RESULT:      -8.1      0.000      0.000
REMARK  Name = 
REMARK  4 active torsions:
REMARK  status: ('A' for Active; 'I' for Inactive)
REMARK    1  A    between atoms: O_1  and  C_2
REMARK    2  A    between atoms: C_7  and  C_8
REMARK    3  A    between atoms: C_12  and  O_13
REMARK    4  A    between atoms: C_14  and  O_15
REMARK                            x       y       z     vdW  Elec       q    Type
REMARK                         _______ _______ _______ _____ _____    ______ ____
ROOT
ATOM      1  C   UNL     1       2.678   7.249  18.692  0.00  0.00    +0.000 A 
ATOM      2  C   UNL     1       2.605   5.939  19.181  0.00  0.00    +0.000 A 
ATOM      3  C   UNL     1       3.311   4.924  18.593  0.00  0.00    +0.000 A 
ATOM      4  C   UNL     1       4.510   5.273  18.016  0.00  0.00    +0.000 A 
ATOM      5  C   UNL     1       5.605   4.443  18.176  0.00  0.00    +0.000 A 
ATOM      6  C   UNL     1       6.796   4.755  17.544  0.00  0.00    +0.000 A 
ATOM      7  C   UNL     1       6.881   5.860  16.706  0.00  0.00    +0.000 A 
ATOM      8  C   UNL     1       5.799   6.758  16.626  0.00  0.00    +0.000 A 
ATOM      9  C   UNL     1       4.630   6.533  17.393  0.00  0.00    +0.000 A 
ATOM     10  C   UNL     1       3.632   7.500  17.692  0.00  0.00    +0.000 A 
ENDROOT
BRANCH   1  16
ATOM     11  C   UNL     1       1.282   9.368  18.634  0.00  0.00    +0.000 A 
ATOM     12  C   UNL     1       0.326  10.216  19.196  0.00  0.00    +0.000 A 
ATOM     13  C   UNL     1      -0.090  10.005  20.503  0.00  0.00    +0.000 A 
ATOM     14  C   UNL     1       0.437   8.964  21.244  0.00  0.00    +0.000 A 
ATOM     15  C   UNL     1       1.376   8.092  20.669  0.00  0.00    +0.000 A 
ATOM     16  C   UNL     1       1.818   8.268  19.347  0.00  0.00    +0.000 A 
BRANCH  11  17
ATOM     17  O   UNL     1       1.684   9.627  17.347  0.00  0.00    +0.000 OA
ATOM     18  H   UNL     1       1.683  10.583  17.193  0.00  0.00    +0.000 HD
ENDBRANCH  11  17
ENDBRANCH   1  16
BRANCH   5  19
ATOM     19  O   UNL     1       5.589   3.406  19.074  0.00  0.00    +0.000 OA
ATOM     20  H   UNL     1       4.781   2.881  18.920  0.00  0.00    +0.000 HD
ENDBRANCH   5  19
BRANCH   6  21
ATOM     21  O   UNL     1       7.907   4.013  17.820  0.00  0.00    +0.000 OA
ATOM     22  H   UNL     1       7.681   3.120  17.487  0.00  0.00    +0.000 HD
ENDBRANCH   6  21
TORSDOF 4
ENDMDL
MODEL 2
REMARK VINA RESULT:      -8.0      1.101      1.549
REMARK  Name = 
REMARK  4 active torsions:
REMARK  status: ('A' for Active; 'I' for Inactive)
REMARK    1  A    between atoms: O_1  and  C_2
REMARK    2  A    between atoms: C_7  and  C_8
REMARK    3  A    between atoms: C_12  and  O_13
REMARK    4  A    between atoms: C_14  and  O_15
REMARK                            x       y       z     vdW  Elec       q    Type
REMARK                         _______ _______ _______ _____ _____    ______ ____
ROOT
ATOM      1  C   UNL     1       2.699   7.298  18.238  0.00  0.00    +0.000 A 
ATOM      2  C   UNL     1       2.525   5.949  18.570  0.00  0.00    +0.000 A 
ATOM      3  C   UNL     1       3.324   4.978  18.029  0.00  0.00    +0.000 A 
ATOM      4  C   UNL     1       4.614   5.350  17.729  0.00  0.00    +0.000 A 
ATOM      5  C   UNL     1       5.653   4.481  18.010  0.00  0.00    +0.000 A 
ATOM      6  C   UNL     1       6.944   4.821  17.651  0.00  0.00    +0.000 A 
ATOM      7  C   UNL     1       7.197   5.999  16.959  0.00  0.00    +0.000 A 
ATOM      8  C   UNL     1       6.156   6.928  16.764  0.00  0.00    +0.000 A 
ATOM      9  C   UNL     1       4.860   6.661  17.268  0.00  0.00    +0.000 A 
ATOM     10  C   UNL     1       3.829   7.620  17.467  0.00  0.00    +0.000 A 
ENDROOT
BRANCH   1  16
ATOM     11  C   UNL     1       1.506   8.362  20.208  0.00  0.00    +0.000 A 
ATOM     12  C   UNL     1       0.750   9.396  20.765  0.00  0.00    +0.000 A 
ATOM     13  C   UNL     1       0.177  10.346  19.933  0.00  0.00    +0.000 A 
ATOM     14  C   UNL     1       0.348  10.271  18.563  0.00  0.00    +0.000 A 
ATOM     15  C   UNL     1       1.133   9.249  18.005  0.00  0.00    +0.000 A 
ATOM     16  C   UNL     1       1.737   8.271  18.814  0.00  0.00    +0.000 A 
BRANCH  11  17
ATOM     17  O   UNL     1       2.036   7.429  21.064  0.00  0.00    +0.000 OA
ATOM     18  H   UNL     1       2.251   6.623  20.573  0.00  0.00    +0.000 HD
ENDBRANCH  11  17
ENDBRANCH   1  16
BRANCH   5  19
ATOM     19  O   UNL     1       5.458   3.363  18.781  0.00  0.00    +0.000 OA
ATOM     20  H   UNL     1       4.506   3.145  18.768  0.00  0.00    +0.000 HD
ENDBRANCH   5  19
BRANCH   6  21
ATOM     21  O   UNL     1       7.977   4.028  18.057  0.00  0.00    +0.000 OA
ATOM     22  H   UNL     1       8.526   3.927  17.252  0.00  0.00    +0.000 HD
ENDBRANCH   6  21
TORSDOF 4
ENDMDL
MODEL 3
REMARK VINA RESULT:      -7.9      2.956      6.807
REMARK  Name = 
REMARK  4 active torsions:
REMARK  status: ('A' for Active; 'I' for Inactive)
REMARK    1  A    between atoms: O_1  and  C_2
REMARK    2  A    between atoms: C_7  and  C_8
REMARK    3  A    between atoms: C_12  and  O_13
REMARK    4  A    between atoms: C_14  and  O_15
REMARK                            x       y       z     vdW  Elec       q    Type
REMARK                         _______ _______ _______ _____ _____    ______ ____
ROOT
ATOM      1  C   UNL     1       5.506   5.005  15.684  0.00  0.00    +0.000 A 
ATOM      2  C   UNL     1       5.676   4.056  16.700  0.00  0.00    +0.000 A 
ATOM      3  C   UNL     1       5.440   4.372  18.011  0.00  0.00    +0.000 A 
ATOM      4  C   UNL     1       4.467   5.315  18.242  0.00  0.00    +0.000 A 
ATOM      5  C   UNL     1       3.580   5.131  19.288  0.00  0.00    +0.000 A 
ATOM      6  C   UNL     1       2.641   6.108  19.567  0.00  0.00    +0.000 A 
ATOM      7  C   UNL     1       2.622   7.295  18.845  0.00  0.00    +0.000 A 
ATOM      8  C   UNL     1       3.456   7.437  17.719  0.00  0.00    +0.000 A 
ATOM      9  C   UNL     1       4.310   6.378  17.328  0.00  0.00    +0.000 A 
ATOM     10  C   UNL     1       4.923   6.229  16.053  0.00  0.00    +0.000 A 
ENDROOT
BRANCH   1  16
ATOM     11  C   UNL     1       7.132   4.857  13.742  0.00  0.00    +0.000 A 
ATOM     12  C   UNL     1       7.529   4.309  12.521  0.00  0.00    +0.000 A 
ATOM     13  C   UNL     1       6.644   3.511  11.811  0.00  0.00    +0.000 A 
ATOM     14  C   UNL     1       5.378   3.260  12.307  0.00  0.00    +0.000 A 
ATOM     15  C   UNL     1       4.989   3.787  13.549  0.00  0.00    +0.000 A 
ATOM     16  C   UNL     1       5.859   4.594  14.302  0.00  0.00    +0.000 A 
BRANCH  11  17
ATOM     17  O   UNL     1       8.030   5.661  14.400  0.00  0.00    +0.000 OA
ATOM     18  H   UNL     1       8.752   5.900  13.801  0.00  0.00    +0.000 HD
ENDBRANCH  11  17
ENDBRANCH   1  16
BRANCH   5  19
ATOM     19  O   UNL     1       3.500   3.934  19.953  0.00  0.00    +0.000 OA
ATOM     20  H   UNL     1       2.565   3.653  19.965  0.00  0.00    +0.000 HD
ENDBRANCH   5  19
BRANCH   6  21
ATOM     21  O   UNL     1       1.681   5.858  20.504  0.00  0.00    +0.000 OA
ATOM     22  H   UNL     1       2.153   5.963  21.356  0.00  0.00    +0.000 HD
ENDBRANCH   6  21
TORSDOF 4
ENDMDL
MODEL 4
REMARK VINA RESULT:      -7.5      3.375      4.745
REMARK  Name = 
REMARK  4 active torsions:
REMARK  status: ('A' for Active; 'I' for Inactive)
REMARK    1  A    between atoms: O_1  and  C_2
REMARK    2  A    between atoms: C_7  and  C_8
REMARK    3  A    between atoms: C_12  and  O_13
REMARK    4  A    between atoms: C_14  and  O_15
REMARK                            x       y       z     vdW  Elec       q    Type
REMARK                         _______ _______ _______ _____ _____    ______ ____
ROOT
ATOM      1  C   UNL     1       4.196   3.918  18.034  0.00  0.00    +0.000 A 
ATOM      2  C   UNL     1       5.268   4.715  18.455  0.00  0.00    +0.000 A 
ATOM      3  C   UNL     1       6.454   4.724  17.770  0.00  0.00    +0.000 A 
ATOM      4  C   UNL     1       6.373   4.511  16.414  0.00  0.00    +0.000 A 
ATOM      5  C   UNL     1       7.159   5.266  15.562  0.00  0.00    +0.000 A 
ATOM      6  C   UNL     1       7.132   5.011  14.203  0.00  0.00    +0.000 A 
ATOM      7  C   UNL     1       6.369   3.966  13.696  0.00  0.00    +0.000 A 
ATOM      8  C   UNL     1       5.495   3.266  14.550  0.00  0.00    +0.000 A 
ATOM      9  C   UNL     1       5.396   3.624  15.916  0.00  0.00    +0.000 A 
ATOM     10  C   UNL     1       4.335   3.271  16.795  0.00  0.00    +0.000 A 
ENDROOT
BRANCH   1  16
ATOM     11  C   UNL     1       2.295   2.718  19.212  0.00  0.00    +0.000 A 
ATOM     12  C   UNL     1       1.268   2.691  20.158  0.00  0.00    +0.000 A 
ATOM     13  C   UNL     1       0.873   3.871  20.771  0.00  0.00    +0.000 A 
ATOM     14  C   UNL     1       1.489   5.066  20.449  0.00  0.00    +0.000 A 
ATOM     15  C   UNL     1       2.543   5.089  19.520  0.00  0.00    +0.000 A 
ATOM     16  C   UNL     1       2.977   3.914  18.882  0.00  0.00    +0.000 A 
BRANCH  11  17
ATOM     17  O   UNL     1       2.638   1.533  18.611  0.00  0.00    +0.000 OA
ATOM     18  H   UNL     1       3.552   1.307  18.838  0.00  0.00    +0.000 HD
ENDBRANCH  11  17
ENDBRANCH   1  16
BRANCH   5  19
ATOM     19  O   UNL     1       7.841   6.369  16.010  0.00  0.00    +0.000 OA
ATOM     20  H   UNL     1       7.565   7.137  15.475  0.00  0.00    +0.000 HD
ENDBRANCH   5  19
BRANCH   6  21
ATOM     21  O   UNL     1       7.797   5.850  13.356  0.00  0.00    +0.000 OA
ATOM     22  H   UNL     1       8.704   5.882  13.724  0.00  0.00    +0.000 HD
ENDBRANCH   6  21
TORSDOF 4
ENDMDL
MODEL 5
REMARK VINA RESULT:      -7.5      3.805      6.907
REMARK  Name = 
REMARK  4 active torsions:
REMARK  status: ('A' for Active; 'I' for Inactive)
REMARK    1  A    between atoms: O_1  and  C_2
REMARK    2  A    between atoms: C_7  and  C_8
REMARK    3  A    between atoms: C_12  and  O_13
REMARK    4  A    between atoms: C_14  and  O_15
REMARK                            x       y       z     vdW  Elec       q    Type
REMARK                         _______ _______ _______ _____ _____    ______ ____
ROOT
ATOM      1  C   UNL     1       5.474   4.459  15.766  0.00  0.00    +0.000 A 
ATOM      2  C   UNL     1       6.333   3.968  16.757  0.00  0.00    +0.000 A 
ATOM      3  C   UNL     1       6.013   4.068  18.084  0.00  0.00    +0.000 A 
ATOM      4  C   UNL     1       4.673   4.025  18.391  0.00  0.00    +0.000 A 
ATOM      5  C   UNL     1       4.253   3.298  19.491  0.00  0.00    +0.000 A 
ATOM      6  C   UNL     1       2.916   3.306  19.843  0.00  0.00    +0.000 A 
ATOM      7  C   UNL     1       2.004   4.081  19.137  0.00  0.00    +0.000 A 
ATOM      8  C   UNL     1       2.414   4.737  17.960  0.00  0.00    +0.000 A 
ATOM      9  C   UNL     1       3.747   4.608  17.501  0.00  0.00    +0.000 A 
ATOM     10  C   UNL     1       4.207   4.896  16.186  0.00  0.00    +0.000 A 
ENDROOT
BRANCH   1  16
ATOM     11  C   UNL     1       7.156   4.961  13.933  0.00  0.00    +0.000 A 
ATOM     12  C   UNL     1       7.686   4.723  12.663  0.00  0.00    +0.000 A 
ATOM     13  C   UNL     1       6.990   3.918  11.773  0.00  0.00    +0.000 A 
ATOM     14  C   UNL     1       5.780   3.357  12.138  0.00  0.00    +0.000 A 
ATOM     15  C   UNL     1       5.261   3.571  13.425  0.00  0.00    +0.000 A 
ATOM     16  C   UNL     1       5.940   4.375  14.358  0.00  0.00    +0.000 A 
BRANCH  11  17
ATOM     17  O   UNL     1       7.865   5.782  14.774  0.00  0.00    +0.000 OA
ATOM     18  H   UNL     1       7.485   5.741  15.664  0.00  0.00    +0.000 HD
ENDBRANCH  11  17
ENDBRANCH   1  16
BRANCH   5  19
ATOM     19  O   UNL     1       5.101   2.442  20.146  0.00  0.00    +0.000 OA
ATOM     20  H   UNL     1       4.561   1.804  20.650  0.00  0.00    +0.000 HD
ENDBRANCH   5  19
BRANCH   6  21
ATOM     21  O   UNL     1       2.487   2.477  20.839  0.00  0.00    +0.000 OA
ATOM     22  H   UNL     1       3.311   2.061  21.167  0.00  0.00    +0.000 HD
ENDBRANCH   6  21
TORSDOF 4
ENDMDL
MODEL 6
REMARK VINA RESULT:      -7.4      3.462      4.501
REMARK  Name = 
REMARK  4 active torsions:
REMARK  status: ('A' for Active; 'I' for Inactive)
REMARK    1  A    between atoms: O_1  and  C_2
REMARK    2  A    between atoms: C_7  and  C_8
REMARK    3  A    between atoms: C_12  and  O_13
REMARK    4  A    between atoms: C_14  and  O_15
REMARK                            x       y       z     vdW  Elec       q    Type
REMARK                         _______ _______ _______ _____ _____    ______ ____
ROOT
ATOM      1  C   UNL     1       4.526   3.831  18.591  0.00  0.00    +0.000 A 
ATOM      2  C   UNL     1       5.579   4.705  18.887  0.00  0.00    +0.000 A 
ATOM      3  C   UNL     1       6.691   4.770  18.090  0.00  0.00    +0.000 A 
ATOM      4  C   UNL     1       6.494   4.513  16.753  0.00  0.00    +0.000 A 
ATOM      5  C   UNL     1       7.143   5.293  15.811  0.00  0.00    +0.000 A 
ATOM      6  C   UNL     1       7.002   4.998  14.467  0.00  0.00    +0.000 A 
ATOM      7  C   UNL     1       6.264   3.893  14.061  0.00  0.00    +0.000 A 
ATOM      8  C   UNL     1       5.523   3.163  15.012  0.00  0.00    +0.000 A 
ATOM      9  C   UNL     1       5.534   3.553  16.372  0.00  0.00    +0.000 A 
ATOM     10  C   UNL     1       4.588   3.160  17.359  0.00  0.00    +0.000 A 
ENDROOT
BRANCH   1  16
ATOM     11  C   UNL     1       2.234   4.564  19.395  0.00  0.00    +0.000 A 
ATOM     12  C   UNL     1       1.099   4.376  20.187  0.00  0.00    +0.000 A 
ATOM     13  C   UNL     1       1.116   3.413  21.185  0.00  0.00    +0.000 A 
ATOM     14  C   UNL     1       2.246   2.646  21.397  0.00  0.00    +0.000 A 
ATOM     15  C   UNL     1       3.378   2.814  20.581  0.00  0.00    +0.000 A 
ATOM     16  C   UNL     1       3.397   3.774  19.554  0.00  0.00    +0.000 A 
BRANCH  11  17
ATOM     17  O   UNL     1       2.183   5.544  18.435  0.00  0.00    +0.000 OA
ATOM     18  H   UNL     1       1.265   5.820  18.300  0.00  0.00    +0.000 HD
ENDBRANCH  11  17
ENDBRANCH   1  16
BRANCH   5  19
ATOM     19  O   UNL     1       7.792   6.448  16.167  0.00  0.00    +0.000 OA
ATOM     20  H   UNL     1       7.132   7.166  16.218  0.00  0.00    +0.000 HD
ENDBRANCH   5  19
BRANCH   6  21
ATOM     21  O   UNL     1       7.526   5.853  13.542  0.00  0.00    +0.000 OA
ATOM     22  H   UNL     1       8.494   5.761  13.661  0.00  0.00    +0.000 HD
ENDBRANCH   6  21
TORSDOF 4
ENDMDL
MODEL 7
REMARK VINA RESULT:      -7.4      2.866      6.367
REMARK  Name = 
REMARK  4 active torsions:
REMARK  status: ('A' for Active; 'I' for Inactive)
REMARK    1  A    between atoms: O_1  and  C_2
REMARK    2  A    between atoms: C_7  and  C_8
REMARK    3  A    between atoms: C_12  and  O_13
REMARK    4  A    between atoms: C_14  and  O_15
REMARK                            x       y       z     vdW  Elec       q    Type
REMARK                         _______ _______ _______ _____ _____    ______ ____
ROOT
ATOM      1  C   UNL     1       2.509   5.693  19.385  0.00  0.00    +0.000 A 
ATOM      2  C   UNL     1       1.871   6.022  20.588  0.00  0.00    +0.000 A 
ATOM      3  C   UNL     1       1.694   7.327  20.961  0.00  0.00    +0.000 A 
ATOM      4  C   UNL     1       1.532   8.234  19.940  0.00  0.00    +0.000 A 
ATOM      5  C   UNL     1       0.586   9.236  20.067  0.00  0.00    +0.000 A 
ATOM      6  C   UNL     1       0.464  10.190  19.074  0.00  0.00    +0.000 A 
ATOM      7  C   UNL     1       1.323  10.184  17.981  0.00  0.00    +0.000 A 
ATOM      8  C   UNL     1       2.215   9.109  17.803  0.00  0.00    +0.000 A 
ATOM      9  C   UNL     1       2.238   8.042  18.734  0.00  0.00    +0.000 A 
ATOM     10  C   UNL     1       2.799   6.755  18.512  0.00  0.00    +0.000 A 
ENDROOT
BRANCH   1  16
ATOM     11  C   UNL     1       2.073   3.592  18.031  0.00  0.00    +0.000 A 
ATOM     12  C   UNL     1       2.415   2.294  17.646  0.00  0.00    +0.000 A 
ATOM     13  C   UNL     1       3.396   1.611  18.349  0.00  0.00    +0.000 A 
ATOM     14  C   UNL     1       4.030   2.206  19.423  0.00  0.00    +0.000 A 
ATOM     15  C   UNL     1       3.707   3.523  19.792  0.00  0.00    +0.000 A 
ATOM     16  C   UNL     1       2.724   4.252  19.101  0.00  0.00    +0.000 A 
BRANCH  11  17
ATOM     17  O   UNL     1       1.080   4.225  17.324  0.00  0.00    +0.000 OA
ATOM     18  H   UNL     1       0.215   3.948  17.661  0.00  0.00    +0.000 HD
ENDBRANCH  11  17
ENDBRANCH   1  16
BRANCH   5  19
ATOM     19  O   UNL     1      -0.345   9.214  21.075  0.00  0.00    +0.000 OA
ATOM     20  H   UNL     1      -1.228   9.112  20.673  0.00  0.00    +0.000 HD
ENDBRANCH   5  19
BRANCH   6  21
ATOM     21  O   UNL     1      -0.562  11.087  19.137  0.00  0.00    +0.000 OA
ATOM     22  H   UNL     1      -1.291  10.641  18.658  0.00  0.00    +0.000 HD
ENDBRANCH   6  21
TORSDOF 4
ENDMDL
MODEL 8
REMARK VINA RESULT:      -7.4      1.884      6.758
REMARK  Name = 
REMARK  4 active torsions:
REMARK  status: ('A' for Active; 'I' for Inactive)
REMARK    1  A    between atoms: O_1  and  C_2
REMARK    2  A    between atoms: C_7  and  C_8
REMARK    3  A    between atoms: C_12  and  O_13
REMARK    4  A    between atoms: C_14  and  O_15
REMARK                            x       y       z     vdW  Elec       q    Type
REMARK                         _______ _______ _______ _____ _____    ______ ____
ROOT
ATOM      1  C   UNL     1       2.802   7.183  18.323  0.00  0.00    +0.000 A 
ATOM      2  C   UNL     1       2.364   8.254  17.535  0.00  0.00    +0.000 A 
ATOM      3  C   UNL     1       1.349   9.072  17.953  0.00  0.00    +0.000 A 
ATOM      4  C   UNL     1       1.238   9.255  19.312  0.00  0.00    +0.000 A 
ATOM      5  C   UNL     1       0.960  10.518  19.805  0.00  0.00    +0.000 A 
ATOM      6  C   UNL     1       0.781  10.695  21.165  0.00  0.00    +0.000 A 
ATOM      7  C   UNL     1       0.821   9.608  22.030  0.00  0.00    +0.000 A 
ATOM      8  C   UNL     1       1.204   8.344  21.541  0.00  0.00    +0.000 A 
ATOM      9  C   UNL     1       1.544   8.182  20.176  0.00  0.00    +0.000 A 
ATOM     10  C   UNL     1       2.275   7.095  19.622  0.00  0.00    +0.000 A 
ENDROOT
BRANCH   1  16
ATOM     11  C   UNL     1       3.616   4.941  17.456  0.00  0.00    +0.000 A 
ATOM     12  C   UNL     1       4.539   4.167  16.749  0.00  0.00    +0.000 A 
ATOM     13  C   UNL     1       5.742   4.732  16.353  0.00  0.00    +0.000 A 
ATOM     14  C   UNL     1       6.029   6.050  16.656  0.00  0.00    +0.000 A 
ATOM     15  C   UNL     1       5.088   6.838  17.341  0.00  0.00    +0.000 A 
ATOM     16  C   UNL     1       3.855   6.304  17.753  0.00  0.00    +0.000 A 
BRANCH  11  17
ATOM     17  O   UNL     1       2.449   4.337  17.851  0.00  0.00    +0.000 OA
ATOM     18  H   UNL     1       1.696   4.896  17.609  0.00  0.00    +0.000 HD
ENDBRANCH  11  17
ENDBRANCH   1  16
BRANCH   5  19
ATOM     19  O   UNL     1       1.016  11.626  18.999  0.00  0.00    +0.000 OA
ATOM     20  H   UNL     1       1.953  11.802  18.787  0.00  0.00    +0.000 HD
ENDBRANCH   5  19
BRANCH   6  21
ATOM     21  O   UNL     1       0.649  11.961  21.658  0.00  0.00    +0.000 OA
ATOM     22  H   UNL     1       1.468  12.412  21.364  0.00  0.00    +0.000 HD
ENDBRANCH   6  21
TORSDOF 4
ENDMDL
MODEL 9
REMARK VINA RESULT:      -7.4      2.147      6.518
REMARK  Name = 
REMARK  4 active torsions:
REMARK  status: ('A' for Active; 'I' for Inactive)
REMARK    1  A    between atoms: O_1  and  C_2
REMARK    2  A    between atoms: C_7  and  C_8
REMARK    3  A    between atoms: C_12  and  O_13
REMARK    4  A    between atoms: C_14  and  O_15
REMARK                            x       y       z     vdW  Elec       q    Type
REMARK                         _______ _______ _______ _____ _____    ______ ____
ROOT
ATOM      1  C   UNL     1       2.423   5.999  19.202  0.00  0.00    +0.000 A 
ATOM      2  C   UNL     1       1.889   6.208  20.480  0.00  0.00    +0.000 A 
ATOM      3  C   UNL     1       1.695   7.472  20.968  0.00  0.00    +0.000 A 
ATOM      4  C   UNL     1       1.400   8.443  20.040  0.00  0.00    +0.000 A 
ATOM      5  C   UNL     1       0.429   9.385  20.331  0.00  0.00    +0.000 A 
ATOM      6  C   UNL     1       0.175  10.403  19.430  0.00  0.00    +0.000 A 
ATOM      7  C   UNL     1       0.925  10.519  18.266  0.00  0.00    +0.000 A 
ATOM      8  C   UNL     1       1.839   9.504  17.924  0.00  0.00    +0.000 A 
ATOM      9  C   UNL     1       1.994   8.374  18.762  0.00  0.00    +0.000 A 
ATOM     10  C   UNL     1       2.584   7.135  18.390  0.00  0.00    +0.000 A 
ENDROOT
BRANCH   1  16
ATOM     11  C   UNL     1       3.927   3.971  18.957  0.00  0.00    +0.000 A 
ATOM     12  C   UNL     1       4.108   2.602  18.745  0.00  0.00    +0.000 A 
ATOM     13  C   UNL     1       3.036   1.830  18.323  0.00  0.00    +0.000 A 
ATOM     14  C   UNL     1       1.799   2.409  18.110  0.00  0.00    +0.000 A 
ATOM     15  C   UNL     1       1.609   3.780  18.352  0.00  0.00    +0.000 A 
ATOM     16  C   UNL     1       2.668   4.595  18.787  0.00  0.00    +0.000 A 
BRANCH  11  17
ATOM     17  O   UNL     1       5.020   4.703  19.351  0.00  0.00    +0.000 OA
ATOM     18  H   UNL     1       4.733   5.436  19.916  0.00  0.00    +0.000 HD
ENDBRANCH  11  17
ENDBRANCH   1  16
BRANCH   5  19
ATOM     19  O   UNL     1      -0.399   9.244  21.416  0.00  0.00    +0.000 OA
ATOM     20  H   UNL     1      -0.366  10.071  21.934  0.00  0.00    +0.000 HD
ENDBRANCH   5  19
BRANCH   6  21
ATOM     21  O   UNL     1      -0.877  11.242  19.657  0.00  0.00    +0.000 OA
ATOM     22  H   UNL     1      -0.672  12.028  19.108  0.00  0.00    +0.000 HD
ENDBRANCH   6  21
TORSDOF 4
ENDMDL
