MODEL 1
REMARK VINA RESULT:      -9.2      0.000      0.000
REMARK  Name = 
REMARK  9 active torsions:
REMARK  status: ('A' for Active; 'I' for Inactive)
REMARK    1  A    between atoms: C_1  and  C_2
REMARK    2  A    between atoms: C_2  and  C_3
REMARK    3  A    between atoms: C_3  and  C_4
REMARK    4  A    between atoms: C_3  and  C_5
REMARK    5  A    between atoms: C_3  and  N_6
REMARK    6  A    between atoms: N_6  and  C_7
REMARK    7  A    between atoms: C_8  and  N_9
REMARK    8  A    between atoms: N_15  and  C_16
REMARK    9  A    between atoms: C_19  and  C_20
REMARK                            x       y       z     vdW  Elec       q    Type
REMARK                         _______ _______ _______ _____ _____    ______ ____
ROOT
ATOM      1  N   UNL     1       3.189   6.594  17.823  0.00  0.00    +0.000 N 
ATOM      2  C   UNL     1       2.394   7.462  18.585  0.00  0.00    +0.000 A 
ATOM      3  C   UNL     1       2.230   7.316  19.943  0.00  0.00    +0.000 A 
ATOM      4  C   UNL     1       1.366   8.180  20.553  0.00  0.00    +0.000 A 
ATOM      5  N   UNL     1       0.724   9.144  19.892  0.00  0.00    +0.000 NA
ATOM      6  C   UNL     1       0.966   9.259  18.578  0.00  0.00    +0.000 A 
ATOM      7  N   UNL     1       0.311  10.262  17.862  0.00  0.00    +0.000 N 
ATOM      8  N   UNL     1       1.802   8.457  17.899  0.00  0.00    +0.000 NA
ATOM      9  H   UNL     1       3.262   7.001  16.894  0.00  0.00    +0.000 HD
ATOM     10  H   UNL     1       0.535  10.154  16.881  0.00  0.00    +0.000 HD
ENDROOT
BRANCH   1  12
ATOM     11  C   UNL     1       4.630   4.675  18.528  0.00  0.00    +0.000 C 
ATOM     12  C   UNL     1       3.535   5.342  18.034  0.00  0.00    +0.000 C 
ATOM     13  C   UNL     1       2.812   4.065  17.790  0.00  0.00    +0.000 C 
ATOM     14  O   UNL     1       1.750   3.664  17.382  0.00  0.00    +0.000 OA
ATOM     15  C   UNL     1       4.020   3.348  18.244  0.00  0.00    +0.000 C 
ATOM     16  O   UNL     1       4.315   2.183  18.247  0.00  0.00    +0.000 OA
BRANCH  11  17
ATOM     17  N   UNL     1       5.824   4.928  19.034  0.00  0.00    +0.000 N 
ATOM     18  H   UNL     1       5.856   5.250  20.005  0.00  0.00    +0.000 HD
BRANCH  17  19
ATOM     19  C   UNL     1       6.953   5.501  18.273  0.00  0.00    +0.000 C 
ATOM     20  C   UNL     1       8.118   5.788  19.234  0.00  0.00    +0.000 C 
ATOM     21  C   UNL     1       6.541   6.790  17.541  0.00  0.00    +0.000 C 
BRANCH  19  23
ATOM     22  C   UNL     1       6.997   4.700  15.802  0.00  0.00    +0.000 C 
ATOM     23  C   UNL     1       7.422   4.435  17.244  0.00  0.00    +0.000 C 
ENDBRANCH  19  23
ENDBRANCH  17  19
ENDBRANCH  11  17
ENDBRANCH   1  12
BRANCH   7  24
ATOM     24  C   UNL     1      -1.019  10.666  18.081  0.00  0.00    +0.000 A 
ATOM     25  C   UNL     1      -1.266  11.763  18.902  0.00  0.00    +0.000 A 
ATOM     26  C   UNL     1      -2.575  12.203  19.124  0.00  0.00    +0.000 A 
ATOM     27  C   UNL     1      -3.677  11.601  18.487  0.00  0.00    +0.000 A 
ATOM     28  C   UNL     1      -3.413  10.504  17.656  0.00  0.00    +0.000 A 
ATOM     29  C   UNL     1      -2.107  10.047  17.455  0.00  0.00    +0.000 A 
BRANCH  27  30
ATOM     30  C   UNL     1      -5.045  12.139  18.659  0.00  0.00    +0.000 A 
ATOM     31  C   UNL     1      -5.924  12.221  17.563  0.00  0.00    +0.000 A 
ATOM     32  C   UNL     1      -7.217  12.726  17.696  0.00  0.00    +0.000 A 
ATOM     33  C   UNL     1      -7.673  13.143  18.941  0.00  0.00    +0.000 A 
ATOM     34  C   UNL     1      -6.834  13.056  20.049  0.00  0.00    +0.000 A 
ATOM     35  C   UNL     1      -5.532  12.565  19.908  0.00  0.00    +0.000 A 
ENDBRANCH  27  30
ENDBRANCH   7  24
TORSDOF 6
ENDMDL
MODEL 2
REMARK VINA RESULT:      -9.0      0.924      1.455
REMARK  Name = 
REMARK  9 active torsions:
REMARK  status: ('A' for Active; 'I' for Inactive)
REMARK    1  A    between atoms: C_1  and  C_2
REMARK    2  A    between atoms: C_2  and  C_3
REMARK    3  A    between atoms: C_3  and  C_4
REMARK    4  A    between atoms: C_3  and  C_5
REMARK    5  A    between atoms: C_3  and  N_6
REMARK    6  A    between atoms: N_6  and  C_7
REMARK    7  A    between atoms: C_8  and  N_9
REMARK    8  A    between atoms: N_15  and  C_16
REMARK    9  A    between atoms: C_19  and  C_20
REMARK                            x       y       z     vdW  Elec       q    Type
REMARK                         _______ _______ _______ _____ _____    ______ ____
ROOT
ATOM      1  N   UNL     1       3.084   6.372  17.670  0.00  0.00    +0.000 N 
ATOM      2  C   UNL     1       2.400   7.261  18.511  0.00  0.00    +0.000 A 
ATOM      3  C   UNL     1       2.252   7.040  19.860  0.00  0.00    +0.000 A 
ATOM      4  C   UNL     1       1.496   7.943  20.551  0.00  0.00    +0.000 A 
ATOM      5  N   UNL     1       0.941   9.010  19.974  0.00  0.00    +0.000 NA
ATOM      6  C   UNL     1       1.165   9.190  18.664  0.00  0.00    +0.000 A 
ATOM      7  N   UNL     1       0.601  10.300  18.035  0.00  0.00    +0.000 N 
ATOM      8  N   UNL     1       1.898   8.356  17.909  0.00  0.00    +0.000 NA
ATOM      9  H   UNL     1       3.178   6.831  16.769  0.00  0.00    +0.000 HD
ATOM     10  H   UNL     1       0.791  10.238  17.043  0.00  0.00    +0.000 HD
ENDROOT
BRANCH   1  12
ATOM     11  C   UNL     1       4.361   4.221  17.600  0.00  0.00    +0.000 C 
ATOM     12  C   UNL     1       3.303   5.079  17.788  0.00  0.00    +0.000 C 
ATOM     13  C   UNL     1       2.411   3.961  18.197  0.00  0.00    +0.000 C 
ATOM     14  O   UNL     1       1.281   3.765  18.570  0.00  0.00    +0.000 OA
ATOM     15  C   UNL     1       3.525   3.032  17.916  0.00  0.00    +0.000 C 
ATOM     16  O   UNL     1       3.589   1.832  17.889  0.00  0.00    +0.000 OA
BRANCH  11  17
ATOM     17  N   UNL     1       5.633   4.248  17.244  0.00  0.00    +0.000 N 
ATOM     18  H   UNL     1       6.050   3.361  16.952  0.00  0.00    +0.000 HD
BRANCH  17  19
ATOM     19  C   UNL     1       6.659   5.111  17.864  0.00  0.00    +0.000 C 
ATOM     20  C   UNL     1       8.041   4.462  17.686  0.00  0.00    +0.000 C 
ATOM     21  C   UNL     1       6.371   5.342  19.358  0.00  0.00    +0.000 C 
BRANCH  19  23
ATOM     22  C   UNL     1       7.657   7.498  17.633  0.00  0.00    +0.000 C 
ATOM     23  C   UNL     1       6.658   6.469  17.110  0.00  0.00    +0.000 C 
ENDBRANCH  19  23
ENDBRANCH  17  19
ENDBRANCH  11  17
ENDBRANCH   1  12
BRANCH   7  24
ATOM     24  C   UNL     1      -0.675  10.821  18.319  0.00  0.00    +0.000 A 
ATOM     25  C   UNL     1      -1.773  10.351  17.601  0.00  0.00    +0.000 A 
ATOM     26  C   UNL     1      -3.057  10.832  17.873  0.00  0.00    +0.000 A 
ATOM     27  C   UNL     1      -3.299  11.754  18.910  0.00  0.00    +0.000 A 
ATOM     28  C   UNL     1      -2.187  12.211  19.630  0.00  0.00    +0.000 A 
ATOM     29  C   UNL     1      -0.899  11.750  19.341  0.00  0.00    +0.000 A 
BRANCH  27  30
ATOM     30  C   UNL     1      -4.676  12.181  19.245  0.00  0.00    +0.000 A 
ATOM     31  C   UNL     1      -5.784  11.440  18.795  0.00  0.00    +0.000 A 
ATOM     32  C   UNL     1      -7.092  11.821  19.093  0.00  0.00    +0.000 A 
ATOM     33  C   UNL     1      -7.324  12.948  19.873  0.00  0.00    +0.000 A 
ATOM     34  C   UNL     1      -6.248  13.691  20.351  0.00  0.00    +0.000 A 
ATOM     35  C   UNL     1      -4.938  13.315  20.035  0.00  0.00    +0.000 A 
ENDBRANCH  27  30
ENDBRANCH   7  24
TORSDOF 6
ENDMDL
MODEL 3
REMARK VINA RESULT:      -8.9      0.791      1.810
REMARK  Name = 
REMARK  9 active torsions:
REMARK  status: ('A' for Active; 'I' for Inactive)
REMARK    1  A    between atoms: C_1  and  C_2
REMARK    2  A    between atoms: C_2  and  C_3
REMARK    3  A    between atoms: C_3  and  C_4
REMARK    4  A    between atoms: C_3  and  C_5
REMARK    5  A    between atoms: C_3  and  N_6
REMARK    6  A    between atoms: N_6  and  C_7
REMARK    7  A    between atoms: C_8  and  N_9
REMARK    8  A    between atoms: N_15  and  C_16
REMARK    9  A    between atoms: C_19  and  C_20
REMARK                            x       y       z     vdW  Elec       q    Type
REMARK                         _______ _______ _______ _____ _____    ______ ____
ROOT
ATOM      1  N   UNL     1       3.158   6.388  18.400  0.00  0.00    +0.000 N 
ATOM      2  C   UNL     1       2.364   7.320  19.082  0.00  0.00    +0.000 A 
ATOM      3  C   UNL     1       2.078   7.209  20.423  0.00  0.00    +0.000 A 
ATOM      4  C   UNL     1       1.228   8.140  20.949  0.00  0.00    +0.000 A 
ATOM      5  N   UNL     1       0.709   9.133  20.226  0.00  0.00    +0.000 NA
ATOM      6  C   UNL     1       1.066   9.208  18.935  0.00  0.00    +0.000 A 
ATOM      7  N   UNL     1       0.543  10.239  18.155  0.00  0.00    +0.000 N 
ATOM      8  N   UNL     1       1.899   8.340  18.337  0.00  0.00    +0.000 NA
ATOM      9  H   UNL     1       3.334   6.772  17.476  0.00  0.00    +0.000 HD
ATOM     10  H   UNL     1       0.838  10.100  17.197  0.00  0.00    +0.000 HD
ENDROOT
BRANCH   1  12
ATOM     11  C   UNL     1       4.475   4.268  18.572  0.00  0.00    +0.000 C 
ATOM     12  C   UNL     1       3.399   5.119  18.654  0.00  0.00    +0.000 C 
ATOM     13  C   UNL     1       2.520   4.032  19.162  0.00  0.00    +0.000 C 
ATOM     14  O   UNL     1       1.388   3.852  19.536  0.00  0.00    +0.000 OA
ATOM     15  C   UNL     1       3.656   3.101  18.995  0.00  0.00    +0.000 C 
ATOM     16  O   UNL     1       3.742   1.906  19.094  0.00  0.00    +0.000 OA
BRANCH  11  17
ATOM     17  N   UNL     1       5.752   4.284  18.234  0.00  0.00    +0.000 N 
ATOM     18  H   UNL     1       6.432   4.308  18.999  0.00  0.00    +0.000 HD
BRANCH  17  19
ATOM     19  C   UNL     1       6.297   4.976  17.048  0.00  0.00    +0.000 C 
ATOM     20  C   UNL     1       5.286   4.874  15.895  0.00  0.00    +0.000 C 
ATOM     21  C   UNL     1       7.649   4.378  16.621  0.00  0.00    +0.000 C 
BRANCH  19  23
ATOM     22  C   UNL     1       7.722   6.800  18.227  0.00  0.00    +0.000 C 
ATOM     23  C   UNL     1       6.473   6.476  17.412  0.00  0.00    +0.000 C 
ENDBRANCH  19  23
ENDBRANCH  17  19
ENDBRANCH  11  17
ENDBRANCH   1  12
BRANCH   7  24
ATOM     24  C   UNL     1      -0.770  10.735  18.257  0.00  0.00    +0.000 A 
ATOM     25  C   UNL     1      -1.780  10.140  17.504  0.00  0.00    +0.000 A 
ATOM     26  C   UNL     1      -3.098  10.594  17.599  0.00  0.00    +0.000 A 
ATOM     27  C   UNL     1      -3.467  11.619  18.492  0.00  0.00    +0.000 A 
ATOM     28  C   UNL     1      -2.443  12.203  19.251  0.00  0.00    +0.000 A 
ATOM     29  C   UNL     1      -1.120  11.766  19.136  0.00  0.00    +0.000 A 
BRANCH  27  30
ATOM     30  C   UNL     1      -4.882  12.023  18.648  0.00  0.00    +0.000 A 
ATOM     31  C   UNL     1      -5.344  12.550  19.868  0.00  0.00    +0.000 A 
ATOM     32  C   UNL     1      -6.673  12.936  20.044  0.00  0.00    +0.000 A 
ATOM     33  C   UNL     1      -7.572  12.824  18.990  0.00  0.00    +0.000 A 
ATOM     34  C   UNL     1      -7.140  12.325  17.764  0.00  0.00    +0.000 A 
ATOM     35  C   UNL     1      -5.811  11.923  17.596  0.00  0.00    +0.000 A 
ENDBRANCH  27  30
ENDBRANCH   7  24
TORSDOF 6
ENDMDL
MODEL 4
REMARK VINA RESULT:      -8.9      0.853      1.308
REMARK  Name = 
REMARK  9 active torsions:
REMARK  status: ('A' for Active; 'I' for Inactive)
REMARK    1  A    between atoms: C_1  and  C_2
REMARK    2  A    between atoms: C_2  and  C_3
REMARK    3  A    between atoms: C_3  and  C_4
REMARK    4  A    between atoms: C_3  and  C_5
REMARK    5  A    between atoms: C_3  and  N_6
REMARK    6  A    between atoms: N_6  and  C_7
REMARK    7  A    between atoms: C_8  and  N_9
REMARK    8  A    between atoms: N_15  and  C_16
REMARK    9  A    between atoms: C_19  and  C_20
REMARK                            x       y       z     vdW  Elec       q    Type
REMARK                         _______ _______ _______ _____ _____    ______ ____
ROOT
ATOM      1  N   UNL     1       3.013   6.295  17.729  0.00  0.00    +0.000 N 
ATOM      2  C   UNL     1       2.381   7.219  18.573  0.00  0.00    +0.000 A 
ATOM      3  C   UNL     1       2.266   7.025  19.930  0.00  0.00    +0.000 A 
ATOM      4  C   UNL     1       1.557   7.962  20.626  0.00  0.00    +0.000 A 
ATOM      5  N   UNL     1       1.019   9.036  20.047  0.00  0.00    +0.000 NA
ATOM      6  C   UNL     1       1.209   9.187  18.728  0.00  0.00    +0.000 A 
ATOM      7  N   UNL     1       0.662  10.303  18.096  0.00  0.00    +0.000 N 
ATOM      8  N   UNL     1       1.895   8.318  17.967  0.00  0.00    +0.000 NA
ATOM      9  H   UNL     1       3.094   6.737  16.818  0.00  0.00    +0.000 HD
ATOM     10  H   UNL     1       0.820  10.219  17.100  0.00  0.00    +0.000 HD
ENDROOT
BRANCH   1  12
ATOM     11  C   UNL     1       4.264   4.151  18.035  0.00  0.00    +0.000 C 
ATOM     12  C   UNL     1       3.197   4.999  17.863  0.00  0.00    +0.000 C 
ATOM     13  C   UNL     1       2.236   3.863  17.874  0.00  0.00    +0.000 C 
ATOM     14  O   UNL     1       1.051   3.649  17.804  0.00  0.00    +0.000 OA
ATOM     15  C   UNL     1       3.391   2.948  17.975  0.00  0.00    +0.000 C 
ATOM     16  O   UNL     1       3.480   1.750  17.923  0.00  0.00    +0.000 OA
BRANCH  11  17
ATOM     17  N   UNL     1       5.579   4.194  18.165  0.00  0.00    +0.000 N 
ATOM     18  H   UNL     1       5.954   4.083  19.110  0.00  0.00    +0.000 HD
BRANCH  17  19
ATOM     19  C   UNL     1       6.473   5.054  17.362  0.00  0.00    +0.000 C 
ATOM     20  C   UNL     1       7.882   4.440  17.343  0.00  0.00    +0.000 C 
ATOM     21  C   UNL     1       6.527   6.486  17.922  0.00  0.00    +0.000 C 
BRANCH  19  23
ATOM     22  C   UNL     1       6.195   3.806  15.101  0.00  0.00    +0.000 C 
ATOM     23  C   UNL     1       5.931   5.076  15.906  0.00  0.00    +0.000 C 
ENDBRANCH  19  23
ENDBRANCH  17  19
ENDBRANCH  11  17
ENDBRANCH   1  12
BRANCH   7  24
ATOM     24  C   UNL     1      -0.589  10.868  18.408  0.00  0.00    +0.000 A 
ATOM     25  C   UNL     1      -1.732  10.362  17.791  0.00  0.00    +0.000 A 
ATOM     26  C   UNL     1      -2.992  10.886  18.095  0.00  0.00    +0.000 A 
ATOM     27  C   UNL     1      -3.163  11.891  19.066  0.00  0.00    +0.000 A 
ATOM     28  C   UNL     1      -2.006  12.384  19.685  0.00  0.00    +0.000 A 
ATOM     29  C   UNL     1      -0.743  11.879  19.362  0.00  0.00    +0.000 A 
BRANCH  27  30
ATOM     30  C   UNL     1      -4.513  12.368  19.442  0.00  0.00    +0.000 A 
ATOM     31  C   UNL     1      -5.653  11.883  18.775  0.00  0.00    +0.000 A 
ATOM     32  C   UNL     1      -6.937  12.317  19.106  0.00  0.00    +0.000 A 
ATOM     33  C   UNL     1      -7.113  13.237  20.133  0.00  0.00    +0.000 A 
ATOM     34  C   UNL     1      -6.006  13.721  20.825  0.00  0.00    +0.000 A 
ATOM     35  C   UNL     1      -4.719  13.296  20.479  0.00  0.00    +0.000 A 
ENDBRANCH  27  30
ENDBRANCH   7  24
TORSDOF 6
ENDMDL
MODEL 5
REMARK VINA RESULT:      -8.9      1.598      2.895
REMARK  Name = 
REMARK  9 active torsions:
REMARK  status: ('A' for Active; 'I' for Inactive)
REMARK    1  A    between atoms: C_1  and  C_2
REMARK    2  A    between atoms: C_2  and  C_3
REMARK    3  A    between atoms: C_3  and  C_4
REMARK    4  A    between atoms: C_3  and  C_5
REMARK    5  A    between atoms: C_3  and  N_6
REMARK    6  A    between atoms: N_6  and  C_7
REMARK    7  A    between atoms: C_8  and  N_9
REMARK    8  A    between atoms: N_15  and  C_16
REMARK    9  A    between atoms: C_19  and  C_20
REMARK                            x       y       z     vdW  Elec       q    Type
REMARK                         _______ _______ _______ _____ _____    ______ ____
ROOT
ATOM      1  N   UNL     1       3.832   7.425  17.215  0.00  0.00    +0.000 N 
ATOM      2  C   UNL     1       2.900   7.957  18.117  0.00  0.00    +0.000 A 
ATOM      3  C   UNL     1       2.624   7.370  19.330  0.00  0.00    +0.000 A 
ATOM      4  C   UNL     1       1.638   7.944  20.080  0.00  0.00    +0.000 A 
ATOM      5  N   UNL     1       0.980   9.037  19.691  0.00  0.00    +0.000 NA
ATOM      6  C   UNL     1       1.331   9.585  18.518  0.00  0.00    +0.000 A 
ATOM      7  N   UNL     1       0.664  10.732  18.087  0.00  0.00    +0.000 N 
ATOM      8  N   UNL     1       2.291   9.090  17.719  0.00  0.00    +0.000 NA
ATOM      9  H   UNL     1       3.955   8.114  16.479  0.00  0.00    +0.000 HD
ATOM     10  H   UNL     1       0.985  10.960  17.155  0.00  0.00    +0.000 HD
ENDROOT
BRANCH   1  12
ATOM     11  C   UNL     1       4.153   4.998  17.730  0.00  0.00    +0.000 C 
ATOM     12  C   UNL     1       4.261   6.191  17.055  0.00  0.00    +0.000 C 
ATOM     13  C   UNL     1       5.103   5.569  15.999  0.00  0.00    +0.000 C 
ATOM     14  O   UNL     1       5.659   5.854  14.967  0.00  0.00    +0.000 OA
ATOM     15  C   UNL     1       5.053   4.308  16.768  0.00  0.00    +0.000 C 
ATOM     16  O   UNL     1       5.621   3.257  16.633  0.00  0.00    +0.000 OA
BRANCH  11  17
ATOM     17  N   UNL     1       3.583   4.497  18.811  0.00  0.00    +0.000 N 
ATOM     18  H   UNL     1       4.207   4.132  19.536  0.00  0.00    +0.000 HD
BRANCH  17  19
ATOM     19  C   UNL     1       2.307   3.751  18.817  0.00  0.00    +0.000 C 
ATOM     20  C   UNL     1       2.603   2.243  18.759  0.00  0.00    +0.000 C 
ATOM     21  C   UNL     1       1.412   4.160  17.635  0.00  0.00    +0.000 C 
BRANCH  19  23
ATOM     22  C   UNL     1       1.309   2.834  21.033  0.00  0.00    +0.000 C 
ATOM     23  C   UNL     1       1.585   4.055  20.159  0.00  0.00    +0.000 C 
ENDBRANCH  19  23
ENDBRANCH  17  19
ENDBRANCH  11  17
ENDBRANCH   1  12
BRANCH   7  24
ATOM     24  C   UNL     1      -0.710  10.975  18.270  0.00  0.00    +0.000 A 
ATOM     25  C   UNL     1      -1.108  11.999  19.127  0.00  0.00    +0.000 A 
ATOM     26  C   UNL     1      -2.465  12.281  19.314  0.00  0.00    +0.000 A 
ATOM     27  C   UNL     1      -3.469  11.591  18.608  0.00  0.00    +0.000 A 
ATOM     28  C   UNL     1      -3.055  10.570  17.742  0.00  0.00    +0.000 A 
ATOM     29  C   UNL     1      -1.699  10.270  17.575  0.00  0.00    +0.000 A 
BRANCH  27  30
ATOM     30  C   UNL     1      -4.894  11.965  18.748  0.00  0.00    +0.000 A 
ATOM     31  C   UNL     1      -5.738  11.999  17.622  0.00  0.00    +0.000 A 
ATOM     32  C   UNL     1      -7.084  12.351  17.724  0.00  0.00    +0.000 A 
ATOM     33  C   UNL     1      -7.627  12.659  18.966  0.00  0.00    +0.000 A 
ATOM     34  C   UNL     1      -6.823  12.616  20.101  0.00  0.00    +0.000 A 
ATOM     35  C   UNL     1      -5.470  12.279  19.993  0.00  0.00    +0.000 A 
ENDBRANCH  27  30
ENDBRANCH   7  24
TORSDOF 6
ENDMDL
MODEL 6
REMARK VINA RESULT:      -8.9      1.621      3.006
REMARK  Name = 
REMARK  9 active torsions:
REMARK  status: ('A' for Active; 'I' for Inactive)
REMARK    1  A    between atoms: C_1  and  C_2
REMARK    2  A    between atoms: C_2  and  C_3
REMARK    3  A    between atoms: C_3  and  C_4
REMARK    4  A    between atoms: C_3  and  C_5
REMARK    5  A    between atoms: C_3  and  N_6
REMARK    6  A    between atoms: N_6  and  C_7
REMARK    7  A    between atoms: C_8  and  N_9
REMARK    8  A    between atoms: N_15  and  C_16
REMARK    9  A    between atoms: C_19  and  C_20
REMARK                            x       y       z     vdW  Elec       q    Type
REMARK                         _______ _______ _______ _____ _____    ______ ____
ROOT
ATOM      1  N   UNL     1       4.043   7.289  17.017  0.00  0.00    +0.000 N 
ATOM      2  C   UNL     1       3.113   7.782  17.943  0.00  0.00    +0.000 A 
ATOM      3  C   UNL     1       2.840   7.143  19.130  0.00  0.00    +0.000 A 
ATOM      4  C   UNL     1       1.856   7.684  19.907  0.00  0.00    +0.000 A 
ATOM      5  N   UNL     1       1.197   8.792  19.567  0.00  0.00    +0.000 NA
ATOM      6  C   UNL     1       1.546   9.390  18.418  0.00  0.00    +0.000 A 
ATOM      7  N   UNL     1       0.877  10.554  18.039  0.00  0.00    +0.000 N 
ATOM      8  N   UNL     1       2.503   8.931  17.597  0.00  0.00    +0.000 NA
ATOM      9  H   UNL     1       4.164   8.010  16.310  0.00  0.00    +0.000 HD
ATOM     10  H   UNL     1       1.195  10.823  17.117  0.00  0.00    +0.000 HD
ENDROOT
BRANCH   1  12
ATOM     11  C   UNL     1       3.975   4.790  16.945  0.00  0.00    +0.000 C 
ATOM     12  C   UNL     1       4.471   6.063  16.803  0.00  0.00    +0.000 C 
ATOM     13  C   UNL     1       5.769   5.548  16.289  0.00  0.00    +0.000 C 
ATOM     14  O   UNL     1       6.829   5.949  15.877  0.00  0.00    +0.000 OA
ATOM     15  C   UNL     1       5.263   4.179  16.520  0.00  0.00    +0.000 C 
ATOM     16  O   UNL     1       5.790   3.101  16.454  0.00  0.00    +0.000 OA
BRANCH  11  17
ATOM     17  N   UNL     1       2.872   4.172  17.330  0.00  0.00    +0.000 N 
ATOM     18  H   UNL     1       1.993   4.683  17.216  0.00  0.00    +0.000 HD
BRANCH  17  19
ATOM     19  C   UNL     1       2.783   3.259  18.487  0.00  0.00    +0.000 C 
ATOM     20  C   UNL     1       3.754   3.732  19.581  0.00  0.00    +0.000 C 
ATOM     21  C   UNL     1       3.104   1.809  18.085  0.00  0.00    +0.000 C 
BRANCH  19  23
ATOM     22  C   UNL     1       1.223   3.956  20.444  0.00  0.00    +0.000 C 
ATOM     23  C   UNL     1       1.337   3.344  19.050  0.00  0.00    +0.000 C 
ENDBRANCH  19  23
ENDBRANCH  17  19
ENDBRANCH  11  17
ENDBRANCH   1  12
BRANCH   7  24
ATOM     24  C   UNL     1      -0.497  10.790  18.236  0.00  0.00    +0.000 A 
ATOM     25  C   UNL     1      -0.892  11.811  19.096  0.00  0.00    +0.000 A 
ATOM     26  C   UNL     1      -2.249  12.085  19.297  0.00  0.00    +0.000 A 
ATOM     27  C   UNL     1      -3.256  11.389  18.602  0.00  0.00    +0.000 A 
ATOM     28  C   UNL     1      -2.844  10.369  17.732  0.00  0.00    +0.000 A 
ATOM     29  C   UNL     1      -1.489  10.078  17.552  0.00  0.00    +0.000 A 
BRANCH  27  30
ATOM     30  C   UNL     1      -4.682  11.754  18.756  0.00  0.00    +0.000 A 
ATOM     31  C   UNL     1      -5.114  12.490  19.875  0.00  0.00    +0.000 A 
ATOM     32  C   UNL     1      -6.452  12.846  20.047  0.00  0.00    +0.000 A 
ATOM     33  C   UNL     1      -7.392  12.489  19.087  0.00  0.00    +0.000 A 
ATOM     34  C   UNL     1      -6.993  11.777  17.959  0.00  0.00    +0.000 A 
ATOM     35  C   UNL     1      -5.653  11.408  17.799  0.00  0.00    +0.000 A 
ENDBRANCH  27  30
ENDBRANCH   7  24
TORSDOF 6
ENDMDL
MODEL 7
REMARK VINA RESULT:      -8.9      0.870      1.527
REMARK  Name = 
REMARK  9 active torsions:
REMARK  status: ('A' for Active; 'I' for Inactive)
REMARK    1  A    between atoms: C_1  and  C_2
REMARK    2  A    between atoms: C_2  and  C_3
REMARK    3  A    between atoms: C_3  and  C_4
REMARK    4  A    between atoms: C_3  and  C_5
REMARK    5  A    between atoms: C_3  and  N_6
REMARK    6  A    between atoms: N_6  and  C_7
REMARK    7  A    between atoms: C_8  and  N_9
REMARK    8  A    between atoms: N_15  and  C_16
REMARK    9  A    between atoms: C_19  and  C_20
REMARK                            x       y       z     vdW  Elec       q    Type
REMARK                         _______ _______ _______ _____ _____    ______ ____
ROOT
ATOM      1  N   UNL     1       3.034   6.511  18.542  0.00  0.00    +0.000 N 
ATOM      2  C   UNL     1       2.251   7.468  19.204  0.00  0.00    +0.000 A 
ATOM      3  C   UNL     1       1.989   7.406  20.554  0.00  0.00    +0.000 A 
ATOM      4  C   UNL     1       1.148   8.354  21.060  0.00  0.00    +0.000 A 
ATOM      5  N   UNL     1       0.616   9.320  20.310  0.00  0.00    +0.000 NA
ATOM      6  C   UNL     1       0.950   9.349  19.011  0.00  0.00    +0.000 A 
ATOM      7  N   UNL     1       0.412  10.351  18.203  0.00  0.00    +0.000 N 
ATOM      8  N   UNL     1       1.773   8.460  18.431  0.00  0.00    +0.000 NA
ATOM      9  H   UNL     1       3.194   6.862  17.602  0.00  0.00    +0.000 HD
ATOM     10  H   UNL     1       0.691  10.177  17.246  0.00  0.00    +0.000 HD
ENDROOT
BRANCH   1  12
ATOM     11  C   UNL     1       4.385   4.438  18.908  0.00  0.00    +0.000 C 
ATOM     12  C   UNL     1       3.280   5.253  18.838  0.00  0.00    +0.000 C 
ATOM     13  C   UNL     1       2.378   4.139  19.235  0.00  0.00    +0.000 C 
ATOM     14  O   UNL     1       1.213   3.922  19.457  0.00  0.00    +0.000 OA
ATOM     15  C   UNL     1       3.556   3.246  19.230  0.00  0.00    +0.000 C 
ATOM     16  O   UNL     1       3.667   2.055  19.350  0.00  0.00    +0.000 OA
BRANCH  11  17
ATOM     17  N   UNL     1       5.695   4.495  18.744  0.00  0.00    +0.000 N 
ATOM     18  H   UNL     1       6.240   4.899  19.510  0.00  0.00    +0.000 HD
BRANCH  17  19
ATOM     19  C   UNL     1       6.368   4.750  17.453  0.00  0.00    +0.000 C 
ATOM     20  C   UNL     1       5.706   3.894  16.361  0.00  0.00    +0.000 C 
ATOM     21  C   UNL     1       7.871   4.437  17.532  0.00  0.00    +0.000 C 
BRANCH  19  23
ATOM     22  C   UNL     1       5.286   6.498  15.865  0.00  0.00    +0.000 C 
ATOM     23  C   UNL     1       6.156   6.247  17.093  0.00  0.00    +0.000 C 
ENDBRANCH  19  23
ENDBRANCH  17  19
ENDBRANCH  11  17
ENDBRANCH   1  12
BRANCH   7  24
ATOM     24  C   UNL     1      -0.900  10.850  18.311  0.00  0.00    +0.000 A 
ATOM     25  C   UNL     1      -1.896  10.313  17.499  0.00  0.00    +0.000 A 
ATOM     26  C   UNL     1      -3.214  10.771  17.597  0.00  0.00    +0.000 A 
ATOM     27  C   UNL     1      -3.594  11.738  18.547  0.00  0.00    +0.000 A 
ATOM     28  C   UNL     1      -2.583  12.263  19.363  0.00  0.00    +0.000 A 
ATOM     29  C   UNL     1      -1.260  11.824  19.248  0.00  0.00    +0.000 A 
BRANCH  27  30
ATOM     30  C   UNL     1      -5.009  12.144  18.699  0.00  0.00    +0.000 A 
ATOM     31  C   UNL     1      -5.868  12.175  17.585  0.00  0.00    +0.000 A 
ATOM     32  C   UNL     1      -7.205  12.556  17.699  0.00  0.00    +0.000 A 
ATOM     33  C   UNL     1      -7.724  12.896  18.942  0.00  0.00    +0.000 A 
ATOM     34  C   UNL     1      -6.905  12.856  20.068  0.00  0.00    +0.000 A 
ATOM     35  C   UNL     1      -5.561  12.490  19.946  0.00  0.00    +0.000 A 
ENDBRANCH  27  30
ENDBRANCH   7  24
TORSDOF 6
ENDMDL
MODEL 8
REMARK VINA RESULT:      -8.9      0.830      1.236
REMARK  Name = 
REMARK  9 active torsions:
REMARK  status: ('A' for Active; 'I' for Inactive)
REMARK    1  A    between atoms: C_1  and  C_2
REMARK    2  A    between atoms: C_2  and  C_3
REMARK    3  A    between atoms: C_3  and  C_4
REMARK    4  A    between atoms: C_3  and  C_5
REMARK    5  A    between atoms: C_3  and  N_6
REMARK    6  A    between atoms: N_6  and  C_7
REMARK    7  A    between atoms: C_8  and  N_9
REMARK    8  A    between atoms: N_15  and  C_16
REMARK    9  A    between atoms: C_19  and  C_20
REMARK                            x       y       z     vdW  Elec       q    Type
REMARK                         _______ _______ _______ _____ _____    ______ ____
ROOT
ATOM      1  N   UNL     1       3.013   6.702  18.539  0.00  0.00    +0.000 N 
ATOM      2  C   UNL     1       2.179   7.634  19.174  0.00  0.00    +0.000 A 
ATOM      3  C   UNL     1       1.947   7.618  20.530  0.00  0.00    +0.000 A 
ATOM      4  C   UNL     1       1.053   8.531  21.010  0.00  0.00    +0.000 A 
ATOM      5  N   UNL     1       0.443   9.423  20.229  0.00  0.00    +0.000 NA
ATOM      6  C   UNL     1       0.751   9.413  18.923  0.00  0.00    +0.000 A 
ATOM      7  N   UNL     1       0.133  10.339  18.082  0.00  0.00    +0.000 N 
ATOM      8  N   UNL     1       1.621   8.555  18.367  0.00  0.00    +0.000 NA
ATOM      9  H   UNL     1       3.131   7.018  17.581  0.00  0.00    +0.000 HD
ATOM     10  H   UNL     1       0.405  10.139  17.129  0.00  0.00    +0.000 HD
ENDROOT
BRANCH   1  12
ATOM     11  C   UNL     1       4.511   4.755  19.010  0.00  0.00    +0.000 C 
ATOM     12  C   UNL     1       3.348   5.478  18.886  0.00  0.00    +0.000 C 
ATOM     13  C   UNL     1       2.526   4.311  19.306  0.00  0.00    +0.000 C 
ATOM     14  O   UNL     1       1.376   4.012  19.510  0.00  0.00    +0.000 OA
ATOM     15  C   UNL     1       3.769   3.514  19.358  0.00  0.00    +0.000 C 
ATOM     16  O   UNL     1       3.969   2.340  19.525  0.00  0.00    +0.000 OA
BRANCH  11  17
ATOM     17  N   UNL     1       5.816   4.908  18.871  0.00  0.00    +0.000 N 
ATOM     18  H   UNL     1       6.316   5.342  19.651  0.00  0.00    +0.000 HD
BRANCH  17  19
ATOM     19  C   UNL     1       6.492   5.225  17.595  0.00  0.00    +0.000 C 
ATOM     20  C   UNL     1       7.839   4.486  17.540  0.00  0.00    +0.000 C 
ATOM     21  C   UNL     1       6.711   6.739  17.436  0.00  0.00    +0.000 C 
BRANCH  19  23
ATOM     22  C   UNL     1       6.360   4.162  15.229  0.00  0.00    +0.000 C 
ATOM     23  C   UNL     1       5.599   4.695  16.439  0.00  0.00    +0.000 C 
ENDBRANCH  19  23
ENDBRANCH  17  19
ENDBRANCH  11  17
ENDBRANCH   1  12
BRANCH   7  24
ATOM     24  C   UNL     1      -1.208  10.754  18.195  0.00  0.00    +0.000 A 
ATOM     25  C   UNL     1      -1.533  11.749  19.114  0.00  0.00    +0.000 A 
ATOM     26  C   UNL     1      -2.851  12.199  19.236  0.00  0.00    +0.000 A 
ATOM     27  C   UNL     1      -3.879  11.715  18.405  0.00  0.00    +0.000 A 
ATOM     28  C   UNL     1      -3.537  10.721  17.479  0.00  0.00    +0.000 A 
ATOM     29  C   UNL     1      -2.224  10.251  17.375  0.00  0.00    +0.000 A 
BRANCH  27  30
ATOM     30  C   UNL     1      -5.249  12.270  18.484  0.00  0.00    +0.000 A 
ATOM     31  C   UNL     1      -5.786  12.674  19.720  0.00  0.00    +0.000 A 
ATOM     32  C   UNL     1      -7.075  13.197  19.824  0.00  0.00    +0.000 A 
ATOM     33  C   UNL     1      -7.855  13.349  18.683  0.00  0.00    +0.000 A 
ATOM     34  C   UNL     1      -7.345  12.976  17.443  0.00  0.00    +0.000 A 
ATOM     35  C   UNL     1      -6.058  12.437  17.345  0.00  0.00    +0.000 A 
ENDBRANCH  27  30
ENDBRANCH   7  24
TORSDOF 6
ENDMDL
MODEL 9
REMARK VINA RESULT:      -8.8      0.902      1.047
REMARK  Name = 
REMARK  9 active torsions:
REMARK  status: ('A' for Active; 'I' for Inactive)
REMARK    1  A    between atoms: C_1  and  C_2
REMARK    2  A    between atoms: C_2  and  C_3
REMARK    3  A    between atoms: C_3  and  C_4
REMARK    4  A    between atoms: C_3  and  C_5
REMARK    5  A    between atoms: C_3  and  N_6
REMARK    6  A    between atoms: N_6  and  C_7
REMARK    7  A    between atoms: C_8  and  N_9
REMARK    8  A    between atoms: N_15  and  C_16
REMARK    9  A    between atoms: C_19  and  C_20
REMARK                            x       y       z     vdW  Elec       q    Type
REMARK                         _______ _______ _______ _____ _____    ______ ____
ROOT
ATOM      1  N   UNL     1       2.876   7.190  17.791  0.00  0.00    +0.000 N 
ATOM      2  C   UNL     1       2.133   8.001  18.660  0.00  0.00    +0.000 A 
ATOM      3  C   UNL     1       2.038   7.749  20.009  0.00  0.00    +0.000 A 
ATOM      4  C   UNL     1       1.218   8.569  20.730  0.00  0.00    +0.000 A 
ATOM      5  N   UNL     1       0.553   9.587  20.183  0.00  0.00    +0.000 NA
ATOM      6  C   UNL     1       0.727   9.804  18.871  0.00  0.00    +0.000 A 
ATOM      7  N   UNL     1       0.049  10.865  18.272  0.00  0.00    +0.000 N 
ATOM      8  N   UNL     1       1.517   9.052  18.087  0.00  0.00    +0.000 NA
ATOM      9  H   UNL     1       2.905   7.669  16.895  0.00  0.00    +0.000 HD
ATOM     10  H   UNL     1       0.219  10.834  17.275  0.00  0.00    +0.000 HD
ENDROOT
BRANCH   1  12
ATOM     11  C   UNL     1       4.363   5.210  18.146  0.00  0.00    +0.000 C 
ATOM     12  C   UNL     1       3.217   5.923  17.884  0.00  0.00    +0.000 C 
ATOM     13  C   UNL     1       2.425   4.674  17.719  0.00  0.00    +0.000 C 
ATOM     14  O   UNL     1       1.297   4.314  17.491  0.00  0.00    +0.000 OA
ATOM     15  C   UNL     1       3.674   3.911  17.920  0.00  0.00    +0.000 C 
ATOM     16  O   UNL     1       3.931   2.741  17.821  0.00  0.00    +0.000 OA
BRANCH  11  17
ATOM     17  N   UNL     1       5.635   5.415  18.441  0.00  0.00    +0.000 N 
ATOM     18  H   UNL     1       5.832   5.951  19.290  0.00  0.00    +0.000 HD
BRANCH  17  19
ATOM     19  C   UNL     1       6.702   5.633  17.443  0.00  0.00    +0.000 C 
ATOM     20  C   UNL     1       7.741   4.505  17.559  0.00  0.00    +0.000 C 
ATOM     21  C   UNL     1       7.381   6.999  17.636  0.00  0.00    +0.000 C 
BRANCH  19  23
ATOM     22  C   UNL     1       6.587   4.439  15.139  0.00  0.00    +0.000 C 
ATOM     23  C   UNL     1       6.056   5.558  16.032  0.00  0.00    +0.000 C 
ENDBRANCH  19  23
ENDBRANCH  17  19
ENDBRANCH  11  17
ENDBRANCH   1  12
BRANCH   7  24
ATOM     24  C   UNL     1      -1.264  11.261  18.593  0.00  0.00    +0.000 A 
ATOM     25  C   UNL     1      -1.464  12.144  19.651  0.00  0.00    +0.000 A 
ATOM     26  C   UNL     1      -2.753  12.574  19.982  0.00  0.00    +0.000 A 
ATOM     27  C   UNL     1      -3.879  12.184  19.233  0.00  0.00    +0.000 A 
ATOM     28  C   UNL     1      -3.663  11.302  18.165  0.00  0.00    +0.000 A 
ATOM     29  C   UNL     1      -2.377  10.852  17.850  0.00  0.00    +0.000 A 
BRANCH  27  30
ATOM     30  C   UNL     1      -5.224  12.722  19.540  0.00  0.00    +0.000 A 
ATOM     31  C   UNL     1      -6.375  12.122  18.996  0.00  0.00    +0.000 A 
ATOM     32  C   UNL     1      -7.653  12.610  19.266  0.00  0.00    +0.000 A 
ATOM     33  C   UNL     1      -7.813  13.704  20.108  0.00  0.00    +0.000 A 
ATOM     34  C   UNL     1      -6.696  14.307  20.678  0.00  0.00    +0.000 A 
ATOM     35  C   UNL     1      -5.414  13.825  20.392  0.00  0.00    +0.000 A 
ENDBRANCH  27  30
ENDBRANCH   7  24
TORSDOF 6
ENDMDL
