MODEL 1
REMARK VINA RESULT:      -7.5      0.000      0.000
REMARK  Name = 
REMARK  7 active torsions:
REMARK  status: ('A' for Active; 'I' for Inactive)
REMARK    1  A    between atoms: C_2  and  O_3
REMARK    2  A    between atoms: C_2  and  C_4
REMARK    3  A    between atoms: C_4  and  C_5
REMARK    4  A    between atoms: C_5  and  N_6
REMARK    5  A    between atoms: C_5  and  C_20
REMARK    6  A    between atoms: C_7  and  C_9
REMARK    7  A    between atoms: C_13  and  N_14
REMARK                            x       y       z     vdW  Elec       q    Type
REMARK                         _______ _______ _______ _____ _____    ______ ____
ROOT
ATOM      1  N   UNL     1       3.927   4.606  17.137  0.00  0.00    +0.000 N 
ATOM      2  C   UNL     1       5.269   4.307  17.175  0.00  0.00    +0.000 C 
ATOM      3  O   UNL     1       5.855   3.900  18.188  0.00  0.00    +0.000 OA
ATOM      4  H   UNL     1       3.512   4.944  16.275  0.00  0.00    +0.000 HD
ENDROOT
BRANCH   2   5
ATOM      5  C   UNL     1       6.055   4.511  15.947  0.00  0.00    +0.000 A 
ATOM      6  C   UNL     1       7.022   5.506  15.936  0.00  0.00    +0.000 A 
ATOM      7  N   UNL     1       7.769   5.805  14.856  0.00  0.00    +0.000 NA
ATOM      8  C   UNL     1       7.513   5.081  13.731  0.00  0.00    +0.000 A 
ATOM      9  C   UNL     1       6.560   4.059  13.602  0.00  0.00    +0.000 A 
ATOM     10  C   UNL     1       5.821   3.797  14.765  0.00  0.00    +0.000 A 
BRANCH   9  11
ATOM     11  N   UNL     1       6.356   3.391  12.415  0.00  0.00    +0.000 N 
ATOM     12  C   UNL     1       5.065   2.942  11.904  0.00  0.00    +0.000 C 
ATOM     13  C   UNL     1       5.374   1.563  11.338  0.00  0.00    +0.000 C 
ATOM     14  C   UNL     1       6.777   1.721  10.780  0.00  0.00    +0.000 C 
ATOM     15  C   UNL     1       7.457   2.686  11.748  0.00  0.00    +0.000 C 
ENDBRANCH   9  11
ENDBRANCH   2   5
BRANCH   1  16
ATOM     16  C   UNL     1       3.049   4.547  18.305  0.00  0.00    +0.000 C 
BRANCH  16  17
ATOM     17  C   UNL     1       2.565   5.949  18.715  0.00  0.00    +0.000 A 
ATOM     18  C   UNL     1       2.588   6.994  17.762  0.00  0.00    +0.000 A 
ATOM     19  C   UNL     1       2.206   8.309  18.067  0.00  0.00    +0.000 A 
ATOM     20  C   UNL     1       1.790   8.605  19.355  0.00  0.00    +0.000 A 
ATOM     21  C   UNL     1       1.743   7.596  20.316  0.00  0.00    +0.000 A 
ATOM     22  C   UNL     1       2.124   6.277  20.006  0.00  0.00    +0.000 A 
ATOM     23 CL   UNL     1       2.007   5.103  21.267  0.00  0.00    +0.000 Cl
ENDBRANCH  16  17
BRANCH  16  24
ATOM     24  C   UNL     1       1.853   3.599  18.119  0.00  0.00    +0.000 C 
BRANCH  24  26
ATOM     25  O   UNL     1       3.201   1.564  18.015  0.00  0.00    +0.000 OA
ATOM     26  C   UNL     1       2.136   2.137  18.164  0.00  0.00    +0.000 C 
BRANCH  26  27
ATOM     27  O   UNL     1       1.005   1.521  18.596  0.00  0.00    +0.000 OA
ATOM     28  H   UNL     1       1.005   0.605  18.260  0.00  0.00    +0.000 HD
ENDBRANCH  26  27
ENDBRANCH  24  26
ENDBRANCH  16  24
ENDBRANCH   1  16
TORSDOF 7
ENDMDL
MODEL 2
REMARK VINA RESULT:      -7.4      4.006      8.404
REMARK  Name = 
REMARK  7 active torsions:
REMARK  status: ('A' for Active; 'I' for Inactive)
REMARK    1  A    between atoms: C_2  and  O_3
REMARK    2  A    between atoms: C_2  and  C_4
REMARK    3  A    between atoms: C_4  and  C_5
REMARK    4  A    between atoms: C_5  and  N_6
REMARK    5  A    between atoms: C_5  and  C_20
REMARK    6  A    between atoms: C_7  and  C_9
REMARK    7  A    between atoms: C_13  and  N_14
REMARK                            x       y       z     vdW  Elec       q    Type
REMARK                         _______ _______ _______ _____ _____    ______ ____
ROOT
ATOM      1  N   UNL     1       2.788   6.030  18.598  0.00  0.00    +0.000 N 
ATOM      2  C   UNL     1       2.616   7.374  18.354  0.00  0.00    +0.000 C 
ATOM      3  O   UNL     1       3.125   7.969  17.395  0.00  0.00    +0.000 OA
ATOM      4  H   UNL     1       2.350   5.608  19.408  0.00  0.00    +0.000 HD
ENDROOT
BRANCH   2   5
ATOM      5  C   UNL     1       1.805   8.148  19.308  0.00  0.00    +0.000 A 
ATOM      6  C   UNL     1       1.791   7.757  20.638  0.00  0.00    +0.000 A 
ATOM      7  N   UNL     1       1.054   8.368  21.586  0.00  0.00    +0.000 NA
ATOM      8  C   UNL     1       0.281   9.407  21.165  0.00  0.00    +0.000 A 
ATOM      9  C   UNL     1       0.192   9.897  19.854  0.00  0.00    +0.000 A 
ATOM     10  C   UNL     1       0.988   9.217  18.920  0.00  0.00    +0.000 A 
BRANCH   9  11
ATOM     11  N   UNL     1      -0.634  10.946  19.516  0.00  0.00    +0.000 N 
ATOM     12  C   UNL     1      -0.789  12.183  20.276  0.00  0.00    +0.000 C 
ATOM     13  C   UNL     1      -2.288  12.443  20.216  0.00  0.00    +0.000 C 
ATOM     14  C   UNL     1      -2.672  11.953  18.831  0.00  0.00    +0.000 C 
ATOM     15  C   UNL     1      -1.757  10.755  18.592  0.00  0.00    +0.000 C 
ENDBRANCH   9  11
ENDBRANCH   2   5
BRANCH   1  16
ATOM     16  C   UNL     1       3.648   5.164  17.793  0.00  0.00    +0.000 C 
BRANCH  16  17
ATOM     17  C   UNL     1       5.133   5.533  17.961  0.00  0.00    +0.000 A 
ATOM     18  C   UNL     1       5.764   5.305  19.205  0.00  0.00    +0.000 A 
ATOM     19  C   UNL     1       7.101   5.653  19.455  0.00  0.00    +0.000 A 
ATOM     20  C   UNL     1       7.837   6.249  18.445  0.00  0.00    +0.000 A 
ATOM     21  C   UNL     1       7.250   6.477  17.201  0.00  0.00    +0.000 A 
ATOM     22  C   UNL     1       5.910   6.124  16.953  0.00  0.00    +0.000 A 
ATOM     23 CL   UNL     1       5.290   6.432  15.372  0.00  0.00    +0.000 Cl
ENDBRANCH  16  17
BRANCH  16  24
ATOM     24  C   UNL     1       3.432   3.667  18.070  0.00  0.00    +0.000 C 
BRANCH  24  26
ATOM     25  O   UNL     1       1.054   3.730  17.517  0.00  0.00    +0.000 OA
ATOM     26  C   UNL     1       2.061   3.129  17.843  0.00  0.00    +0.000 C 
BRANCH  26  27
ATOM     27  O   UNL     1       2.149   1.774  17.883  0.00  0.00    +0.000 OA
ATOM     28  H   UNL     1       1.423   1.402  17.347  0.00  0.00    +0.000 HD
ENDBRANCH  26  27
ENDBRANCH  24  26
ENDBRANCH  16  24
ENDBRANCH   1  16
TORSDOF 7
ENDMDL
MODEL 3
REMARK VINA RESULT:      -7.4      3.065      8.309
REMARK  Name = 
REMARK  7 active torsions:
REMARK  status: ('A' for Active; 'I' for Inactive)
REMARK    1  A    between atoms: C_2  and  O_3
REMARK    2  A    between atoms: C_2  and  C_4
REMARK    3  A    between atoms: C_4  and  C_5
REMARK    4  A    between atoms: C_5  and  N_6
REMARK    5  A    between atoms: C_5  and  C_20
REMARK    6  A    between atoms: C_7  and  C_9
REMARK    7  A    between atoms: C_13  and  N_14
REMARK                            x       y       z     vdW  Elec       q    Type
REMARK                         _______ _______ _______ _____ _____    ______ ____
ROOT
ATOM      1  N   UNL     1       3.910   6.002  18.239  0.00  0.00    +0.000 N 
ATOM      2  C   UNL     1       2.578   6.221  18.509  0.00  0.00    +0.000 C 
ATOM      3  O   UNL     1       1.733   5.318  18.580  0.00  0.00    +0.000 OA
ATOM      4  H   UNL     1       4.547   6.789  18.186  0.00  0.00    +0.000 HD
ENDROOT
BRANCH   2   5
ATOM      5  C   UNL     1       2.133   7.612  18.693  0.00  0.00    +0.000 A 
ATOM      6  C   UNL     1       2.287   8.503  17.642  0.00  0.00    +0.000 A 
ATOM      7  N   UNL     1       1.952   9.805  17.715  0.00  0.00    +0.000 NA
ATOM      8  C   UNL     1       1.459  10.230  18.910  0.00  0.00    +0.000 A 
ATOM      9  C   UNL     1       1.262   9.441  20.054  0.00  0.00    +0.000 A 
ATOM     10  C   UNL     1       1.628   8.095  19.907  0.00  0.00    +0.000 A 
BRANCH   9  11
ATOM     11  N   UNL     1       0.772   9.963  21.231  0.00  0.00    +0.000 N 
ATOM     12  C   UNL     1       0.892   9.346  22.548  0.00  0.00    +0.000 C 
ATOM     13  C   UNL     1      -0.474   9.588  23.173  0.00  0.00    +0.000 C 
ATOM     14  C   UNL     1      -0.868  10.953  22.635  0.00  0.00    +0.000 C 
ATOM     15  C   UNL     1      -0.287  10.978  21.223  0.00  0.00    +0.000 C 
ENDBRANCH   9  11
ENDBRANCH   2   5
BRANCH   1  16
ATOM     16  C   UNL     1       4.470   4.685  17.936  0.00  0.00    +0.000 C 
BRANCH  16  17
ATOM     17  C   UNL     1       5.409   4.743  16.717  0.00  0.00    +0.000 A 
ATOM     18  C   UNL     1       5.026   4.097  15.519  0.00  0.00    +0.000 A 
ATOM     19  C   UNL     1       5.843   4.064  14.379  0.00  0.00    +0.000 A 
ATOM     20  C   UNL     1       7.080   4.688  14.422  0.00  0.00    +0.000 A 
ATOM     21  C   UNL     1       7.483   5.346  15.583  0.00  0.00    +0.000 A 
ATOM     22  C   UNL     1       6.660   5.379  16.725  0.00  0.00    +0.000 A 
ATOM     23 CL   UNL     1       7.249   6.239  18.100  0.00  0.00    +0.000 Cl
ENDBRANCH  16  17
BRANCH  16  24
ATOM     24  C   UNL     1       5.184   4.038  19.134  0.00  0.00    +0.000 C 
BRANCH  24  26
ATOM     25  O   UNL     1       4.897   1.874  20.230  0.00  0.00    +0.000 OA
ATOM     26  C   UNL     1       4.461   2.942  19.839  0.00  0.00    +0.000 C 
BRANCH  26  27
ATOM     27  O   UNL     1       3.227   3.411  20.154  0.00  0.00    +0.000 OA
ATOM     28  H   UNL     1       3.326   4.117  20.820  0.00  0.00    +0.000 HD
ENDBRANCH  26  27
ENDBRANCH  24  26
ENDBRANCH  16  24
ENDBRANCH   1  16
TORSDOF 7
ENDMDL
MODEL 4
REMARK VINA RESULT:      -7.4      3.655      8.059
REMARK  Name = 
REMARK  7 active torsions:
REMARK  status: ('A' for Active; 'I' for Inactive)
REMARK    1  A    between atoms: C_2  and  O_3
REMARK    2  A    between atoms: C_2  and  C_4
REMARK    3  A    between atoms: C_4  and  C_5
REMARK    4  A    between atoms: C_5  and  N_6
REMARK    5  A    between atoms: C_5  and  C_20
REMARK    6  A    between atoms: C_7  and  C_9
REMARK    7  A    between atoms: C_13  and  N_14
REMARK                            x       y       z     vdW  Elec       q    Type
REMARK                         _______ _______ _______ _____ _____    ______ ____
ROOT
ATOM      1  N   UNL     1       2.869   5.721  18.239  0.00  0.00    +0.000 N 
ATOM      2  C   UNL     1       2.829   7.087  18.074  0.00  0.00    +0.000 C 
ATOM      3  O   UNL     1       3.401   7.685  17.152  0.00  0.00    +0.000 OA
ATOM      4  H   UNL     1       2.385   5.296  19.022  0.00  0.00    +0.000 HD
ENDROOT
BRANCH   2   5
ATOM      5  C   UNL     1       2.088   7.879  19.069  0.00  0.00    +0.000 A 
ATOM      6  C   UNL     1       1.924   7.359  20.344  0.00  0.00    +0.000 A 
ATOM      7  N   UNL     1       1.230   7.979  21.317  0.00  0.00    +0.000 NA
ATOM      8  C   UNL     1       0.660   9.169  20.981  0.00  0.00    +0.000 A 
ATOM      9  C   UNL     1       0.737   9.801  19.731  0.00  0.00    +0.000 A 
ATOM     10  C   UNL     1       1.477   9.102  18.766  0.00  0.00    +0.000 A 
BRANCH   9  11
ATOM     11  N   UNL     1       0.110  11.001  19.475  0.00  0.00    +0.000 N 
ATOM     12  C   UNL     1      -1.328  11.190  19.314  0.00  0.00    +0.000 C 
ATOM     13  C   UNL     1      -1.424  12.168  18.152  0.00  0.00    +0.000 C 
ATOM     14  C   UNL     1      -0.218  13.068  18.353  0.00  0.00    +0.000 C 
ATOM     15  C   UNL     1       0.852  12.136  18.916  0.00  0.00    +0.000 C 
ENDBRANCH   9  11
ENDBRANCH   2   5
BRANCH   1  16
ATOM     16  C   UNL     1       3.648   4.824  17.387  0.00  0.00    +0.000 C 
BRANCH  16  17
ATOM     17  C   UNL     1       5.145   4.870  17.745  0.00  0.00    +0.000 A 
ATOM     18  C   UNL     1       5.536   5.339  19.019  0.00  0.00    +0.000 A 
ATOM     19  C   UNL     1       6.880   5.454  19.408  0.00  0.00    +0.000 A 
ATOM     20  C   UNL     1       7.870   5.096  18.508  0.00  0.00    +0.000 A 
ATOM     21  C   UNL     1       7.519   4.616  17.247  0.00  0.00    +0.000 A 
ATOM     22  C   UNL     1       6.171   4.500  16.861  0.00  0.00    +0.000 A 
ATOM     23 CL   UNL     1       5.850   3.875  15.284  0.00  0.00    +0.000 Cl
ENDBRANCH  16  17
BRANCH  16  24
ATOM     24  C   UNL     1       3.137   3.374  17.403  0.00  0.00    +0.000 C 
BRANCH  24  26
ATOM     25  O   UNL     1       3.030   2.834  19.784  0.00  0.00    +0.000 OA
ATOM     26  C   UNL     1       3.381   2.585  18.644  0.00  0.00    +0.000 C 
BRANCH  26  27
ATOM     27  O   UNL     1       3.925   1.400  18.267  0.00  0.00    +0.000 OA
ATOM     28  H   UNL     1       3.961   0.815  19.047  0.00  0.00    +0.000 HD
ENDBRANCH  26  27
ENDBRANCH  24  26
ENDBRANCH  16  24
ENDBRANCH   1  16
TORSDOF 7
ENDMDL
MODEL 5
REMARK VINA RESULT:      -7.4      4.084      8.414
REMARK  Name = 
REMARK  7 active torsions:
REMARK  status: ('A' for Active; 'I' for Inactive)
REMARK    1  A    between atoms: C_2  and  O_3
REMARK    2  A    between atoms: C_2  and  C_4
REMARK    3  A    between atoms: C_4  and  C_5
REMARK    4  A    between atoms: C_5  and  N_6
REMARK    5  A    between atoms: C_5  and  C_20
REMARK    6  A    between atoms: C_7  and  C_9
REMARK    7  A    between atoms: C_13  and  N_14
REMARK                            x       y       z     vdW  Elec       q    Type
REMARK                         _______ _______ _______ _____ _____    ______ ____
ROOT
ATOM      1  N   UNL     1       2.688   6.292  18.665  0.00  0.00    +0.000 N 
ATOM      2  C   UNL     1       2.473   7.615  18.355  0.00  0.00    +0.000 C 
ATOM      3  O   UNL     1       2.843   8.142  17.297  0.00  0.00    +0.000 OA
ATOM      4  H   UNL     1       2.366   5.926  19.554  0.00  0.00    +0.000 HD
ENDROOT
BRANCH   2   5
ATOM      5  C   UNL     1       1.789   8.454  19.353  0.00  0.00    +0.000 A 
ATOM      6  C   UNL     1       1.529   7.917  20.605  0.00  0.00    +0.000 A 
ATOM      7  N   UNL     1       0.875   8.581  21.578  0.00  0.00    +0.000 NA
ATOM      8  C   UNL     1       0.446   9.834  21.263  0.00  0.00    +0.000 A 
ATOM      9  C   UNL     1       0.632  10.490  20.037  0.00  0.00    +0.000 A 
ATOM     10  C   UNL     1       1.323   9.744  19.072  0.00  0.00    +0.000 A 
BRANCH   9  11
ATOM     11  N   UNL     1       0.146  11.758  19.802  0.00  0.00    +0.000 N 
ATOM     12  C   UNL     1      -1.056  12.078  19.039  0.00  0.00    +0.000 C 
ATOM     13  C   UNL     1      -0.639  13.295  18.225  0.00  0.00    +0.000 C 
ATOM     14  C   UNL     1       0.292  14.041  19.165  0.00  0.00    +0.000 C 
ATOM     15  C   UNL     1       1.013  12.935  19.931  0.00  0.00    +0.000 C 
ENDBRANCH   9  11
ENDBRANCH   2   5
BRANCH   1  16
ATOM     16  C   UNL     1       3.441   5.371  17.813  0.00  0.00    +0.000 C 
BRANCH  16  17
ATOM     17  C   UNL     1       4.957   5.595  17.949  0.00  0.00    +0.000 A 
ATOM     18  C   UNL     1       5.593   5.296  19.175  0.00  0.00    +0.000 A 
ATOM     19  C   UNL     1       6.962   5.512  19.395  0.00  0.00    +0.000 A 
ATOM     20  C   UNL     1       7.729   6.044  18.371  0.00  0.00    +0.000 A 
ATOM     21  C   UNL     1       7.137   6.338  17.143  0.00  0.00    +0.000 A 
ATOM     22  C   UNL     1       5.764   6.117  16.926  0.00  0.00    +0.000 A 
ATOM     23 CL   UNL     1       5.140   6.497  15.362  0.00  0.00    +0.000 Cl
ENDBRANCH  16  17
BRANCH  16  24
ATOM     24  C   UNL     1       3.092   3.894  18.059  0.00  0.00    +0.000 C 
BRANCH  24  26
ATOM     25  O   UNL     1       1.081   2.920  19.047  0.00  0.00    +0.000 OA
ATOM     26  C   UNL     1       1.646   3.551  18.172  0.00  0.00    +0.000 C 
BRANCH  26  27
ATOM     27  O   UNL     1       0.993   4.235  17.197  0.00  0.00    +0.000 OA
ATOM     28  H   UNL     1       1.292   3.899  16.331  0.00  0.00    +0.000 HD
ENDBRANCH  26  27
ENDBRANCH  24  26
ENDBRANCH  16  24
ENDBRANCH   1  16
TORSDOF 7
ENDMDL
MODEL 6
REMARK VINA RESULT:      -7.3      4.249      8.490
REMARK  Name = 
REMARK  7 active torsions:
REMARK  status: ('A' for Active; 'I' for Inactive)
REMARK    1  A    between atoms: C_2  and  O_3
REMARK    2  A    between atoms: C_2  and  C_4
REMARK    3  A    between atoms: C_4  and  C_5
REMARK    4  A    between atoms: C_5  and  N_6
REMARK    5  A    between atoms: C_5  and  C_20
REMARK    6  A    between atoms: C_7  and  C_9
REMARK    7  A    between atoms: C_13  and  N_14
REMARK                            x       y       z     vdW  Elec       q    Type
REMARK                         _______ _______ _______ _____ _____    ______ ____
ROOT
ATOM      1  N   UNL     1       3.605   6.349  19.623  0.00  0.00    +0.000 N 
ATOM      2  C   UNL     1       2.741   6.800  18.653  0.00  0.00    +0.000 C 
ATOM      3  O   UNL     1       2.498   6.182  17.607  0.00  0.00    +0.000 OA
ATOM      4  H   UNL     1       3.766   6.911  20.452  0.00  0.00    +0.000 HD
ENDROOT
BRANCH   2   5
ATOM      5  C   UNL     1       2.093   8.106  18.859  0.00  0.00    +0.000 A 
ATOM      6  C   UNL     1       2.054   9.002  17.802  0.00  0.00    +0.000 A 
ATOM      7  N   UNL     1       1.523  10.237  17.892  0.00  0.00    +0.000 NA
ATOM      8  C   UNL     1       1.031  10.589  19.112  0.00  0.00    +0.000 A 
ATOM      9  C   UNL     1       1.018   9.787  20.263  0.00  0.00    +0.000 A 
ATOM     10  C   UNL     1       1.581   8.514  20.097  0.00  0.00    +0.000 A 
BRANCH   9  11
ATOM     11  N   UNL     1       0.512  10.236  21.464  0.00  0.00    +0.000 N 
ATOM     12  C   UNL     1       0.484   9.476  22.710  0.00  0.00    +0.000 C 
ATOM     13  C   UNL     1      -0.887   9.802  23.286  0.00  0.00    +0.000 C 
ATOM     14  C   UNL     1      -1.100  11.250  22.882  0.00  0.00    +0.000 C 
ATOM     15  C   UNL     1      -0.433  11.357  21.513  0.00  0.00    +0.000 C 
ENDBRANCH   9  11
ENDBRANCH   2   5
BRANCH   1  16
ATOM     16  C   UNL     1       4.392   5.122  19.503  0.00  0.00    +0.000 C 
BRANCH  16  17
ATOM     17  C   UNL     1       3.493   3.904  19.228  0.00  0.00    +0.000 A 
ATOM     18  C   UNL     1       3.659   3.180  18.025  0.00  0.00    +0.000 A 
ATOM     19  C   UNL     1       2.852   2.086  17.678  0.00  0.00    +0.000 A 
ATOM     20  C   UNL     1       1.847   1.693  18.547  0.00  0.00    +0.000 A 
ATOM     21  C   UNL     1       1.664   2.376  19.748  0.00  0.00    +0.000 A 
ATOM     22  C   UNL     1       2.477   3.472  20.094  0.00  0.00    +0.000 A 
ATOM     23 CL   UNL     1       2.176   4.231  21.615  0.00  0.00    +0.000 Cl
ENDBRANCH  16  17
BRANCH  16  24
ATOM     24  C   UNL     1       5.506   5.217  18.448  0.00  0.00    +0.000 C 
BRANCH  24  26
ATOM     25  O   UNL     1       7.390   5.488  19.980  0.00  0.00    +0.000 OA
ATOM     26  C   UNL     1       6.910   5.091  18.934  0.00  0.00    +0.000 C 
BRANCH  26  27
ATOM     27  O   UNL     1       7.562   4.269  18.071  0.00  0.00    +0.000 OA
ATOM     28  H   UNL     1       6.897   3.771  17.558  0.00  0.00    +0.000 HD
ENDBRANCH  26  27
ENDBRANCH  24  26
ENDBRANCH  16  24
ENDBRANCH   1  16
TORSDOF 7
ENDMDL
MODEL 7
REMARK VINA RESULT:      -7.3      3.674      8.165
REMARK  Name = 
REMARK  7 active torsions:
REMARK  status: ('A' for Active; 'I' for Inactive)
REMARK    1  A    between atoms: C_2  and  O_3
REMARK    2  A    between atoms: C_2  and  C_4
REMARK    3  A    between atoms: C_4  and  C_5
REMARK    4  A    between atoms: C_5  and  N_6
REMARK    5  A    between atoms: C_5  and  C_20
REMARK    6  A    between atoms: C_7  and  C_9
REMARK    7  A    between atoms: C_13  and  N_14
REMARK                            x       y       z     vdW  Elec       q    Type
REMARK                         _______ _______ _______ _____ _____    ______ ____
ROOT
ATOM      1  N   UNL     1       2.842   5.673  18.224  0.00  0.00    +0.000 N 
ATOM      2  C   UNL     1       2.906   7.034  18.033  0.00  0.00    +0.000 C 
ATOM      3  O   UNL     1       3.581   7.573  17.145  0.00  0.00    +0.000 OA
ATOM      4  H   UNL     1       2.276   5.299  18.977  0.00  0.00    +0.000 HD
ENDROOT
BRANCH   2   5
ATOM      5  C   UNL     1       2.151   7.896  18.957  0.00  0.00    +0.000 A 
ATOM      6  C   UNL     1       1.944   7.456  20.256  0.00  0.00    +0.000 A 
ATOM      7  N   UNL     1       1.235   8.144  21.171  0.00  0.00    +0.000 NA
ATOM      8  C   UNL     1       0.691   9.318  20.748  0.00  0.00    +0.000 A 
ATOM      9  C   UNL     1       0.812   9.872  19.464  0.00  0.00    +0.000 A 
ATOM     10  C   UNL     1       1.566   9.106  18.564  0.00  0.00    +0.000 A 
BRANCH   9  11
ATOM     11  N   UNL     1       0.210  11.063  19.119  0.00  0.00    +0.000 N 
ATOM     12  C   UNL     1       0.906  12.305  18.799  0.00  0.00    +0.000 C 
ATOM     13  C   UNL     1       0.064  13.366  19.492  0.00  0.00    +0.000 C 
ATOM     14  C   UNL     1      -1.352  12.837  19.348  0.00  0.00    +0.000 C 
ATOM     15  C   UNL     1      -1.196  11.322  19.451  0.00  0.00    +0.000 C 
ENDBRANCH   9  11
ENDBRANCH   2   5
BRANCH   1  16
ATOM     16  C   UNL     1       3.618   4.708  17.447  0.00  0.00    +0.000 C 
BRANCH  16  17
ATOM     17  C   UNL     1       5.120   4.806  17.770  0.00  0.00    +0.000 A 
ATOM     18  C   UNL     1       5.524   5.237  19.054  0.00  0.00    +0.000 A 
ATOM     19  C   UNL     1       6.871   5.396  19.414  0.00  0.00    +0.000 A 
ATOM     20  C   UNL     1       7.852   5.121  18.475  0.00  0.00    +0.000 A 
ATOM     21  C   UNL     1       7.490   4.681  17.203  0.00  0.00    +0.000 A 
ATOM     22  C   UNL     1       6.138   4.521  16.846  0.00  0.00    +0.000 A 
ATOM     23 CL   UNL     1       5.803   3.950  15.251  0.00  0.00    +0.000 Cl
ENDBRANCH  16  17
BRANCH  16  24
ATOM     24  C   UNL     1       3.127   3.260  17.612  0.00  0.00    +0.000 C 
BRANCH  24  26
ATOM     25  O   UNL     1       2.344   2.948  19.905  0.00  0.00    +0.000 OA
ATOM     26  C   UNL     1       2.147   3.000  18.704  0.00  0.00    +0.000 C 
BRANCH  26  27
ATOM     27  O   UNL     1       0.910   3.007  18.145  0.00  0.00    +0.000 OA
ATOM     28  H   UNL     1       0.866   3.742  17.504  0.00  0.00    +0.000 HD
ENDBRANCH  26  27
ENDBRANCH  24  26
ENDBRANCH  16  24
ENDBRANCH   1  16
TORSDOF 7
ENDMDL
MODEL 8
REMARK VINA RESULT:      -7.1      5.065      7.248
REMARK  Name = 
REMARK  7 active torsions:
REMARK  status: ('A' for Active; 'I' for Inactive)
REMARK    1  A    between atoms: C_2  and  O_3
REMARK    2  A    between atoms: C_2  and  C_4
REMARK    3  A    between atoms: C_4  and  C_5
REMARK    4  A    between atoms: C_5  and  N_6
REMARK    5  A    between atoms: C_5  and  C_20
REMARK    6  A    between atoms: C_7  and  C_9
REMARK    7  A    between atoms: C_13  and  N_14
REMARK                            x       y       z     vdW  Elec       q    Type
REMARK                         _______ _______ _______ _____ _____    ______ ____
ROOT
ATOM      1  N   UNL     1       1.090   9.337  19.434  0.00  0.00    +0.000 N 
ATOM      2  C   UNL     1       1.927   9.120  18.365  0.00  0.00    +0.000 C 
ATOM      3  O   UNL     1       2.209   9.987  17.525  0.00  0.00    +0.000 OA
ATOM      4  H   UNL     1       0.894   8.579  20.079  0.00  0.00    +0.000 HD
ENDROOT
BRANCH   2   5
ATOM      5  C   UNL     1       2.494   7.772  18.195  0.00  0.00    +0.000 A 
ATOM      6  C   UNL     1       3.671   7.633  17.475  0.00  0.00    +0.000 A 
ATOM      7  N   UNL     1       4.254   6.444  17.225  0.00  0.00    +0.000 NA
ATOM      8  C   UNL     1       3.607   5.347  17.706  0.00  0.00    +0.000 A 
ATOM      9  C   UNL     1       2.409   5.345  18.437  0.00  0.00    +0.000 A 
ATOM     10  C   UNL     1       1.860   6.615  18.664  0.00  0.00    +0.000 A 
BRANCH   9  11
ATOM     11  N   UNL     1       1.815   4.180  18.870  0.00  0.00    +0.000 N 
ATOM     12  C   UNL     1       1.037   4.028  20.095  0.00  0.00    +0.000 C 
ATOM     13  C   UNL     1       1.495   2.681  20.635  0.00  0.00    +0.000 C 
ATOM     14  C   UNL     1       1.729   1.862  19.378  0.00  0.00    +0.000 C 
ATOM     15  C   UNL     1       2.258   2.875  18.366  0.00  0.00    +0.000 C 
ENDBRANCH   9  11
ENDBRANCH   2   5
BRANCH   1  16
ATOM     16  C   UNL     1       0.379  10.594  19.667  0.00  0.00    +0.000 C 
BRANCH  16  17
ATOM     17  C   UNL     1      -0.855  10.717  18.757  0.00  0.00    +0.000 A 
ATOM     18  C   UNL     1      -1.667   9.581  18.536  0.00  0.00    +0.000 A 
ATOM     19  C   UNL     1      -2.784   9.597  17.686  0.00  0.00    +0.000 A 
ATOM     20  C   UNL     1      -3.109  10.773  17.030  0.00  0.00    +0.000 A 
ATOM     21  C   UNL     1      -2.338  11.916  17.235  0.00  0.00    +0.000 A 
ATOM     22  C   UNL     1      -1.220  11.897  18.090  0.00  0.00    +0.000 A 
ATOM     23 CL   UNL     1      -0.349  13.374  18.287  0.00  0.00    +0.000 Cl
ENDBRANCH  16  17
BRANCH  16  24
ATOM     24  C   UNL     1      -0.015  10.805  21.138  0.00  0.00    +0.000 C 
BRANCH  24  26
ATOM     25  O   UNL     1      -0.476   8.480  21.728  0.00  0.00    +0.000 OA
ATOM     26  C   UNL     1      -0.068   9.594  22.004  0.00  0.00    +0.000 C 
BRANCH  26  27
ATOM     27  O   UNL     1       0.606   9.886  23.146  0.00  0.00    +0.000 OA
ATOM     28  H   UNL     1       0.377   9.217  23.819  0.00  0.00    +0.000 HD
ENDBRANCH  26  27
ENDBRANCH  24  26
ENDBRANCH  16  24
ENDBRANCH   1  16
TORSDOF 7
ENDMDL
MODEL 9
REMARK VINA RESULT:      -7.0      3.930      8.532
REMARK  Name = 
REMARK  7 active torsions:
REMARK  status: ('A' for Active; 'I' for Inactive)
REMARK    1  A    between atoms: C_2  and  O_3
REMARK    2  A    between atoms: C_2  and  C_4
REMARK    3  A    between atoms: C_4  and  C_5
REMARK    4  A    between atoms: C_5  and  N_6
REMARK    5  A    between atoms: C_5  and  C_20
REMARK    6  A    between atoms: C_7  and  C_9
REMARK    7  A    between atoms: C_13  and  N_14
REMARK                            x       y       z     vdW  Elec       q    Type
REMARK                         _______ _______ _______ _____ _____    ______ ____
ROOT
ATOM      1  N   UNL     1       2.894   6.576  18.345  0.00  0.00    +0.000 N 
ATOM      2  C   UNL     1       2.482   7.875  18.162  0.00  0.00    +0.000 C 
ATOM      3  O   UNL     1       2.804   8.568  17.187  0.00  0.00    +0.000 OA
ATOM      4  H   UNL     1       2.601   6.068  19.173  0.00  0.00    +0.000 HD
ENDROOT
BRANCH   2   5
ATOM      5  C   UNL     1       1.636   8.483  19.202  0.00  0.00    +0.000 A 
ATOM      6  C   UNL     1       1.616   7.905  20.463  0.00  0.00    +0.000 A 
ATOM      7  N   UNL     1       0.848   8.354  21.475  0.00  0.00    +0.000 NA
ATOM      8  C   UNL     1       0.049   9.419  21.193  0.00  0.00    +0.000 A 
ATOM      9  C   UNL     1      -0.037  10.089  19.963  0.00  0.00    +0.000 A 
ATOM     10  C   UNL     1       0.791   9.572  18.956  0.00  0.00    +0.000 A 
BRANCH   9  11
ATOM     11  N   UNL     1      -0.891  11.151  19.763  0.00  0.00    +0.000 N 
ATOM     12  C   UNL     1      -1.101  12.257  20.692  0.00  0.00    +0.000 C 
ATOM     13  C   UNL     1      -2.606  12.479  20.637  0.00  0.00    +0.000 C 
ATOM     14  C   UNL     1      -2.949  12.187  19.186  0.00  0.00    +0.000 C 
ATOM     15  C   UNL     1      -1.991  11.065  18.795  0.00  0.00    +0.000 C 
ENDBRANCH   9  11
ENDBRANCH   2   5
BRANCH   1  16
ATOM     16  C   UNL     1       3.817   5.883  17.447  0.00  0.00    +0.000 C 
BRANCH  16  17
ATOM     17  C   UNL     1       5.280   6.087  17.878  0.00  0.00    +0.000 A 
ATOM     18  C   UNL     1       6.078   7.031  17.190  0.00  0.00    +0.000 A 
ATOM     19  C   UNL     1       7.431   7.246  17.491  0.00  0.00    +0.000 A 
ATOM     20  C   UNL     1       8.018   6.504  18.504  0.00  0.00    +0.000 A 
ATOM     21  C   UNL     1       7.258   5.575  19.211  0.00  0.00    +0.000 A 
ATOM     22  C   UNL     1       5.899   5.363  18.908  0.00  0.00    +0.000 A 
ATOM     23 CL   UNL     1       5.047   4.203  19.861  0.00  0.00    +0.000 Cl
ENDBRANCH  16  17
BRANCH  16  24
ATOM     24  C   UNL     1       3.506   4.385  17.295  0.00  0.00    +0.000 C 
BRANCH  24  26
ATOM     25  O   UNL     1       1.063   4.367  17.282  0.00  0.00    +0.000 OA
ATOM     26  C   UNL     1       2.135   3.937  17.670  0.00  0.00    +0.000 C 
BRANCH  26  27
ATOM     27  O   UNL     1       2.269   2.804  18.406  0.00  0.00    +0.000 OA
ATOM     28  H   UNL     1       1.381   2.514  18.689  0.00  0.00    +0.000 HD
ENDBRANCH  26  27
ENDBRANCH  24  26
ENDBRANCH  16  24
ENDBRANCH   1  16
TORSDOF 7
ENDMDL
