MODEL 1
REMARK VINA RESULT:      -8.7      0.000      0.000
REMARK  Name = 
REMARK  5 active torsions:
REMARK  status: ('A' for Active; 'I' for Inactive)
REMARK    1  A    between atoms: N_1  and  C_2
REMARK    2  A    between atoms: C_2  and  C_3
REMARK    3  A    between atoms: C_3  and  C_4
REMARK    4  A    between atoms: C_10  and  C_11
REMARK    5  A    between atoms: C_11  and  C_12
REMARK                            x       y       z     vdW  Elec       q    Type
REMARK                         _______ _______ _______ _____ _____    ______ ____
ROOT
ATOM      1  C   UNL     1       3.170   4.382  18.164  0.00  0.00    +0.000 C 
ATOM      2  O   UNL     1       3.403   4.118  16.974  0.00  0.00    +0.000 OA
ATOM      3  N   UNL     1       3.154   5.700  18.602  0.00  0.00    +0.000 N 
ATOM      4  C   UNL     1       2.944   6.145  19.979  0.00  0.00    +0.000 C 
ATOM      5  C   UNL     1       1.923   7.266  20.086  0.00  0.00    +0.000 C 
ATOM      6  N   UNL     1       2.053   8.207  18.997  0.00  0.00    +0.000 N 
ATOM      7  C   UNL     1       1.315   9.328  18.737  0.00  0.00    +0.000 A 
ATOM      8  N   UNL     1       1.809   9.898  17.648  0.00  0.00    +0.000 NA
ATOM      9  N   UNL     1       2.779   9.066  17.138  0.00  0.00    +0.000 NA
ATOM     10  C   UNL     1       2.873   8.006  17.917  0.00  0.00    +0.000 A 
ATOM     11  C   UNL     1       3.687   6.765  17.731  0.00  0.00    +0.000 C 
ENDROOT
BRANCH   1  12
ATOM     12  C   UNL     1       2.988   3.233  19.214  0.00  0.00    +0.000 C 
ATOM     13  C   UNL     1       2.171   2.062  18.620  0.00  0.00    +0.000 C 
ATOM     14  C   UNL     1       0.711   2.402  18.894  0.00  0.00    +0.000 C 
ATOM     15  C   UNL     1       0.701   3.166  20.200  0.00  0.00    +0.000 C 
ATOM     16  C   UNL     1       2.128   3.633  20.441  0.00  0.00    +0.000 C 
BRANCH  12  17
ATOM     17  C   UNL     1       4.429   2.762  19.601  0.00  0.00    +0.000 C 
BRANCH  17  18
ATOM     18  N   UNL     1       5.512   3.559  19.039  0.00  0.00    +0.000 NA
ATOM     19  H   UNL     1       5.329   4.548  19.210  0.00  0.00    +0.000 HD
ATOM     20  H   UNL     1       5.533   3.449  18.027  0.00  0.00    +0.000 HD
ENDBRANCH  17  18
ENDBRANCH  12  17
ENDBRANCH   1  12
BRANCH   7  21
ATOM     21  C   UNL     1       0.112   9.794  19.513  0.00  0.00    +0.000 C 
BRANCH  21  22
ATOM     22  C   UNL     1      -1.030  10.305  18.659  0.00  0.00    +0.000 A 
ATOM     23  C   UNL     1      -1.816  11.386  19.091  0.00  0.00    +0.000 A 
ATOM     24  C   UNL     1      -2.993  11.731  18.411  0.00  0.00    +0.000 A 
ATOM     25  C   UNL     1      -3.362  11.046  17.250  0.00  0.00    +0.000 A 
ATOM     26  C   UNL     1      -2.516  10.055  16.770  0.00  0.00    +0.000 A 
ATOM     27  F   UNL     1      -2.836   9.416  15.634  0.00  0.00    +0.000 F 
ATOM     28  C   UNL     1      -1.351   9.687  17.442  0.00  0.00    +0.000 A 
ENDBRANCH  21  22
ENDBRANCH   7  21
TORSDOF 5
ENDMDL
MODEL 2
REMARK VINA RESULT:      -8.2      2.107      3.653
REMARK  Name = 
REMARK  5 active torsions:
REMARK  status: ('A' for Active; 'I' for Inactive)
REMARK    1  A    between atoms: N_1  and  C_2
REMARK    2  A    between atoms: C_2  and  C_3
REMARK    3  A    between atoms: C_3  and  C_4
REMARK    4  A    between atoms: C_10  and  C_11
REMARK    5  A    between atoms: C_11  and  C_12
REMARK                            x       y       z     vdW  Elec       q    Type
REMARK                         _______ _______ _______ _____ _____    ______ ____
ROOT
ATOM      1  C   UNL     1       5.087   5.513  18.917  0.00  0.00    +0.000 C 
ATOM      2  O   UNL     1       5.461   4.902  19.930  0.00  0.00    +0.000 OA
ATOM      3  N   UNL     1       3.811   6.061  18.858  0.00  0.00    +0.000 N 
ATOM      4  C   UNL     1       3.229   6.759  17.713  0.00  0.00    +0.000 C 
ATOM      5  C   UNL     1       2.566   8.071  18.099  0.00  0.00    +0.000 C 
ATOM      6  N   UNL     1       1.864   7.962  19.357  0.00  0.00    +0.000 N 
ATOM      7  C   UNL     1       1.166   8.919  20.037  0.00  0.00    +0.000 A 
ATOM      8  N   UNL     1       0.666   8.361  21.130  0.00  0.00    +0.000 NA
ATOM      9  N   UNL     1       1.159   7.079  21.213  0.00  0.00    +0.000 NA
ATOM     10  C   UNL     1       1.944   6.864  20.175  0.00  0.00    +0.000 A 
ATOM     11  C   UNL     1       2.807   5.682  19.870  0.00  0.00    +0.000 C 
ENDROOT
BRANCH   1  12
ATOM     12  C   UNL     1       6.005   5.595  17.650  0.00  0.00    +0.000 C 
ATOM     13  C   UNL     1       7.487   5.355  18.022  0.00  0.00    +0.000 C 
ATOM     14  C   UNL     1       8.044   6.726  18.384  0.00  0.00    +0.000 C 
ATOM     15  C   UNL     1       7.299   7.719  17.518  0.00  0.00    +0.000 C 
ATOM     16  C   UNL     1       6.061   7.003  17.003  0.00  0.00    +0.000 C 
BRANCH  12  17
ATOM     17  C   UNL     1       5.494   4.488  16.669  0.00  0.00    +0.000 C 
BRANCH  17  18
ATOM     18  N   UNL     1       5.068   3.247  17.304  0.00  0.00    +0.000 NA
ATOM     19  H   UNL     1       4.263   3.432  17.903  0.00  0.00    +0.000 HD
ATOM     20  H   UNL     1       5.802   2.904  17.921  0.00  0.00    +0.000 HD
ENDBRANCH  17  18
ENDBRANCH  12  17
ENDBRANCH   1  12
BRANCH   7  21
ATOM     21  C   UNL     1       1.042  10.368  19.647  0.00  0.00    +0.000 C 
BRANCH  21  22
ATOM     22  C   UNL     1      -0.264  10.730  18.969  0.00  0.00    +0.000 A 
ATOM     23  C   UNL     1      -1.088  11.737  19.498  0.00  0.00    +0.000 A 
ATOM     24  C   UNL     1      -2.383  11.935  19.000  0.00  0.00    +0.000 A 
ATOM     25  C   UNL     1      -2.847  11.177  17.921  0.00  0.00    +0.000 A 
ATOM     26  C   UNL     1      -1.981  10.264  17.334  0.00  0.00    +0.000 A 
ATOM     27  F   UNL     1      -2.398   9.558  16.272  0.00  0.00    +0.000 F 
ATOM     28  C   UNL     1      -0.695  10.042  17.826  0.00  0.00    +0.000 A 
ENDBRANCH  21  22
ENDBRANCH   7  21
TORSDOF 5
ENDMDL
MODEL 3
REMARK VINA RESULT:      -8.1      2.322      3.620
REMARK  Name = 
REMARK  5 active torsions:
REMARK  status: ('A' for Active; 'I' for Inactive)
REMARK    1  A    between atoms: N_1  and  C_2
REMARK    2  A    between atoms: C_2  and  C_3
REMARK    3  A    between atoms: C_3  and  C_4
REMARK    4  A    between atoms: C_10  and  C_11
REMARK    5  A    between atoms: C_11  and  C_12
REMARK                            x       y       z     vdW  Elec       q    Type
REMARK                         _______ _______ _______ _____ _____    ______ ____
ROOT
ATOM      1  C   UNL     1       5.539   5.554  18.440  0.00  0.00    +0.000 C 
ATOM      2  O   UNL     1       5.937   4.836  19.371  0.00  0.00    +0.000 OA
ATOM      3  N   UNL     1       4.241   6.049  18.440  0.00  0.00    +0.000 N 
ATOM      4  C   UNL     1       3.631   6.860  17.388  0.00  0.00    +0.000 C 
ATOM      5  C   UNL     1       2.909   8.083  17.930  0.00  0.00    +0.000 C 
ATOM      6  N   UNL     1       2.209   7.784  19.158  0.00  0.00    +0.000 N 
ATOM      7  C   UNL     1       1.467   8.616  19.948  0.00  0.00    +0.000 A 
ATOM      8  N   UNL     1       0.989   7.903  20.957  0.00  0.00    +0.000 NA
ATOM      9  N   UNL     1       1.538   6.643  20.881  0.00  0.00    +0.000 NA
ATOM     10  C   UNL     1       2.336   6.596  19.832  0.00  0.00    +0.000 A 
ATOM     11  C   UNL     1       3.251   5.501  19.387  0.00  0.00    +0.000 C 
ENDROOT
BRANCH   1  12
ATOM     12  C   UNL     1       6.456   5.836  17.202  0.00  0.00    +0.000 C 
ATOM     13  C   UNL     1       5.612   6.060  15.925  0.00  0.00    +0.000 C 
ATOM     14  C   UNL     1       5.404   4.675  15.324  0.00  0.00    +0.000 C 
ATOM     15  C   UNL     1       6.648   3.883  15.666  0.00  0.00    +0.000 C 
ATOM     16  C   UNL     1       7.345   4.633  16.791  0.00  0.00    +0.000 C 
BRANCH  12  17
ATOM     17  C   UNL     1       7.282   7.118  17.552  0.00  0.00    +0.000 C 
BRANCH  17  18
ATOM     18  N   UNL     1       8.170   6.988  18.700  0.00  0.00    +0.000 NA
ATOM     19  H   UNL     1       8.294   7.902  19.137  0.00  0.00    +0.000 HD
ATOM     20  H   UNL     1       9.096   6.699  18.390  0.00  0.00    +0.000 HD
ENDBRANCH  17  18
ENDBRANCH  12  17
ENDBRANCH   1  12
BRANCH   7  21
ATOM     21  C   UNL     1       1.280  10.096  19.744  0.00  0.00    +0.000 C 
BRANCH  21  22
ATOM     22  C   UNL     1      -0.040  10.484  19.109  0.00  0.00    +0.000 A 
ATOM     23  C   UNL     1      -0.891  11.407  19.739  0.00  0.00    +0.000 A 
ATOM     24  C   UNL     1      -2.195  11.614  19.268  0.00  0.00    +0.000 A 
ATOM     25  C   UNL     1      -2.642  10.955  18.119  0.00  0.00    +0.000 A 
ATOM     26  C   UNL     1      -1.752  10.133  17.440  0.00  0.00    +0.000 A 
ATOM     27  F   UNL     1      -2.153   9.525  16.313  0.00  0.00    +0.000 F 
ATOM     28  C   UNL     1      -0.457   9.902  17.903  0.00  0.00    +0.000 A 
ENDBRANCH  21  22
ENDBRANCH   7  21
TORSDOF 5
ENDMDL
MODEL 4
REMARK VINA RESULT:      -8.1      2.403      3.959
REMARK  Name = 
REMARK  5 active torsions:
REMARK  status: ('A' for Active; 'I' for Inactive)
REMARK    1  A    between atoms: N_1  and  C_2
REMARK    2  A    between atoms: C_2  and  C_3
REMARK    3  A    between atoms: C_3  and  C_4
REMARK    4  A    between atoms: C_10  and  C_11
REMARK    5  A    between atoms: C_11  and  C_12
REMARK                            x       y       z     vdW  Elec       q    Type
REMARK                         _______ _______ _______ _____ _____    ______ ____
ROOT
ATOM      1  C   UNL     1       5.158   5.446  18.898  0.00  0.00    +0.000 C 
ATOM      2  O   UNL     1       5.536   4.806  19.892  0.00  0.00    +0.000 OA
ATOM      3  N   UNL     1       3.874   5.975  18.850  0.00  0.00    +0.000 N 
ATOM      4  C   UNL     1       3.288   6.704  17.725  0.00  0.00    +0.000 C 
ATOM      5  C   UNL     1       2.601   7.991  18.151  0.00  0.00    +0.000 C 
ATOM      6  N   UNL     1       1.893   7.827  19.400  0.00  0.00    +0.000 N 
ATOM      7  C   UNL     1       1.175   8.749  20.108  0.00  0.00    +0.000 A 
ATOM      8  N   UNL     1       0.677   8.145  21.177  0.00  0.00    +0.000 NA
ATOM      9  N   UNL     1       1.191   6.868  21.219  0.00  0.00    +0.000 NA
ATOM     10  C   UNL     1       1.986   6.703  20.180  0.00  0.00    +0.000 A 
ATOM     11  C   UNL     1       2.869   5.545  19.840  0.00  0.00    +0.000 C 
ENDROOT
BRANCH   1  12
ATOM     12  C   UNL     1       6.083   5.586  17.641  0.00  0.00    +0.000 C 
ATOM     13  C   UNL     1       7.565   5.351  18.013  0.00  0.00    +0.000 C 
ATOM     14  C   UNL     1       8.104   6.714  18.431  0.00  0.00    +0.000 C 
ATOM     15  C   UNL     1       7.352   7.730  17.598  0.00  0.00    +0.000 C 
ATOM     16  C   UNL     1       6.125   7.019  17.048  0.00  0.00    +0.000 C 
BRANCH  12  17
ATOM     17  C   UNL     1       5.592   4.511  16.616  0.00  0.00    +0.000 C 
BRANCH  17  18
ATOM     18  N   UNL     1       5.150   3.252  17.203  0.00  0.00    +0.000 NA
ATOM     19  H   UNL     1       4.153   3.307  17.410  0.00  0.00    +0.000 HD
ATOM     20  H   UNL     1       5.614   3.107  18.099  0.00  0.00    +0.000 HD
ENDBRANCH  17  18
ENDBRANCH  12  17
ENDBRANCH   1  12
BRANCH   7  21
ATOM     21  C   UNL     1       1.031  10.208  19.768  0.00  0.00    +0.000 C 
BRANCH  21  22
ATOM     22  C   UNL     1      -0.326  10.596  19.214  0.00  0.00    +0.000 A 
ATOM     23  C   UNL     1      -0.783  10.054  18.002  0.00  0.00    +0.000 A 
ATOM     24  C   UNL     1      -1.936  10.558  17.383  0.00  0.00    +0.000 A 
ATOM     25  C   UNL     1      -2.686  11.562  18.003  0.00  0.00    +0.000 A 
ATOM     26  C   UNL     1      -2.285  12.009  19.255  0.00  0.00    +0.000 A 
ATOM     27  F   UNL     1      -3.018  12.943  19.881  0.00  0.00    +0.000 F 
ATOM     28  C   UNL     1      -1.133  11.531  19.878  0.00  0.00    +0.000 A 
ENDBRANCH  21  22
ENDBRANCH   7  21
TORSDOF 5
ENDMDL
MODEL 5
REMARK VINA RESULT:      -8.1      5.231      7.490
REMARK  Name = 
REMARK  5 active torsions:
REMARK  status: ('A' for Active; 'I' for Inactive)
REMARK    1  A    between atoms: N_1  and  C_2
REMARK    2  A    between atoms: C_2  and  C_3
REMARK    3  A    between atoms: C_3  and  C_4
REMARK    4  A    between atoms: C_10  and  C_11
REMARK    5  A    between atoms: C_11  and  C_12
REMARK                            x       y       z     vdW  Elec       q    Type
REMARK                         _______ _______ _______ _____ _____    ______ ____
ROOT
ATOM      1  C   UNL     1       3.683   4.200  19.621  0.00  0.00    +0.000 C 
ATOM      2  O   UNL     1       3.895   5.121  20.426  0.00  0.00    +0.000 OA
ATOM      3  N   UNL     1       3.752   4.433  18.253  0.00  0.00    +0.000 N 
ATOM      4  C   UNL     1       3.478   3.456  17.201  0.00  0.00    +0.000 C 
ATOM      5  C   UNL     1       4.551   3.431  16.125  0.00  0.00    +0.000 C 
ATOM      6  N   UNL     1       5.025   4.762  15.819  0.00  0.00    +0.000 N 
ATOM      7  C   UNL     1       5.988   5.147  14.928  0.00  0.00    +0.000 A 
ATOM      8  N   UNL     1       6.069   6.468  14.962  0.00  0.00    +0.000 NA
ATOM      9  N   UNL     1       5.250   6.917  15.973  0.00  0.00    +0.000 NA
ATOM     10  C   UNL     1       4.675   5.874  16.540  0.00  0.00    +0.000 A 
ATOM     11  C   UNL     1       3.799   5.819  17.750  0.00  0.00    +0.000 C 
ENDROOT
BRANCH   1  12
ATOM     12  C   UNL     1       3.235   2.786  20.127  0.00  0.00    +0.000 C 
ATOM     13  C   UNL     1       2.012   2.273  19.330  0.00  0.00    +0.000 C 
ATOM     14  C   UNL     1       0.791   2.808  20.067  0.00  0.00    +0.000 C 
ATOM     15  C   UNL     1       1.178   2.858  21.530  0.00  0.00    +0.000 C 
ATOM     16  C   UNL     1       2.695   2.779  21.581  0.00  0.00    +0.000 C 
BRANCH  12  17
ATOM     17  C   UNL     1       4.465   1.840  19.924  0.00  0.00    +0.000 C 
BRANCH  17  18
ATOM     18  N   UNL     1       5.270   1.607  21.116  0.00  0.00    +0.000 NA
ATOM     19  H   UNL     1       4.661   1.336  21.888  0.00  0.00    +0.000 HD
ATOM     20  H   UNL     1       5.718   2.475  21.405  0.00  0.00    +0.000 HD
ENDBRANCH  17  18
ENDBRANCH  12  17
ENDBRANCH   1  12
BRANCH   7  21
ATOM     21  C   UNL     1       6.848   4.227  14.104  0.00  0.00    +0.000 C 
BRANCH  21  22
ATOM     22  C   UNL     1       6.145   3.601  12.916  0.00  0.00    +0.000 A 
ATOM     23  C   UNL     1       4.889   4.072  12.501  0.00  0.00    +0.000 A 
ATOM     24  C   UNL     1       4.144   3.371  11.541  0.00  0.00    +0.000 A 
ATOM     25  C   UNL     1       4.675   2.231  10.932  0.00  0.00    +0.000 A 
ATOM     26  C   UNL     1       5.965   1.842  11.269  0.00  0.00    +0.000 A 
ATOM     27  F   UNL     1       6.504   0.773  10.664  0.00  0.00    +0.000 F 
ATOM     28  C   UNL     1       6.714   2.516  12.233  0.00  0.00    +0.000 A 
ENDBRANCH  21  22
ENDBRANCH   7  21
TORSDOF 5
ENDMDL
MODEL 6
REMARK VINA RESULT:      -8.1      2.532      3.884
REMARK  Name = 
REMARK  5 active torsions:
REMARK  status: ('A' for Active; 'I' for Inactive)
REMARK    1  A    between atoms: N_1  and  C_2
REMARK    2  A    between atoms: C_2  and  C_3
REMARK    3  A    between atoms: C_3  and  C_4
REMARK    4  A    between atoms: C_10  and  C_11
REMARK    5  A    between atoms: C_11  and  C_12
REMARK                            x       y       z     vdW  Elec       q    Type
REMARK                         _______ _______ _______ _____ _____    ______ ____
ROOT
ATOM      1  C   UNL     1       5.552   5.566  18.430  0.00  0.00    +0.000 C 
ATOM      2  O   UNL     1       5.979   4.864  19.360  0.00  0.00    +0.000 OA
ATOM      3  N   UNL     1       4.241   6.028  18.443  0.00  0.00    +0.000 N 
ATOM      4  C   UNL     1       3.599   6.817  17.393  0.00  0.00    +0.000 C 
ATOM      5  C   UNL     1       2.853   8.025  17.937  0.00  0.00    +0.000 C 
ATOM      6  N   UNL     1       2.176   7.717  19.176  0.00  0.00    +0.000 N 
ATOM      7  C   UNL     1       1.424   8.536  19.970  0.00  0.00    +0.000 A 
ATOM      8  N   UNL     1       0.976   7.817  20.989  0.00  0.00    +0.000 NA
ATOM      9  N   UNL     1       1.556   6.571  20.915  0.00  0.00    +0.000 NA
ATOM     10  C   UNL     1       2.341   6.537  19.855  0.00  0.00    +0.000 A 
ATOM     11  C   UNL     1       3.277   5.462  19.406  0.00  0.00    +0.000 C 
ENDROOT
BRANCH   1  12
ATOM     12  C   UNL     1       6.446   5.862  17.178  0.00  0.00    +0.000 C 
ATOM     13  C   UNL     1       5.580   6.077  15.915  0.00  0.00    +0.000 C 
ATOM     14  C   UNL     1       5.380   4.691  15.314  0.00  0.00    +0.000 C 
ATOM     15  C   UNL     1       6.639   3.915  15.635  0.00  0.00    +0.000 C 
ATOM     16  C   UNL     1       7.344   4.672  16.750  0.00  0.00    +0.000 C 
BRANCH  12  17
ATOM     17  C   UNL     1       7.260   7.154  17.518  0.00  0.00    +0.000 C 
BRANCH  17  18
ATOM     18  N   UNL     1       8.147   7.042  18.669  0.00  0.00    +0.000 NA
ATOM     19  H   UNL     1       8.393   7.975  18.999  0.00  0.00    +0.000 HD
ATOM     20  H   UNL     1       9.024   6.605  18.389  0.00  0.00    +0.000 HD
ENDBRANCH  17  18
ENDBRANCH  12  17
ENDBRANCH   1  12
BRANCH   7  21
ATOM     21  C   UNL     1       1.198  10.009  19.758  0.00  0.00    +0.000 C 
BRANCH  21  22
ATOM     22  C   UNL     1      -0.155  10.363  19.174  0.00  0.00    +0.000 A 
ATOM     23  C   UNL     1      -0.579   9.795  17.961  0.00  0.00    +0.000 A 
ATOM     24  C   UNL     1      -1.729  10.268  17.314  0.00  0.00    +0.000 A 
ATOM     25  C   UNL     1      -2.510  11.266  17.905  0.00  0.00    +0.000 A 
ATOM     26  C   UNL     1      -2.142  11.737  19.158  0.00  0.00    +0.000 A 
ATOM     27  F   UNL     1      -2.905  12.665  19.756  0.00  0.00    +0.000 F 
ATOM     28  C   UNL     1      -0.993  11.291  19.809  0.00  0.00    +0.000 A 
ENDBRANCH  21  22
ENDBRANCH   7  21
TORSDOF 5
ENDMDL
MODEL 7
REMARK VINA RESULT:      -7.8      1.255      1.575
REMARK  Name = 
REMARK  5 active torsions:
REMARK  status: ('A' for Active; 'I' for Inactive)
REMARK    1  A    between atoms: N_1  and  C_2
REMARK    2  A    between atoms: C_2  and  C_3
REMARK    3  A    between atoms: C_3  and  C_4
REMARK    4  A    between atoms: C_10  and  C_11
REMARK    5  A    between atoms: C_11  and  C_12
REMARK                            x       y       z     vdW  Elec       q    Type
REMARK                         _______ _______ _______ _____ _____    ______ ____
ROOT
ATOM      1  C   UNL     1       3.045   4.529  18.108  0.00  0.00    +0.000 C 
ATOM      2  O   UNL     1       3.114   4.310  16.888  0.00  0.00    +0.000 OA
ATOM      3  N   UNL     1       3.072   5.831  18.591  0.00  0.00    +0.000 N 
ATOM      4  C   UNL     1       3.048   6.226  19.998  0.00  0.00    +0.000 C 
ATOM      5  C   UNL     1       2.037   7.324  20.285  0.00  0.00    +0.000 C 
ATOM      6  N   UNL     1       2.001   8.303  19.223  0.00  0.00    +0.000 N 
ATOM      7  C   UNL     1       1.218   9.417  19.108  0.00  0.00    +0.000 A 
ATOM      8  N   UNL     1       1.548  10.033  17.982  0.00  0.00    +0.000 NA
ATOM      9  N   UNL     1       2.450   9.236  17.313  0.00  0.00    +0.000 NA
ATOM     10  C   UNL     1       2.666   8.153  18.033  0.00  0.00    +0.000 A 
ATOM     11  C   UNL     1       3.463   6.934  17.693  0.00  0.00    +0.000 C 
ENDROOT
BRANCH   1  12
ATOM     12  C   UNL     1       3.026   3.342  19.132  0.00  0.00    +0.000 C 
ATOM     13  C   UNL     1       2.387   2.080  18.507  0.00  0.00    +0.000 C 
ATOM     14  C   UNL     1       0.893   2.201  18.780  0.00  0.00    +0.000 C 
ATOM     15  C   UNL     1       0.770   2.927  20.103  0.00  0.00    +0.000 C 
ATOM     16  C   UNL     1       2.115   3.587  20.362  0.00  0.00    +0.000 C 
BRANCH  12  17
ATOM     17  C   UNL     1       4.519   3.074  19.516  0.00  0.00    +0.000 C 
BRANCH  17  18
ATOM     18  N   UNL     1       4.859   1.674  19.737  0.00  0.00    +0.000 NA
ATOM     19  H   UNL     1       4.682   1.144  18.883  0.00  0.00    +0.000 HD
ATOM     20  H   UNL     1       4.243   1.276  20.445  0.00  0.00    +0.000 HD
ENDBRANCH  17  18
ENDBRANCH  12  17
ENDBRANCH   1  12
BRANCH   7  21
ATOM     21  C   UNL     1       0.129   9.834  20.059  0.00  0.00    +0.000 C 
BRANCH  21  22
ATOM     22  C   UNL     1      -1.116  10.385  19.391  0.00  0.00    +0.000 A 
ATOM     23  C   UNL     1      -1.572   9.845  18.178  0.00  0.00    +0.000 A 
ATOM     24  C   UNL     1      -2.593  10.477  17.454  0.00  0.00    +0.000 A 
ATOM     25  C   UNL     1      -3.219  11.617  17.967  0.00  0.00    +0.000 A 
ATOM     26  C   UNL     1      -2.836  12.073  19.221  0.00  0.00    +0.000 A 
ATOM     27  F   UNL     1      -3.456  13.142  19.744  0.00  0.00    +0.000 F 
ATOM     28  C   UNL     1      -1.811  11.468  19.948  0.00  0.00    +0.000 A 
ENDBRANCH  21  22
ENDBRANCH   7  21
TORSDOF 5
ENDMDL
MODEL 8
REMARK VINA RESULT:      -7.8      2.156      2.636
REMARK  Name = 
REMARK  5 active torsions:
REMARK  status: ('A' for Active; 'I' for Inactive)
REMARK    1  A    between atoms: N_1  and  C_2
REMARK    2  A    between atoms: C_2  and  C_3
REMARK    3  A    between atoms: C_3  and  C_4
REMARK    4  A    between atoms: C_10  and  C_11
REMARK    5  A    between atoms: C_11  and  C_12
REMARK                            x       y       z     vdW  Elec       q    Type
REMARK                         _______ _______ _______ _____ _____    ______ ____
ROOT
ATOM      1  C   UNL     1       3.038   4.512  18.222  0.00  0.00    +0.000 C 
ATOM      2  O   UNL     1       3.187   4.296  17.009  0.00  0.00    +0.000 OA
ATOM      3  N   UNL     1       3.010   5.814  18.705  0.00  0.00    +0.000 N 
ATOM      4  C   UNL     1       2.891   6.206  20.109  0.00  0.00    +0.000 C 
ATOM      5  C   UNL     1       1.843   7.284  20.333  0.00  0.00    +0.000 C 
ATOM      6  N   UNL     1       1.854   8.264  19.271  0.00  0.00    +0.000 N 
ATOM      7  C   UNL     1       1.058   9.363  19.107  0.00  0.00    +0.000 A 
ATOM      8  N   UNL     1       1.445   9.986  18.004  0.00  0.00    +0.000 NA
ATOM      9  N   UNL     1       2.402   9.208  17.392  0.00  0.00    +0.000 NA
ATOM     10  C   UNL     1       2.594   8.128  18.124  0.00  0.00    +0.000 A 
ATOM     11  C   UNL     1       3.434   6.926  17.834  0.00  0.00    +0.000 C 
ENDROOT
BRANCH   1  12
ATOM     12  C   UNL     1       2.979   3.324  19.242  0.00  0.00    +0.000 C 
ATOM     13  C   UNL     1       2.285   2.091  18.619  0.00  0.00    +0.000 C 
ATOM     14  C   UNL     1       0.799   2.271  18.903  0.00  0.00    +0.000 C 
ATOM     15  C   UNL     1       0.715   2.997  20.228  0.00  0.00    +0.000 C 
ATOM     16  C   UNL     1       2.087   3.602  20.480  0.00  0.00    +0.000 C 
BRANCH  12  17
ATOM     17  C   UNL     1       4.462   2.995  19.615  0.00  0.00    +0.000 C 
BRANCH  17  18
ATOM     18  N   UNL     1       5.465   3.539  18.708  0.00  0.00    +0.000 NA
ATOM     19  H   UNL     1       5.827   4.414  19.088  0.00  0.00    +0.000 HD
ATOM     20  H   UNL     1       5.030   3.781  17.818  0.00  0.00    +0.000 HD
ENDBRANCH  17  18
ENDBRANCH  12  17
ENDBRANCH   1  12
BRANCH   7  21
ATOM     21  C   UNL     1      -0.096   9.758  19.990  0.00  0.00    +0.000 C 
BRANCH  21  22
ATOM     22  C   UNL     1      -0.220  11.248  20.237  0.00  0.00    +0.000 A 
ATOM     23  C   UNL     1      -1.326  11.963  19.749  0.00  0.00    +0.000 A 
ATOM     24  C   UNL     1      -1.347  13.364  19.793  0.00  0.00    +0.000 A 
ATOM     25  C   UNL     1      -0.296  14.066  20.390  0.00  0.00    +0.000 A 
ATOM     26  C   UNL     1       0.737  13.342  20.971  0.00  0.00    +0.000 A 
ATOM     27  F   UNL     1       1.732  14.001  21.583  0.00  0.00    +0.000 F 
ATOM     28  C   UNL     1       0.784  11.949  20.921  0.00  0.00    +0.000 A 
ENDBRANCH  21  22
ENDBRANCH   7  21
TORSDOF 5
ENDMDL
MODEL 9
REMARK VINA RESULT:      -7.8      5.046      7.635
REMARK  Name = 
REMARK  5 active torsions:
REMARK  status: ('A' for Active; 'I' for Inactive)
REMARK    1  A    between atoms: N_1  and  C_2
REMARK    2  A    between atoms: C_2  and  C_3
REMARK    3  A    between atoms: C_3  and  C_4
REMARK    4  A    between atoms: C_10  and  C_11
REMARK    5  A    between atoms: C_11  and  C_12
REMARK                            x       y       z     vdW  Elec       q    Type
REMARK                         _______ _______ _______ _____ _____    ______ ____
ROOT
ATOM      1  C   UNL     1       3.947   3.098  19.234  0.00  0.00    +0.000 C 
ATOM      2  O   UNL     1       4.578   2.189  19.796  0.00  0.00    +0.000 OA
ATOM      3  N   UNL     1       4.617   4.062  18.490  0.00  0.00    +0.000 N 
ATOM      4  C   UNL     1       4.005   5.209  17.822  0.00  0.00    +0.000 C 
ATOM      5  C   UNL     1       4.474   5.374  16.386  0.00  0.00    +0.000 C 
ATOM      6  N   UNL     1       5.883   5.082  16.251  0.00  0.00    +0.000 N 
ATOM      7  C   UNL     1       6.660   5.101  15.128  0.00  0.00    +0.000 A 
ATOM      8  N   UNL     1       7.899   4.792  15.483  0.00  0.00    +0.000 NA
ATOM      9  N   UNL     1       7.882   4.445  16.815  0.00  0.00    +0.000 NA
ATOM     10  C   UNL     1       6.645   4.550  17.260  0.00  0.00    +0.000 A 
ATOM     11  C   UNL     1       6.084   4.175  18.594  0.00  0.00    +0.000 C 
ENDROOT
BRANCH   1  12
ATOM     12  C   UNL     1       2.399   3.237  19.434  0.00  0.00    +0.000 C 
ATOM     13  C   UNL     1       2.024   4.664  19.897  0.00  0.00    +0.000 C 
ATOM     14  C   UNL     1       2.112   4.636  21.418  0.00  0.00    +0.000 C 
ATOM     15  C   UNL     1       1.720   3.233  21.831  0.00  0.00    +0.000 C 
ATOM     16  C   UNL     1       1.833   2.367  20.586  0.00  0.00    +0.000 C 
BRANCH  12  17
ATOM     17  C   UNL     1       1.750   2.917  18.047  0.00  0.00    +0.000 C 
BRANCH  17  18
ATOM     18  N   UNL     1       2.346   1.798  17.327  0.00  0.00    +0.000 NA
ATOM     19  H   UNL     1       1.607   1.200  16.957  0.00  0.00    +0.000 HD
ATOM     20  H   UNL     1       2.880   1.217  17.972  0.00  0.00    +0.000 HD
ENDBRANCH  17  18
ENDBRANCH  12  17
ENDBRANCH   1  12
BRANCH   7  21
ATOM     21  C   UNL     1       6.180   5.361  13.724  0.00  0.00    +0.000 C 
BRANCH  21  22
ATOM     22  C   UNL     1       5.946   4.113  12.896  0.00  0.00    +0.000 A 
ATOM     23  C   UNL     1       7.010   3.249  12.592  0.00  0.00    +0.000 A 
ATOM     24  C   UNL     1       6.845   2.212  11.663  0.00  0.00    +0.000 A 
ATOM     25  C   UNL     1       5.596   1.981  11.079  0.00  0.00    +0.000 A 
ATOM     26  C   UNL     1       4.525   2.772  11.475  0.00  0.00    +0.000 A 
ATOM     27  F   UNL     1       3.312   2.537  10.953  0.00  0.00    +0.000 F 
ATOM     28  C   UNL     1       4.674   3.818  12.384  0.00  0.00    +0.000 A 
ENDBRANCH  21  22
ENDBRANCH   7  21
TORSDOF 5
ENDMDL
