MODEL 1
REMARK VINA RESULT:      -6.9      0.000      0.000
REMARK  Name = 
REMARK  3 active torsions:
REMARK  status: ('A' for Active; 'I' for Inactive)
REMARK    1  A    between atoms: C_2  and  C_3
REMARK    2  A    between atoms: C_3  and  C_4
REMARK    3  A    between atoms: C_5  and  O_6
REMARK                            x       y       z     vdW  Elec       q    Type
REMARK                         _______ _______ _______ _____ _____    ______ ____
ROOT
ATOM      1  C   UNL     1       6.654   5.616  17.503  0.00  0.00    +0.000 A 
ATOM      2  C   UNL     1       5.667   5.123  18.367  0.00  0.00    +0.000 A 
ATOM      3  C   UNL     1       4.694   4.225  17.921  0.00  0.00    +0.000 A 
ATOM      4  C   UNL     1       4.675   3.802  16.592  0.00  0.00    +0.000 A 
ATOM      5  C   UNL     1       5.632   4.284  15.701  0.00  0.00    +0.000 A 
ATOM      6  C   UNL     1       5.663   3.853  14.313  0.00  0.00    +0.000 A 
ATOM      7  C   UNL     1       6.605   4.325  13.492  0.00  0.00    +0.000 A 
ATOM      8  C   UNL     1       7.622   5.291  13.935  0.00  0.00    +0.000 A 
ATOM      9  O   UNL     1       8.468   5.715  13.159  0.00  0.00    +0.000 OA
ATOM     10  O   UNL     1       7.569   5.688  15.265  0.00  0.00    +0.000 OA
ATOM     11  C   UNL     1       6.597   5.185  16.164  0.00  0.00    +0.000 A 
ENDROOT
BRANCH   2  12
ATOM     12  O   UNL     1       5.588   5.463  19.688  0.00  0.00    +0.000 OA
ATOM     13  H   UNL     1       4.881   6.115  19.813  0.00  0.00    +0.000 HD
ENDBRANCH   2  12
BRANCH   1  14
ATOM     14  C   UNL     1       7.743   6.560  17.956  0.00  0.00    +0.000 C 
BRANCH  14  16
ATOM     15  C   UNL     1       8.244   9.029  17.945  0.00  0.00    +0.000 C 
ATOM     16  C   UNL     1       7.449   7.997  17.630  0.00  0.00    +0.000 C 
ENDBRANCH  14  16
ENDBRANCH   1  14
TORSDOF 3
ENDMDL
MODEL 2
REMARK VINA RESULT:      -6.7      2.030      4.870
REMARK  Name = 
REMARK  3 active torsions:
REMARK  status: ('A' for Active; 'I' for Inactive)
REMARK    1  A    between atoms: C_2  and  C_3
REMARK    2  A    between atoms: C_3  and  C_4
REMARK    3  A    between atoms: C_5  and  O_6
REMARK                            x       y       z     vdW  Elec       q    Type
REMARK                         _______ _______ _______ _____ _____    ______ ____
ROOT
ATOM      1  C   UNL     1       5.866   5.275  16.515  0.00  0.00    +0.000 A 
ATOM      2  C   UNL     1       6.923   6.001  17.078  0.00  0.00    +0.000 A 
ATOM      3  C   UNL     1       7.164   5.983  18.454  0.00  0.00    +0.000 A 
ATOM      4  C   UNL     1       6.345   5.245  19.308  0.00  0.00    +0.000 A 
ATOM      5  C   UNL     1       5.275   4.523  18.784  0.00  0.00    +0.000 A 
ATOM      6  C   UNL     1       4.410   3.722  19.635  0.00  0.00    +0.000 A 
ATOM      7  C   UNL     1       3.403   3.031  19.094  0.00  0.00    +0.000 A 
ATOM      8  C   UNL     1       3.116   3.057  17.652  0.00  0.00    +0.000 A 
ATOM      9  O   UNL     1       2.180   2.422  17.184  0.00  0.00    +0.000 OA
ATOM     10  O   UNL     1       3.956   3.831  16.862  0.00  0.00    +0.000 OA
ATOM     11  C   UNL     1       5.046   4.555  17.404  0.00  0.00    +0.000 A 
ENDROOT
BRANCH   2  12
ATOM     12  O   UNL     1       7.792   6.756  16.341  0.00  0.00    +0.000 OA
ATOM     13  H   UNL     1       7.391   6.963  15.483  0.00  0.00    +0.000 HD
ENDBRANCH   2  12
BRANCH   1  14
ATOM     14  C   UNL     1       5.595   5.241  15.029  0.00  0.00    +0.000 C 
BRANCH  14  16
ATOM     15  C   UNL     1       6.059   3.681  13.105  0.00  0.00    +0.000 C 
ATOM     16  C   UNL     1       6.370   4.171  14.313  0.00  0.00    +0.000 C 
ENDBRANCH  14  16
ENDBRANCH   1  14
TORSDOF 3
ENDMDL
MODEL 3
REMARK VINA RESULT:      -6.7      2.703      4.632
REMARK  Name = 
REMARK  3 active torsions:
REMARK  status: ('A' for Active; 'I' for Inactive)
REMARK    1  A    between atoms: C_2  and  C_3
REMARK    2  A    between atoms: C_3  and  C_4
REMARK    3  A    between atoms: C_5  and  O_6
REMARK                            x       y       z     vdW  Elec       q    Type
REMARK                         _______ _______ _______ _____ _____    ______ ____
ROOT
ATOM      1  C   UNL     1       3.870   4.383  19.103  0.00  0.00    +0.000 A 
ATOM      2  C   UNL     1       2.673   5.111  19.109  0.00  0.00    +0.000 A 
ATOM      3  C   UNL     1       2.567   6.340  18.456  0.00  0.00    +0.000 A 
ATOM      4  C   UNL     1       3.663   6.883  17.784  0.00  0.00    +0.000 A 
ATOM      5  C   UNL     1       4.874   6.194  17.770  0.00  0.00    +0.000 A 
ATOM      6  C   UNL     1       6.034   6.712  17.064  0.00  0.00    +0.000 A 
ATOM      7  C   UNL     1       7.174   6.015  17.060  0.00  0.00    +0.000 A 
ATOM      8  C   UNL     1       7.314   4.732  17.763  0.00  0.00    +0.000 A 
ATOM      9  O   UNL     1       8.373   4.119  17.752  0.00  0.00    +0.000 OA
ATOM     10  O   UNL     1       6.191   4.260  18.432  0.00  0.00    +0.000 OA
ATOM     11  C   UNL     1       4.963   4.965  18.433  0.00  0.00    +0.000 A 
ENDROOT
BRANCH   2  12
ATOM     12  O   UNL     1       1.535   4.678  19.730  0.00  0.00    +0.000 OA
ATOM     13  H   UNL     1       1.433   5.140  20.577  0.00  0.00    +0.000 HD
ENDBRANCH   2  12
BRANCH   1  14
ATOM     14  C   UNL     1       4.013   3.033  19.768  0.00  0.00    +0.000 C 
BRANCH  14  16
ATOM     15  C   UNL     1       2.862   2.007  17.776  0.00  0.00    +0.000 C 
ATOM     16  C   UNL     1       3.624   1.892  18.872  0.00  0.00    +0.000 C 
ENDBRANCH  14  16
ENDBRANCH   1  14
TORSDOF 3
ENDMDL
MODEL 4
REMARK VINA RESULT:      -6.6      2.453      4.526
REMARK  Name = 
REMARK  3 active torsions:
REMARK  status: ('A' for Active; 'I' for Inactive)
REMARK    1  A    between atoms: C_2  and  C_3
REMARK    2  A    between atoms: C_3  and  C_4
REMARK    3  A    between atoms: C_5  and  O_6
REMARK                            x       y       z     vdW  Elec       q    Type
REMARK                         _______ _______ _______ _____ _____    ______ ____
ROOT
ATOM      1  C   UNL     1       3.574   4.048  17.722  0.00  0.00    +0.000 A 
ATOM      2  C   UNL     1       2.383   4.750  17.953  0.00  0.00    +0.000 A 
ATOM      3  C   UNL     1       2.360   6.146  17.998  0.00  0.00    +0.000 A 
ATOM      4  C   UNL     1       3.534   6.880  17.823  0.00  0.00    +0.000 A 
ATOM      5  C   UNL     1       4.739   6.215  17.607  0.00  0.00    +0.000 A 
ATOM      6  C   UNL     1       5.980   6.941  17.397  0.00  0.00    +0.000 A 
ATOM      7  C   UNL     1       7.113   6.269  17.177  0.00  0.00    +0.000 A 
ATOM      8  C   UNL     1       7.164   4.800  17.153  0.00  0.00    +0.000 A 
ATOM      9  O   UNL     1       8.218   4.209  16.959  0.00  0.00    +0.000 OA
ATOM     10  O   UNL     1       5.964   4.129  17.357  0.00  0.00    +0.000 OA
ATOM     11  C   UNL     1       4.744   4.816  17.568  0.00  0.00    +0.000 A 
ENDROOT
BRANCH   2  12
ATOM     12  O   UNL     1       1.175   4.138  18.135  0.00  0.00    +0.000 OA
ATOM     13  H   UNL     1       1.233   3.215  17.845  0.00  0.00    +0.000 HD
ENDBRANCH   2  12
BRANCH   1  14
ATOM     14  C   UNL     1       3.633   2.541  17.632  0.00  0.00    +0.000 C 
BRANCH  14  16
ATOM     15  C   UNL     1       4.301   2.337  20.052  0.00  0.00    +0.000 C 
ATOM     16  C   UNL     1       3.652   1.871  18.977  0.00  0.00    +0.000 C 
ENDBRANCH  14  16
ENDBRANCH   1  14
TORSDOF 3
ENDMDL
MODEL 5
REMARK VINA RESULT:      -6.5      3.932      5.936
REMARK  Name = 
REMARK  3 active torsions:
REMARK  status: ('A' for Active; 'I' for Inactive)
REMARK    1  A    between atoms: C_2  and  C_3
REMARK    2  A    between atoms: C_3  and  C_4
REMARK    3  A    between atoms: C_5  and  O_6
REMARK                            x       y       z     vdW  Elec       q    Type
REMARK                         _______ _______ _______ _____ _____    ______ ____
ROOT
ATOM      1  C   UNL     1       2.290   3.797  18.583  0.00  0.00    +0.000 A 
ATOM      2  C   UNL     1       2.939   2.639  18.132  0.00  0.00    +0.000 A 
ATOM      3  C   UNL     1       4.077   2.712  17.324  0.00  0.00    +0.000 A 
ATOM      4  C   UNL     1       4.592   3.950  16.937  0.00  0.00    +0.000 A 
ATOM      5  C   UNL     1       3.964   5.121  17.355  0.00  0.00    +0.000 A 
ATOM      6  C   UNL     1       4.480   6.430  16.993  0.00  0.00    +0.000 A 
ATOM      7  C   UNL     1       3.860   7.531  17.425  0.00  0.00    +0.000 A 
ATOM      8  C   UNL     1       2.647   7.476  18.253  0.00  0.00    +0.000 A 
ATOM      9  O   UNL     1       2.092   8.501  18.627  0.00  0.00    +0.000 OA
ATOM     10  O   UNL     1       2.172   6.213  18.584  0.00  0.00    +0.000 OA
ATOM     11  C   UNL     1       2.824   5.028  18.160  0.00  0.00    +0.000 A 
ENDROOT
BRANCH   2  12
ATOM     12  O   UNL     1       2.527   1.375  18.450  0.00  0.00    +0.000 OA
ATOM     13  H   UNL     1       2.989   0.734  17.887  0.00  0.00    +0.000 HD
ENDBRANCH   2  12
BRANCH   1  14
ATOM     14  C   UNL     1       1.079   3.758  19.486  0.00  0.00    +0.000 C 
BRANCH  14  16
ATOM     15  C   UNL     1       1.519   2.594  21.677  0.00  0.00    +0.000 C 
ATOM     16  C   UNL     1       1.434   3.714  20.945  0.00  0.00    +0.000 C 
ENDBRANCH  14  16
ENDBRANCH   1  14
TORSDOF 3
ENDMDL
MODEL 6
REMARK VINA RESULT:      -6.5      2.225      5.045
REMARK  Name = 
REMARK  3 active torsions:
REMARK  status: ('A' for Active; 'I' for Inactive)
REMARK    1  A    between atoms: C_2  and  C_3
REMARK    2  A    between atoms: C_3  and  C_4
REMARK    3  A    between atoms: C_5  and  O_6
REMARK                            x       y       z     vdW  Elec       q    Type
REMARK                         _______ _______ _______ _____ _____    ______ ____
ROOT
ATOM      1  C   UNL     1       5.735   4.191  16.887  0.00  0.00    +0.000 A 
ATOM      2  C   UNL     1       6.976   4.569  17.418  0.00  0.00    +0.000 A 
ATOM      3  C   UNL     1       7.070   5.231  18.644  0.00  0.00    +0.000 A 
ATOM      4  C   UNL     1       5.921   5.544  19.371  0.00  0.00    +0.000 A 
ATOM      5  C   UNL     1       4.670   5.196  18.866  0.00  0.00    +0.000 A 
ATOM      6  C   UNL     1       3.449   5.482  19.602  0.00  0.00    +0.000 A 
ATOM      7  C   UNL     1       2.268   5.120  19.094  0.00  0.00    +0.000 A 
ATOM      8  C   UNL     1       2.145   4.446  17.793  0.00  0.00    +0.000 A 
ATOM      9  O   UNL     1       1.049   4.134  17.345  0.00  0.00    +0.000 OA
ATOM     10  O   UNL     1       3.326   4.186  17.109  0.00  0.00    +0.000 OA
ATOM     11  C   UNL     1       4.594   4.536  17.635  0.00  0.00    +0.000 A 
ENDROOT
BRANCH   2  12
ATOM     12  O   UNL     1       8.167   4.314  16.797  0.00  0.00    +0.000 OA
ATOM     13  H   UNL     1       8.504   5.131  16.397  0.00  0.00    +0.000 HD
ENDBRANCH   2  12
BRANCH   1  14
ATOM     14  C   UNL     1       5.596   3.443  15.582  0.00  0.00    +0.000 C 
BRANCH  14  16
ATOM     15  C   UNL     1       6.690   4.374  13.513  0.00  0.00    +0.000 C 
ATOM     16  C   UNL     1       5.668   4.340  14.379  0.00  0.00    +0.000 C 
ENDBRANCH  14  16
ENDBRANCH   1  14
TORSDOF 3
ENDMDL
MODEL 7
REMARK VINA RESULT:      -6.4      1.638      4.291
REMARK  Name = 
REMARK  3 active torsions:
REMARK  status: ('A' for Active; 'I' for Inactive)
REMARK    1  A    between atoms: C_2  and  C_3
REMARK    2  A    between atoms: C_3  and  C_4
REMARK    3  A    between atoms: C_5  and  O_6
REMARK                            x       y       z     vdW  Elec       q    Type
REMARK                         _______ _______ _______ _____ _____    ______ ____
ROOT
ATOM      1  C   UNL     1       5.995   5.955  16.782  0.00  0.00    +0.000 A 
ATOM      2  C   UNL     1       6.553   5.156  15.774  0.00  0.00    +0.000 A 
ATOM      3  C   UNL     1       5.915   3.996  15.330  0.00  0.00    +0.000 A 
ATOM      4  C   UNL     1       4.701   3.595  15.891  0.00  0.00    +0.000 A 
ATOM      5  C   UNL     1       4.126   4.357  16.906  0.00  0.00    +0.000 A 
ATOM      6  C   UNL     1       2.852   3.988  17.502  0.00  0.00    +0.000 A 
ATOM      7  C   UNL     1       2.323   4.752  18.462  0.00  0.00    +0.000 A 
ATOM      8  C   UNL     1       2.991   5.962  18.962  0.00  0.00    +0.000 A 
ATOM      9  O   UNL     1       2.489   6.639  19.850  0.00  0.00    +0.000 OA
ATOM     10  O   UNL     1       4.208   6.292  18.377  0.00  0.00    +0.000 OA
ATOM     11  C   UNL     1       4.781   5.514  17.340  0.00  0.00    +0.000 A 
ENDROOT
BRANCH   2  12
ATOM     12  O   UNL     1       7.733   5.450  15.151  0.00  0.00    +0.000 OA
ATOM     13  H   UNL     1       7.577   6.113  14.460  0.00  0.00    +0.000 HD
ENDBRANCH   2  12
BRANCH   1  14
ATOM     14  C   UNL     1       6.638   7.234  17.263  0.00  0.00    +0.000 C 
BRANCH  14  16
ATOM     15  C   UNL     1       7.876   6.055  19.114  0.00  0.00    +0.000 C 
ATOM     16  C   UNL     1       7.817   6.998  18.163  0.00  0.00    +0.000 C 
ENDBRANCH  14  16
ENDBRANCH   1  14
TORSDOF 3
ENDMDL
MODEL 8
REMARK VINA RESULT:      -6.3      2.766      5.131
REMARK  Name = 
REMARK  3 active torsions:
REMARK  status: ('A' for Active; 'I' for Inactive)
REMARK    1  A    between atoms: C_2  and  C_3
REMARK    2  A    between atoms: C_3  and  C_4
REMARK    3  A    between atoms: C_5  and  O_6
REMARK                            x       y       z     vdW  Elec       q    Type
REMARK                         _______ _______ _______ _____ _____    ______ ____
ROOT
ATOM      1  C   UNL     1       5.042   5.010  18.126  0.00  0.00    +0.000 A 
ATOM      2  C   UNL     1       4.273   6.007  17.509  0.00  0.00    +0.000 A 
ATOM      3  C   UNL     1       2.922   6.179  17.819  0.00  0.00    +0.000 A 
ATOM      4  C   UNL     1       2.298   5.349  18.751  0.00  0.00    +0.000 A 
ATOM      5  C   UNL     1       3.028   4.338  19.372  0.00  0.00    +0.000 A 
ATOM      6  C   UNL     1       2.423   3.465  20.365  0.00  0.00    +0.000 A 
ATOM      7  C   UNL     1       3.158   2.516  20.951  0.00  0.00    +0.000 A 
ATOM      8  C   UNL     1       4.574   2.302  20.619  0.00  0.00    +0.000 A 
ATOM      9  O   UNL     1       5.222   1.418  21.164  0.00  0.00    +0.000 OA
ATOM     10  O   UNL     1       5.128   3.147  19.666  0.00  0.00    +0.000 OA
ATOM     11  C   UNL     1       4.379   4.178  19.047  0.00  0.00    +0.000 A 
ENDROOT
BRANCH   2  12
ATOM     12  O   UNL     1       4.777   6.879  16.585  0.00  0.00    +0.000 OA
ATOM     13  H   UNL     1       5.263   7.585  17.039  0.00  0.00    +0.000 HD
ENDBRANCH   2  12
BRANCH   1  14
ATOM     14  C   UNL     1       6.513   4.817  17.842  0.00  0.00    +0.000 C 
BRANCH  14  16
ATOM     15  C   UNL     1       7.876   6.886  18.298  0.00  0.00    +0.000 C 
ATOM     16  C   UNL     1       7.395   5.695  18.682  0.00  0.00    +0.000 C 
ENDBRANCH  14  16
ENDBRANCH   1  14
TORSDOF 3
ENDMDL
MODEL 9
REMARK VINA RESULT:      -6.3      2.231      5.160
REMARK  Name = 
REMARK  3 active torsions:
REMARK  status: ('A' for Active; 'I' for Inactive)
REMARK    1  A    between atoms: C_2  and  C_3
REMARK    2  A    between atoms: C_3  and  C_4
REMARK    3  A    between atoms: C_5  and  O_6
REMARK                            x       y       z     vdW  Elec       q    Type
REMARK                         _______ _______ _______ _____ _____    ______ ____
ROOT
ATOM      1  C   UNL     1       5.653   4.793  16.084  0.00  0.00    +0.000 A 
ATOM      2  C   UNL     1       6.558   5.858  16.187  0.00  0.00    +0.000 A 
ATOM      3  C   UNL     1       6.337   6.916  17.072  0.00  0.00    +0.000 A 
ATOM      4  C   UNL     1       5.195   6.943  17.873  0.00  0.00    +0.000 A 
ATOM      5  C   UNL     1       4.266   5.908  17.785  0.00  0.00    +0.000 A 
ATOM      6  C   UNL     1       3.074   5.885  18.617  0.00  0.00    +0.000 A 
ATOM      7  C   UNL     1       2.214   4.868  18.517  0.00  0.00    +0.000 A 
ATOM      8  C   UNL     1       2.415   3.759  17.573  0.00  0.00    +0.000 A 
ATOM      9  O   UNL     1       1.605   2.844  17.494  0.00  0.00    +0.000 OA
ATOM     10  O   UNL     1       3.560   3.805  16.788  0.00  0.00    +0.000 OA
ATOM     11  C   UNL     1       4.502   4.858  16.891  0.00  0.00    +0.000 A 
ENDROOT
BRANCH   2  12
ATOM     12  O   UNL     1       7.710   5.938  15.457  0.00  0.00    +0.000 OA
ATOM     13  H   UNL     1       7.738   6.786  14.988  0.00  0.00    +0.000 HD
ENDBRANCH   2  12
BRANCH   1  14
ATOM     14  C   UNL     1       5.876   3.615  15.165  0.00  0.00    +0.000 C 
BRANCH  14  16
ATOM     15  C   UNL     1       6.254   3.505  12.676  0.00  0.00    +0.000 C 
ATOM     16  C   UNL     1       5.537   3.913  13.732  0.00  0.00    +0.000 C 
ENDBRANCH  14  16
ENDBRANCH   1  14
TORSDOF 3
ENDMDL
