MODEL 1
REMARK VINA RESULT:      -8.7      0.000      0.000
REMARK  Name = 
REMARK  8 active torsions:
REMARK  status: ('A' for Active; 'I' for Inactive)
REMARK    1  A    between atoms: C_1  and  C_2
REMARK    2  A    between atoms: C_5  and  S_6
REMARK    3  A    between atoms: S_6  and  N_9
REMARK    4  A    between atoms: N_9  and  C_10
REMARK    5  A    between atoms: C_14  and  C_15
REMARK    6  A    between atoms: N_17  and  C_18
REMARK    7  A    between atoms: C_22  and  C_23
REMARK    8  A    between atoms: C_24  and  C_25
REMARK                            x       y       z     vdW  Elec       q    Type
REMARK                         _______ _______ _______ _____ _____    ______ ____
ROOT
ATOM      1  C   UNL     1       2.563   7.086  18.514  0.00  0.00    +0.000 C 
ATOM      2  O   UNL     1       2.514   7.184  19.736  0.00  0.00    +0.000 OA
ATOM      3  N   UNL     1       2.090   8.035  17.608  0.00  0.00    +0.000 N 
ATOM      4  H   UNL     1       2.055   7.773  16.631  0.00  0.00    +0.000 HD
ENDROOT
BRANCH   1  11
ATOM      5  C   UNL     1       1.316   4.365  19.000  0.00  0.00    +0.000 C 
ATOM      6  C   UNL     1       2.567   4.554  18.181  0.00  0.00    +0.000 A 
ATOM      7  C   UNL     1       3.179   3.390  17.672  0.00  0.00    +0.000 A 
ATOM      8  C   UNL     1       4.353   3.462  16.930  0.00  0.00    +0.000 A 
ATOM      9  C   UNL     1       4.937   4.708  16.708  0.00  0.00    +0.000 A 
ATOM     10  C   UNL     1       4.352   5.886  17.201  0.00  0.00    +0.000 A 
ATOM     11  C   UNL     1       3.153   5.823  17.934  0.00  0.00    +0.000 A 
BRANCH   9  12
ATOM     12  S   UNL     1       6.453   4.773  15.778  0.00  0.00    +0.000 S 
ATOM     13  O   UNL     1       6.469   6.038  15.074  0.00  0.00    +0.000 OA
ATOM     14  O   UNL     1       7.531   4.378  16.657  0.00  0.00    +0.000 OA
BRANCH  12  15
ATOM     15  N   UNL     1       6.214   3.567  14.616  0.00  0.00    +0.000 NA
ATOM     16  H   UNL     1       5.621   2.816  14.987  0.00  0.00    +0.000 HD
BRANCH  15  17
ATOM     17  C   UNL     1       5.958   4.002  13.248  0.00  0.00    +0.000 C 
ATOM     18  C   UNL     1       6.847   3.565  12.117  0.00  0.00    +0.000 C 
ATOM     19  C   UNL     1       5.437   3.057  12.206  0.00  0.00    +0.000 C 
ENDBRANCH  15  17
ENDBRANCH  12  15
ENDBRANCH   9  12
ENDBRANCH   1  11
BRANCH   3  20
ATOM     20  C   UNL     1       1.502   9.294  17.935  0.00  0.00    +0.000 A 
ATOM     21  C   UNL     1       2.253  10.427  18.270  0.00  0.00    +0.000 A 
ATOM     22  C   UNL     1       1.635  11.636  18.612  0.00  0.00    +0.000 A 
ATOM     23  C   UNL     1       0.248  11.736  18.620  0.00  0.00    +0.000 A 
ATOM     24  C   UNL     1      -0.523  10.631  18.262  0.00  0.00    +0.000 A 
ATOM     25  C   UNL     1       0.102   9.414  17.917  0.00  0.00    +0.000 A 
BRANCH  24  26
ATOM     26  C   UNL     1      -1.952  10.773  18.239  0.00  0.00    +0.000 C 
ATOM     27  C   UNL     1      -3.133  10.910  18.234  0.00  0.00    +0.000 C 
BRANCH  27  28
ATOM     28  C   UNL     1      -4.534  11.225  18.151  0.00  0.00    +0.000 A 
ATOM     29  C   UNL     1      -5.443  10.354  18.725  0.00  0.00    +0.000 A 
ATOM     30  C   UNL     1      -6.792  10.678  18.663  0.00  0.00    +0.000 A 
ATOM     31  C   UNL     1      -7.192  11.758  17.890  0.00  0.00    +0.000 A 
ATOM     32  C   UNL     1      -6.210  12.590  17.372  0.00  0.00    +0.000 A 
ATOM     33  N   UNL     1      -4.879  12.360  17.507  0.00  0.00    +0.000 NA
ENDBRANCH  27  28
ENDBRANCH  24  26
ENDBRANCH   3  20
TORSDOF 7
ENDMDL
MODEL 2
REMARK VINA RESULT:      -8.4      3.420      4.145
REMARK  Name = 
REMARK  8 active torsions:
REMARK  status: ('A' for Active; 'I' for Inactive)
REMARK    1  A    between atoms: C_1  and  C_2
REMARK    2  A    between atoms: C_5  and  S_6
REMARK    3  A    between atoms: S_6  and  N_9
REMARK    4  A    between atoms: N_9  and  C_10
REMARK    5  A    between atoms: C_14  and  C_15
REMARK    6  A    between atoms: N_17  and  C_18
REMARK    7  A    between atoms: C_22  and  C_23
REMARK    8  A    between atoms: C_24  and  C_25
REMARK                            x       y       z     vdW  Elec       q    Type
REMARK                         _______ _______ _______ _____ _____    ______ ____
ROOT
ATOM      1  C   UNL     1       2.355   7.229  18.484  0.00  0.00    +0.000 C 
ATOM      2  O   UNL     1       1.804   7.866  17.592  0.00  0.00    +0.000 OA
ATOM      3  N   UNL     1       2.255   7.499  19.848  0.00  0.00    +0.000 N 
ATOM      4  H   UNL     1       2.871   6.993  20.472  0.00  0.00    +0.000 HD
ENDROOT
BRANCH   1  11
ATOM      5  C   UNL     1       1.576   4.347  19.012  0.00  0.00    +0.000 C 
ATOM      6  C   UNL     1       2.871   4.732  18.344  0.00  0.00    +0.000 A 
ATOM      7  C   UNL     1       3.752   3.685  18.004  0.00  0.00    +0.000 A 
ATOM      8  C   UNL     1       4.982   3.945  17.412  0.00  0.00    +0.000 A 
ATOM      9  C   UNL     1       5.352   5.267  17.172  0.00  0.00    +0.000 A 
ATOM     10  C   UNL     1       4.497   6.333  17.499  0.00  0.00    +0.000 A 
ATOM     11  C   UNL     1       3.242   6.077  18.078  0.00  0.00    +0.000 A 
BRANCH   9  12
ATOM     12  S   UNL     1       6.942   5.577  16.437  0.00  0.00    +0.000 S 
ATOM     13  O   UNL     1       7.296   6.947  16.745  0.00  0.00    +0.000 OA
ATOM     14  O   UNL     1       7.812   4.473  16.777  0.00  0.00    +0.000 OA
BRANCH  12  15
ATOM     15  N   UNL     1       6.592   5.519  14.783  0.00  0.00    +0.000 NA
ATOM     16  H   UNL     1       7.013   6.316  14.294  0.00  0.00    +0.000 HD
BRANCH  15  17
ATOM     17  C   UNL     1       6.676   4.217  14.131  0.00  0.00    +0.000 C 
ATOM     18  C   UNL     1       5.570   3.723  13.242  0.00  0.00    +0.000 C 
ATOM     19  C   UNL     1       6.901   4.091  12.653  0.00  0.00    +0.000 C 
ENDBRANCH  15  17
ENDBRANCH  12  15
ENDBRANCH   9  12
ENDBRANCH   1  11
BRANCH   3  20
ATOM     20  C   UNL     1       1.473   8.531  20.450  0.00  0.00    +0.000 A 
ATOM     21  C   UNL     1       0.680   8.329  21.585  0.00  0.00    +0.000 A 
ATOM     22  C   UNL     1      -0.094   9.363  22.127  0.00  0.00    +0.000 A 
ATOM     23  C   UNL     1      -0.083  10.625  21.543  0.00  0.00    +0.000 A 
ATOM     24  C   UNL     1       0.721  10.862  20.429  0.00  0.00    +0.000 A 
ATOM     25  C   UNL     1       1.500   9.818  19.886  0.00  0.00    +0.000 A 
BRANCH  24  26
ATOM     26  C   UNL     1       0.743  12.184  19.871  0.00  0.00    +0.000 C 
ATOM     27  C   UNL     1       0.743  13.285  19.420  0.00  0.00    +0.000 C 
BRANCH  27  28
ATOM     28  C   UNL     1       0.757  14.670  19.036  0.00  0.00    +0.000 A 
ATOM     29  C   UNL     1      -0.447  15.348  18.962  0.00  0.00    +0.000 A 
ATOM     30  C   UNL     1      -0.424  16.693  18.615  0.00  0.00    +0.000 A 
ATOM     31  C   UNL     1       0.770  17.260  18.192  0.00  0.00    +0.000 A 
ATOM     32  C   UNL     1       1.930  16.512  18.323  0.00  0.00    +0.000 A 
ATOM     33  N   UNL     1       1.955  15.228  18.762  0.00  0.00    +0.000 NA
ENDBRANCH  27  28
ENDBRANCH  24  26
ENDBRANCH   3  20
TORSDOF 7
ENDMDL
MODEL 3
REMARK VINA RESULT:      -8.4      2.009      2.604
REMARK  Name = 
REMARK  8 active torsions:
REMARK  status: ('A' for Active; 'I' for Inactive)
REMARK    1  A    between atoms: C_1  and  C_2
REMARK    2  A    between atoms: C_5  and  S_6
REMARK    3  A    between atoms: S_6  and  N_9
REMARK    4  A    between atoms: N_9  and  C_10
REMARK    5  A    between atoms: C_14  and  C_15
REMARK    6  A    between atoms: N_17  and  C_18
REMARK    7  A    between atoms: C_22  and  C_23
REMARK    8  A    between atoms: C_24  and  C_25
REMARK                            x       y       z     vdW  Elec       q    Type
REMARK                         _______ _______ _______ _____ _____    ______ ____
ROOT
ATOM      1  C   UNL     1       2.192   7.787  18.972  0.00  0.00    +0.000 C 
ATOM      2  O   UNL     1       2.061   7.936  20.182  0.00  0.00    +0.000 OA
ATOM      3  N   UNL     1       1.804   8.707  17.999  0.00  0.00    +0.000 N 
ATOM      4  H   UNL     1       1.830   8.406  17.033  0.00  0.00    +0.000 HD
ENDROOT
BRANCH   1  11
ATOM      5  C   UNL     1       1.433   5.116  20.190  0.00  0.00    +0.000 C 
ATOM      6  C   UNL     1       2.437   5.247  19.074  0.00  0.00    +0.000 A 
ATOM      7  C   UNL     1       3.061   4.062  18.633  0.00  0.00    +0.000 A 
ATOM      8  C   UNL     1       4.022   4.087  17.629  0.00  0.00    +0.000 A 
ATOM      9  C   UNL     1       4.382   5.310  17.068  0.00  0.00    +0.000 A 
ATOM     10  C   UNL     1       3.779   6.509  17.485  0.00  0.00    +0.000 A 
ATOM     11  C   UNL     1       2.791   6.489  18.485  0.00  0.00    +0.000 A 
BRANCH   9  12
ATOM     12  S   UNL     1       5.633   5.322  15.803  0.00  0.00    +0.000 S 
ATOM     13  O   UNL     1       5.647   4.005  15.202  0.00  0.00    +0.000 OA
ATOM     14  O   UNL     1       5.453   6.517  15.009  0.00  0.00    +0.000 OA
BRANCH  12  15
ATOM     15  N   UNL     1       7.057   5.465  16.706  0.00  0.00    +0.000 NA
ATOM     16  H   UNL     1       7.851   5.693  16.099  0.00  0.00    +0.000 HD
BRANCH  15  17
ATOM     17  C   UNL     1       6.968   6.171  17.980  0.00  0.00    +0.000 C 
ATOM     18  C   UNL     1       7.839   5.783  19.142  0.00  0.00    +0.000 C 
ATOM     19  C   UNL     1       8.055   7.095  18.444  0.00  0.00    +0.000 C 
ENDBRANCH  15  17
ENDBRANCH  12  15
ENDBRANCH   9  12
ENDBRANCH   1  11
BRANCH   3  20
ATOM     20  C   UNL     1       1.225   9.990  18.233  0.00  0.00    +0.000 A 
ATOM     21  C   UNL     1       1.983  11.154  18.407  0.00  0.00    +0.000 A 
ATOM     22  C   UNL     1       1.375  12.389  18.664  0.00  0.00    +0.000 A 
ATOM     23  C   UNL     1      -0.010  12.483  18.745  0.00  0.00    +0.000 A 
ATOM     24  C   UNL     1      -0.791  11.346  18.547  0.00  0.00    +0.000 A 
ATOM     25  C   UNL     1      -0.176  10.103  18.288  0.00  0.00    +0.000 A 
BRANCH  24  26
ATOM     26  C   UNL     1      -2.219  11.479  18.597  0.00  0.00    +0.000 C 
ATOM     27  C   UNL     1      -3.401  11.613  18.637  0.00  0.00    +0.000 C 
BRANCH  27  28
ATOM     28  C   UNL     1      -4.816  11.844  18.529  0.00  0.00    +0.000 A 
ATOM     29  C   UNL     1      -5.338  12.185  17.294  0.00  0.00    +0.000 A 
ATOM     30  C   UNL     1      -6.709  12.382  17.192  0.00  0.00    +0.000 A 
ATOM     31  C   UNL     1      -7.476  12.400  18.348  0.00  0.00    +0.000 A 
ATOM     32  C   UNL     1      -6.872  12.023  19.538  0.00  0.00    +0.000 A 
ATOM     33  N   UNL     1      -5.554  11.719  19.652  0.00  0.00    +0.000 NA
ENDBRANCH  27  28
ENDBRANCH  24  26
ENDBRANCH   3  20
TORSDOF 7
ENDMDL
MODEL 4
REMARK VINA RESULT:      -8.4      2.875      5.317
REMARK  Name = 
REMARK  8 active torsions:
REMARK  status: ('A' for Active; 'I' for Inactive)
REMARK    1  A    between atoms: C_1  and  C_2
REMARK    2  A    between atoms: C_5  and  S_6
REMARK    3  A    between atoms: S_6  and  N_9
REMARK    4  A    between atoms: N_9  and  C_10
REMARK    5  A    between atoms: C_14  and  C_15
REMARK    6  A    between atoms: N_17  and  C_18
REMARK    7  A    between atoms: C_22  and  C_23
REMARK    8  A    between atoms: C_24  and  C_25
REMARK                            x       y       z     vdW  Elec       q    Type
REMARK                         _______ _______ _______ _____ _____    ______ ____
ROOT
ATOM      1  C   UNL     1       2.593   7.245  18.461  0.00  0.00    +0.000 C 
ATOM      2  O   UNL     1       2.443   7.220  19.678  0.00  0.00    +0.000 OA
ATOM      3  N   UNL     1       2.093   8.226  17.606  0.00  0.00    +0.000 N 
ATOM      4  H   UNL     1       2.157   8.058  16.610  0.00  0.00    +0.000 HD
ENDROOT
BRANCH   1  11
ATOM      5  C   UNL     1       1.429   4.451  18.274  0.00  0.00    +0.000 C 
ATOM      6  C   UNL     1       2.800   4.799  17.754  0.00  0.00    +0.000 A 
ATOM      7  C   UNL     1       3.562   3.748  17.205  0.00  0.00    +0.000 A 
ATOM      8  C   UNL     1       4.849   3.967  16.727  0.00  0.00    +0.000 A 
ATOM      9  C   UNL     1       5.394   5.246  16.815  0.00  0.00    +0.000 A 
ATOM     10  C   UNL     1       4.662   6.315  17.357  0.00  0.00    +0.000 A 
ATOM     11  C   UNL     1       3.351   6.106  17.823  0.00  0.00    +0.000 A 
BRANCH   9  12
ATOM     12  S   UNL     1       7.053   5.497  16.221  0.00  0.00    +0.000 S 
ATOM     13  O   UNL     1       7.453   6.831  16.618  0.00  0.00    +0.000 OA
ATOM     14  O   UNL     1       7.833   4.333  16.576  0.00  0.00    +0.000 OA
BRANCH  12  15
ATOM     15  N   UNL     1       6.833   5.528  14.544  0.00  0.00    +0.000 NA
ATOM     16  H   UNL     1       7.292   6.348  14.132  0.00  0.00    +0.000 HD
BRANCH  15  17
ATOM     17  C   UNL     1       6.967   4.263  13.832  0.00  0.00    +0.000 C 
ATOM     18  C   UNL     1       5.810   3.674  13.075  0.00  0.00    +0.000 C 
ATOM     19  C   UNL     1       7.003   4.203  12.333  0.00  0.00    +0.000 C 
ENDBRANCH  15  17
ENDBRANCH  12  15
ENDBRANCH   9  12
ENDBRANCH   1  11
BRANCH   3  20
ATOM     20  C   UNL     1       1.355   9.386  17.993  0.00  0.00    +0.000 A 
ATOM     21  C   UNL     1      -0.042   9.457  17.947  0.00  0.00    +0.000 A 
ATOM     22  C   UNL     1      -0.725  10.625  18.309  0.00  0.00    +0.000 A 
ATOM     23  C   UNL     1      -0.019  11.746  18.731  0.00  0.00    +0.000 A 
ATOM     24  C   UNL     1       1.371  11.693  18.815  0.00  0.00    +0.000 A 
ATOM     25  C   UNL     1       2.057  10.515  18.450  0.00  0.00    +0.000 A 
BRANCH  24  26
ATOM     26  C   UNL     1       2.072  12.852  19.293  0.00  0.00    +0.000 C 
ATOM     27  C   UNL     1       2.671  13.806  19.674  0.00  0.00    +0.000 C 
BRANCH  27  28
ATOM     28  C   UNL     1       3.390  15.015  19.974  0.00  0.00    +0.000 A 
ATOM     29  C   UNL     1       4.603  14.916  20.631  0.00  0.00    +0.000 A 
ATOM     30  C   UNL     1       5.305  16.086  20.894  0.00  0.00    +0.000 A 
ATOM     31  C   UNL     1       4.694  17.308  20.649  0.00  0.00    +0.000 A 
ATOM     32  C   UNL     1       3.488  17.310  19.965  0.00  0.00    +0.000 A 
ATOM     33  N   UNL     1       2.828  16.182  19.597  0.00  0.00    +0.000 NA
ENDBRANCH  27  28
ENDBRANCH  24  26
ENDBRANCH   3  20
TORSDOF 7
ENDMDL
MODEL 5
REMARK VINA RESULT:      -8.4      1.977      2.497
REMARK  Name = 
REMARK  8 active torsions:
REMARK  status: ('A' for Active; 'I' for Inactive)
REMARK    1  A    between atoms: C_1  and  C_2
REMARK    2  A    between atoms: C_5  and  S_6
REMARK    3  A    between atoms: S_6  and  N_9
REMARK    4  A    between atoms: N_9  and  C_10
REMARK    5  A    between atoms: C_14  and  C_15
REMARK    6  A    between atoms: N_17  and  C_18
REMARK    7  A    between atoms: C_22  and  C_23
REMARK    8  A    between atoms: C_24  and  C_25
REMARK                            x       y       z     vdW  Elec       q    Type
REMARK                         _______ _______ _______ _____ _____    ______ ____
ROOT
ATOM      1  C   UNL     1       2.217   7.650  18.991  0.00  0.00    +0.000 C 
ATOM      2  O   UNL     1       2.064   7.815  20.196  0.00  0.00    +0.000 OA
ATOM      3  N   UNL     1       1.883   8.573  18.001  0.00  0.00    +0.000 N 
ATOM      4  H   UNL     1       1.922   8.263  17.038  0.00  0.00    +0.000 HD
ENDROOT
BRANCH   1  11
ATOM      5  C   UNL     1       1.257   5.009  20.130  0.00  0.00    +0.000 C 
ATOM      6  C   UNL     1       2.335   5.100  19.081  0.00  0.00    +0.000 A 
ATOM      7  C   UNL     1       2.929   3.890  18.668  0.00  0.00    +0.000 A 
ATOM      8  C   UNL     1       3.952   3.877  17.727  0.00  0.00    +0.000 A 
ATOM      9  C   UNL     1       4.405   5.086  17.203  0.00  0.00    +0.000 A 
ATOM     10  C   UNL     1       3.834   6.309  17.593  0.00  0.00    +0.000 A 
ATOM     11  C   UNL     1       2.784   6.329  18.529  0.00  0.00    +0.000 A 
BRANCH   9  12
ATOM     12  S   UNL     1       5.733   5.046  16.019  0.00  0.00    +0.000 S 
ATOM     13  O   UNL     1       6.740   4.145  16.536  0.00  0.00    +0.000 OA
ATOM     14  O   UNL     1       5.153   4.866  14.707  0.00  0.00    +0.000 OA
BRANCH  12  15
ATOM     15  N   UNL     1       6.365   6.611  16.137  0.00  0.00    +0.000 NA
ATOM     16  H   UNL     1       5.618   7.294  16.302  0.00  0.00    +0.000 HD
BRANCH  15  17
ATOM     17  C   UNL     1       7.597   6.775  16.901  0.00  0.00    +0.000 C 
ATOM     18  C   UNL     1       7.843   8.012  17.718  0.00  0.00    +0.000 C 
ATOM     19  C   UNL     1       7.610   6.695  18.399  0.00  0.00    +0.000 C 
ENDBRANCH  15  17
ENDBRANCH  12  15
ENDBRANCH   9  12
ENDBRANCH   1  11
BRANCH   3  20
ATOM     20  C   UNL     1       1.342   9.877  18.211  0.00  0.00    +0.000 A 
ATOM     21  C   UNL     1       2.134  11.021  18.363  0.00  0.00    +0.000 A 
ATOM     22  C   UNL     1       1.562  12.278  18.596  0.00  0.00    +0.000 A 
ATOM     23  C   UNL     1       0.180  12.414  18.675  0.00  0.00    +0.000 A 
ATOM     24  C   UNL     1      -0.634  11.297  18.498  0.00  0.00    +0.000 A 
ATOM     25  C   UNL     1      -0.055  10.031  18.263  0.00  0.00    +0.000 A 
BRANCH  24  26
ATOM     26  C   UNL     1      -2.058  11.473  18.546  0.00  0.00    +0.000 C 
ATOM     27  C   UNL     1      -3.240  11.597  18.593  0.00  0.00    +0.000 C 
BRANCH  27  28
ATOM     28  C   UNL     1      -4.654  11.720  18.818  0.00  0.00    +0.000 A 
ATOM     29  C   UNL     1      -5.090  12.495  19.878  0.00  0.00    +0.000 A 
ATOM     30  C   UNL     1      -6.459  12.630  20.074  0.00  0.00    +0.000 A 
ATOM     31  C   UNL     1      -7.328  11.856  19.319  0.00  0.00    +0.000 A 
ATOM     32  C   UNL     1      -6.803  11.127  18.263  0.00  0.00    +0.000 A 
ATOM     33  N   UNL     1      -5.478  11.060  17.977  0.00  0.00    +0.000 NA
ENDBRANCH  27  28
ENDBRANCH  24  26
ENDBRANCH   3  20
TORSDOF 7
ENDMDL
MODEL 6
REMARK VINA RESULT:      -8.3      2.978      5.534
REMARK  Name = 
REMARK  8 active torsions:
REMARK  status: ('A' for Active; 'I' for Inactive)
REMARK    1  A    between atoms: C_1  and  C_2
REMARK    2  A    between atoms: C_5  and  S_6
REMARK    3  A    between atoms: S_6  and  N_9
REMARK    4  A    between atoms: N_9  and  C_10
REMARK    5  A    between atoms: C_14  and  C_15
REMARK    6  A    between atoms: N_17  and  C_18
REMARK    7  A    between atoms: C_22  and  C_23
REMARK    8  A    between atoms: C_24  and  C_25
REMARK                            x       y       z     vdW  Elec       q    Type
REMARK                         _______ _______ _______ _____ _____    ______ ____
ROOT
ATOM      1  C   UNL     1       2.599   7.288  18.622  0.00  0.00    +0.000 C 
ATOM      2  O   UNL     1       2.336   7.289  19.821  0.00  0.00    +0.000 OA
ATOM      3  N   UNL     1       2.222   8.274  17.713  0.00  0.00    +0.000 N 
ATOM      4  H   UNL     1       2.372   8.087  16.729  0.00  0.00    +0.000 HD
ENDROOT
BRANCH   1  11
ATOM      5  C   UNL     1       1.258   4.626  18.063  0.00  0.00    +0.000 C 
ATOM      6  C   UNL     1       2.728   4.864  17.828  0.00  0.00    +0.000 A 
ATOM      7  C   UNL     1       3.488   3.768  17.371  0.00  0.00    +0.000 A 
ATOM      8  C   UNL     1       4.856   3.883  17.155  0.00  0.00    +0.000 A 
ATOM      9  C   UNL     1       5.482   5.100  17.416  0.00  0.00    +0.000 A 
ATOM     10  C   UNL     1       4.753   6.212  17.872  0.00  0.00    +0.000 A 
ATOM     11  C   UNL     1       3.365   6.109  18.073  0.00  0.00    +0.000 A 
BRANCH   9  12
ATOM     12  S   UNL     1       7.239   5.217  17.157  0.00  0.00    +0.000 S 
ATOM     13  O   UNL     1       7.523   6.580  16.761  0.00  0.00    +0.000 OA
ATOM     14  O   UNL     1       7.897   4.601  18.287  0.00  0.00    +0.000 OA
BRANCH  12  15
ATOM     15  N   UNL     1       7.465   4.250  15.788  0.00  0.00    +0.000 NA
ATOM     16  H   UNL     1       7.191   3.280  15.978  0.00  0.00    +0.000 HD
BRANCH  15  17
ATOM     17  C   UNL     1       7.069   4.813  14.502  0.00  0.00    +0.000 C 
ATOM     18  C   UNL     1       6.527   3.938  13.407  0.00  0.00    +0.000 C 
ATOM     19  C   UNL     1       5.627   4.919  14.101  0.00  0.00    +0.000 C 
ENDBRANCH  15  17
ENDBRANCH  12  15
ENDBRANCH   9  12
ENDBRANCH   1  11
BRANCH   3  20
ATOM     20  C   UNL     1       1.501   9.469  18.014  0.00  0.00    +0.000 A 
ATOM     21  C   UNL     1       0.106   9.516  18.125  0.00  0.00    +0.000 A 
ATOM     22  C   UNL     1      -0.564  10.715  18.395  0.00  0.00    +0.000 A 
ATOM     23  C   UNL     1       0.153  11.895  18.563  0.00  0.00    +0.000 A 
ATOM     24  C   UNL     1       1.545  11.872  18.487  0.00  0.00    +0.000 A 
ATOM     25  C   UNL     1       2.218  10.662  18.216  0.00  0.00    +0.000 A 
BRANCH  24  26
ATOM     26  C   UNL     1       2.262  13.096  18.705  0.00  0.00    +0.000 C 
ATOM     27  C   UNL     1       2.864  14.103  18.906  0.00  0.00    +0.000 C 
BRANCH  27  28
ATOM     28  C   UNL     1       3.732  15.222  19.152  0.00  0.00    +0.000 A 
ATOM     29  C   UNL     1       4.927  15.296  18.459  0.00  0.00    +0.000 A 
ATOM     30  C   UNL     1       5.749  16.393  18.682  0.00  0.00    +0.000 A 
ATOM     31  C   UNL     1       5.433  17.276  19.705  0.00  0.00    +0.000 A 
ATOM     32  C   UNL     1       4.202  17.138  20.329  0.00  0.00    +0.000 A 
ATOM     33  N   UNL     1       3.326  16.137  20.057  0.00  0.00    +0.000 NA
ENDBRANCH  27  28
ENDBRANCH  24  26
ENDBRANCH   3  20
TORSDOF 7
ENDMDL
MODEL 7
REMARK VINA RESULT:      -8.1      3.350      4.107
REMARK  Name = 
REMARK  8 active torsions:
REMARK  status: ('A' for Active; 'I' for Inactive)
REMARK    1  A    between atoms: C_1  and  C_2
REMARK    2  A    between atoms: C_5  and  S_6
REMARK    3  A    between atoms: S_6  and  N_9
REMARK    4  A    between atoms: N_9  and  C_10
REMARK    5  A    between atoms: C_14  and  C_15
REMARK    6  A    between atoms: N_17  and  C_18
REMARK    7  A    between atoms: C_22  and  C_23
REMARK    8  A    between atoms: C_24  and  C_25
REMARK                            x       y       z     vdW  Elec       q    Type
REMARK                         _______ _______ _______ _____ _____    ______ ____
ROOT
ATOM      1  C   UNL     1       2.745   6.150  19.422  0.00  0.00    +0.000 C 
ATOM      2  O   UNL     1       2.959   5.846  20.591  0.00  0.00    +0.000 OA
ATOM      3  N   UNL     1       2.077   7.298  18.997  0.00  0.00    +0.000 N 
ATOM      4  H   UNL     1       1.836   7.363  18.016  0.00  0.00    +0.000 HD
ENDROOT
BRANCH   1  11
ATOM      5  C   UNL     1       1.199   3.633  18.740  0.00  0.00    +0.000 C 
ATOM      6  C   UNL     1       2.485   4.012  18.051  0.00  0.00    +0.000 A 
ATOM      7  C   UNL     1       2.981   3.113  17.085  0.00  0.00    +0.000 A 
ATOM      8  C   UNL     1       4.175   3.363  16.418  0.00  0.00    +0.000 A 
ATOM      9  C   UNL     1       4.896   4.514  16.730  0.00  0.00    +0.000 A 
ATOM     10  C   UNL     1       4.428   5.430  17.687  0.00  0.00    +0.000 A 
ATOM     11  C   UNL     1       3.211   5.194  18.351  0.00  0.00    +0.000 A 
BRANCH   9  12
ATOM     12  S   UNL     1       6.434   4.800  15.883  0.00  0.00    +0.000 S 
ATOM     13  O   UNL     1       6.336   6.094  15.241  0.00  0.00    +0.000 OA
ATOM     14  O   UNL     1       7.510   4.484  16.795  0.00  0.00    +0.000 OA
BRANCH  12  15
ATOM     15  N   UNL     1       6.390   3.637  14.654  0.00  0.00    +0.000 NA
ATOM     16  H   UNL     1       5.916   2.786  14.976  0.00  0.00    +0.000 HD
BRANCH  15  17
ATOM     17  C   UNL     1       6.079   4.103  13.308  0.00  0.00    +0.000 C 
ATOM     18  C   UNL     1       6.999   3.811  12.156  0.00  0.00    +0.000 C 
ATOM     19  C   UNL     1       5.651   3.155  12.227  0.00  0.00    +0.000 C 
ENDBRANCH  15  17
ENDBRANCH  12  15
ENDBRANCH   9  12
ENDBRANCH   1  11
BRANCH   3  20
ATOM     20  C   UNL     1       1.559   8.332  19.833  0.00  0.00    +0.000 A 
ATOM     21  C   UNL     1       1.111   8.109  21.140  0.00  0.00    +0.000 A 
ATOM     22  C   UNL     1       0.584   9.147  21.918  0.00  0.00    +0.000 A 
ATOM     23  C   UNL     1       0.500  10.435  21.401  0.00  0.00    +0.000 A 
ATOM     24  C   UNL     1       0.967  10.692  20.113  0.00  0.00    +0.000 A 
ATOM     25  C   UNL     1       1.498   9.644  19.332  0.00  0.00    +0.000 A 
BRANCH  24  26
ATOM     26  C   UNL     1       0.905  12.039  19.619  0.00  0.00    +0.000 C 
ATOM     27  C   UNL     1       0.855  13.162  19.231  0.00  0.00    +0.000 C 
BRANCH  27  28
ATOM     28  C   UNL     1       0.946  14.542  18.837  0.00  0.00    +0.000 A 
ATOM     29  C   UNL     1       2.197  15.074  18.580  0.00  0.00    +0.000 A 
ATOM     30  C   UNL     1       2.276  16.401  18.176  0.00  0.00    +0.000 A 
ATOM     31  C   UNL     1       1.133  17.186  18.209  0.00  0.00    +0.000 A 
ATOM     32  C   UNL     1      -0.081  16.561  18.454  0.00  0.00    +0.000 A 
ATOM     33  N   UNL     1      -0.205  15.241  18.747  0.00  0.00    +0.000 NA
ENDBRANCH  27  28
ENDBRANCH  24  26
ENDBRANCH   3  20
TORSDOF 7
ENDMDL
MODEL 8
REMARK VINA RESULT:      -8.1      3.564      4.666
REMARK  Name = 
REMARK  8 active torsions:
REMARK  status: ('A' for Active; 'I' for Inactive)
REMARK    1  A    between atoms: C_1  and  C_2
REMARK    2  A    between atoms: C_5  and  S_6
REMARK    3  A    between atoms: S_6  and  N_9
REMARK    4  A    between atoms: N_9  and  C_10
REMARK    5  A    between atoms: C_14  and  C_15
REMARK    6  A    between atoms: N_17  and  C_18
REMARK    7  A    between atoms: C_22  and  C_23
REMARK    8  A    between atoms: C_24  and  C_25
REMARK                            x       y       z     vdW  Elec       q    Type
REMARK                         _______ _______ _______ _____ _____    ______ ____
ROOT
ATOM      1  C   UNL     1       2.379   7.128  18.976  0.00  0.00    +0.000 C 
ATOM      2  O   UNL     1       2.002   7.697  17.957  0.00  0.00    +0.000 OA
ATOM      3  N   UNL     1       2.099   7.537  20.279  0.00  0.00    +0.000 N 
ATOM      4  H   UNL     1       2.586   7.069  21.032  0.00  0.00    +0.000 HD
ENDROOT
BRANCH   1  11
ATOM      5  C   UNL     1       1.512   4.411  20.007  0.00  0.00    +0.000 C 
ATOM      6  C   UNL     1       2.832   4.638  19.316  0.00  0.00    +0.000 A 
ATOM      7  C   UNL     1       3.692   3.527  19.201  0.00  0.00    +0.000 A 
ATOM      8  C   UNL     1       4.943   3.645  18.606  0.00  0.00    +0.000 A 
ATOM      9  C   UNL     1       5.352   4.891  18.135  0.00  0.00    +0.000 A 
ATOM     10  C   UNL     1       4.519   6.018  18.234  0.00  0.00    +0.000 A 
ATOM     11  C   UNL     1       3.244   5.901  18.816  0.00  0.00    +0.000 A 
BRANCH   9  12
ATOM     12  S   UNL     1       6.968   5.024  17.401  0.00  0.00    +0.000 S 
ATOM     13  O   UNL     1       7.102   6.378  16.904  0.00  0.00    +0.000 OA
ATOM     14  O   UNL     1       7.924   4.456  18.324  0.00  0.00    +0.000 OA
BRANCH  12  15
ATOM     15  N   UNL     1       6.833   4.015  16.050  0.00  0.00    +0.000 NA
ATOM     16  H   UNL     1       6.523   3.077  16.326  0.00  0.00    +0.000 HD
BRANCH  15  17
ATOM     17  C   UNL     1       6.234   4.587  14.849  0.00  0.00    +0.000 C 
ATOM     18  C   UNL     1       7.050   4.810  13.607  0.00  0.00    +0.000 C 
ATOM     19  C   UNL     1       5.980   3.758  13.625  0.00  0.00    +0.000 C 
ENDBRANCH  15  17
ENDBRANCH  12  15
ENDBRANCH   9  12
ENDBRANCH   1  11
BRANCH   3  20
ATOM     20  C   UNL     1       1.302   8.659  20.658  0.00  0.00    +0.000 A 
ATOM     21  C   UNL     1       0.249   8.576  21.578  0.00  0.00    +0.000 A 
ATOM     22  C   UNL     1      -0.526   9.696  21.901  0.00  0.00    +0.000 A 
ATOM     23  C   UNL     1      -0.257  10.927  21.312  0.00  0.00    +0.000 A 
ATOM     24  C   UNL     1       0.804  11.045  20.416  0.00  0.00    +0.000 A 
ATOM     25  C   UNL     1       1.584   9.914  20.092  0.00  0.00    +0.000 A 
BRANCH  24  26
ATOM     26  C   UNL     1       1.084  12.335  19.853  0.00  0.00    +0.000 C 
ATOM     27  C   UNL     1       1.335  13.406  19.401  0.00  0.00    +0.000 C 
BRANCH  27  28
ATOM     28  C   UNL     1       1.785  14.632  18.798  0.00  0.00    +0.000 A 
ATOM     29  C   UNL     1       0.964  15.744  18.869  0.00  0.00    +0.000 A 
ATOM     30  C   UNL     1       1.416  16.931  18.307  0.00  0.00    +0.000 A 
ATOM     31  C   UNL     1       2.581  16.920  17.554  0.00  0.00    +0.000 A 
ATOM     32  C   UNL     1       3.352  15.768  17.560  0.00  0.00    +0.000 A 
ATOM     33  N   UNL     1       2.990  14.621  18.190  0.00  0.00    +0.000 NA
ENDBRANCH  27  28
ENDBRANCH  24  26
ENDBRANCH   3  20
TORSDOF 7
ENDMDL
MODEL 9
REMARK VINA RESULT:      -8.1      1.997      2.174
REMARK  Name = 
REMARK  8 active torsions:
REMARK  status: ('A' for Active; 'I' for Inactive)
REMARK    1  A    between atoms: C_1  and  C_2
REMARK    2  A    between atoms: C_5  and  S_6
REMARK    3  A    between atoms: S_6  and  N_9
REMARK    4  A    between atoms: N_9  and  C_10
REMARK    5  A    between atoms: C_14  and  C_15
REMARK    6  A    between atoms: N_17  and  C_18
REMARK    7  A    between atoms: C_22  and  C_23
REMARK    8  A    between atoms: C_24  and  C_25
REMARK                            x       y       z     vdW  Elec       q    Type
REMARK                         _______ _______ _______ _____ _____    ______ ____
ROOT
ATOM      1  C   UNL     1       2.622   7.132  18.886  0.00  0.00    +0.000 C 
ATOM      2  O   UNL     1       2.362   7.931  17.992  0.00  0.00    +0.000 OA
ATOM      3  N   UNL     1       2.230   7.257  20.218  0.00  0.00    +0.000 N 
ATOM      4  H   UNL     1       2.629   6.609  20.887  0.00  0.00    +0.000 HD
ENDROOT
BRANCH   1  11
ATOM      5  C   UNL     1       1.488   4.321  18.936  0.00  0.00    +0.000 C 
ATOM      6  C   UNL     1       2.920   4.616  18.571  0.00  0.00    +0.000 A 
ATOM      7  C   UNL     1       3.749   3.511  18.289  0.00  0.00    +0.000 A 
ATOM      8  C   UNL     1       5.092   3.682  17.972  0.00  0.00    +0.000 A 
ATOM      9  C   UNL     1       5.623   4.970  17.954  0.00  0.00    +0.000 A 
ATOM     10  C   UNL     1       4.824   6.093  18.230  0.00  0.00    +0.000 A 
ATOM     11  C   UNL     1       3.460   5.928  18.530  0.00  0.00    +0.000 A 
BRANCH   9  12
ATOM     12  S   UNL     1       7.350   5.164  17.571  0.00  0.00    +0.000 S 
ATOM     13  O   UNL     1       7.558   6.553  17.223  0.00  0.00    +0.000 OA
ATOM     14  O   UNL     1       8.112   4.521  18.618  0.00  0.00    +0.000 OA
BRANCH  12  15
ATOM     15  N   UNL     1       7.504   4.270  16.143  0.00  0.00    +0.000 NA
ATOM     16  H   UNL     1       7.308   3.277  16.313  0.00  0.00    +0.000 HD
BRANCH  15  17
ATOM     17  C   UNL     1       6.956   4.859  14.927  0.00  0.00    +0.000 C 
ATOM     18  C   UNL     1       6.484   3.994  13.793  0.00  0.00    +0.000 C 
ATOM     19  C   UNL     1       5.493   4.777  14.604  0.00  0.00    +0.000 C 
ENDBRANCH  15  17
ENDBRANCH  12  15
ENDBRANCH   9  12
ENDBRANCH   1  11
BRANCH   3  20
ATOM     20  C   UNL     1       1.436   8.307  20.770  0.00  0.00    +0.000 A 
ATOM     21  C   UNL     1       1.620   8.809  22.064  0.00  0.00    +0.000 A 
ATOM     22  C   UNL     1       0.799   9.821  22.576  0.00  0.00    +0.000 A 
ATOM     23  C   UNL     1      -0.222  10.356  21.798  0.00  0.00    +0.000 A 
ATOM     24  C   UNL     1      -0.409   9.895  20.496  0.00  0.00    +0.000 A 
ATOM     25  C   UNL     1       0.420   8.875  19.982  0.00  0.00    +0.000 A 
BRANCH  24  26
ATOM     26  C   UNL     1      -1.445  10.492  19.701  0.00  0.00    +0.000 C 
ATOM     27  C   UNL     1      -2.312  10.965  19.039  0.00  0.00    +0.000 C 
BRANCH  27  28
ATOM     28  C   UNL     1      -3.469  11.477  18.356  0.00  0.00    +0.000 A 
ATOM     29  C   UNL     1      -4.458  12.093  19.101  0.00  0.00    +0.000 A 
ATOM     30  C   UNL     1      -5.561  12.608  18.432  0.00  0.00    +0.000 A 
ATOM     31  C   UNL     1      -5.716  12.339  17.080  0.00  0.00    +0.000 A 
ATOM     32  C   UNL     1      -4.662  11.736  16.409  0.00  0.00    +0.000 A 
ATOM     33  N   UNL     1      -3.522  11.318  17.017  0.00  0.00    +0.000 NA
ENDBRANCH  27  28
ENDBRANCH  24  26
ENDBRANCH   3  20
TORSDOF 7
ENDMDL
