MODEL 1
REMARK VINA RESULT:      -8.4      0.000      0.000
REMARK  Name = 
REMARK  8 active torsions:
REMARK  status: ('A' for Active; 'I' for Inactive)
REMARK    1  A    between atoms: C_1  and  C_2
REMARK    2  A    between atoms: C_4  and  N_5
REMARK    3  A    between atoms: C_8  and  N_9
REMARK    4  A    between atoms: C_10  and  C_12
REMARK    5  A    between atoms: C_16  and  C_17
REMARK    6  A    between atoms: N_19  and  C_20
REMARK    7  A    between atoms: C_25  and  C_26
REMARK    8  A    between atoms: C_28  and  N_29
REMARK                            x       y       z     vdW  Elec       q    Type
REMARK                         _______ _______ _______ _____ _____    ______ ____
ROOT
ATOM      1  C   UNL     1       0.820   9.343  20.794  0.00  0.00    +0.000 A 
ATOM      2  C   UNL     1       1.046   8.858  22.090  0.00  0.00    +0.000 A 
ATOM      3  C   UNL     1       0.378   9.429  23.167  0.00  0.00    +0.000 A 
ATOM      4  C   UNL     1      -0.499  10.489  22.949  0.00  0.00    +0.000 A 
ATOM      5  C   UNL     1      -0.706  11.011  21.660  0.00  0.00    +0.000 A 
ATOM      6  C   UNL     1      -0.039  10.436  20.576  0.00  0.00    +0.000 A 
ENDROOT
BRANCH   1   8
ATOM      7  N   UNL     1       1.993   7.443  19.849  0.00  0.00    +0.000 N 
ATOM      8  C   UNL     1       1.487   8.714  19.624  0.00  0.00    +0.000 C 
ATOM      9  O   UNL     1       1.481   9.329  18.563  0.00  0.00    +0.000 OA
ATOM     10  H   UNL     1       1.719   6.979  20.706  0.00  0.00    +0.000 HD
BRANCH   7  17
ATOM     11  C   UNL     1       6.408   3.585  14.640  0.00  0.00    +0.000 C 
ATOM     12  C   UNL     1       5.786   4.557  15.594  0.00  0.00    +0.000 A 
ATOM     13  C   UNL     1       6.424   5.746  15.914  0.00  0.00    +0.000 A 
ATOM     14  C   UNL     1       5.806   6.640  16.788  0.00  0.00    +0.000 A 
ATOM     15  C   UNL     1       4.591   6.257  17.404  0.00  0.00    +0.000 A 
ATOM     16  C   UNL     1       3.918   7.049  18.364  0.00  0.00    +0.000 A 
ATOM     17  C   UNL     1       2.704   6.655  18.922  0.00  0.00    +0.000 A 
ATOM     18  C   UNL     1       2.174   5.420  18.560  0.00  0.00    +0.000 A 
ATOM     19  C   UNL     1       2.833   4.626  17.615  0.00  0.00    +0.000 A 
ATOM     20  C   UNL     1       4.027   5.022  17.025  0.00  0.00    +0.000 A 
ATOM     21  N   UNL     1       4.599   4.200  16.132  0.00  0.00    +0.000 NA
BRANCH  14  22
ATOM     22  N   UNL     1       6.526   7.787  17.188  0.00  0.00    +0.000 N 
ATOM     23  H   UNL     1       5.944   8.527  17.565  0.00  0.00    +0.000 HD
ATOM     24  H   UNL     1       7.312   7.588  17.800  0.00  0.00    +0.000 HD
ENDBRANCH  14  22
ENDBRANCH   7  17
ENDBRANCH   1   8
BRANCH   5  25
ATOM     25  C   UNL     1      -1.703  12.113  21.540  0.00  0.00    +0.000 C 
ATOM     26  O   UNL     1      -1.450  12.986  20.714  0.00  0.00    +0.000 OA
ATOM     27  N   UNL     1      -2.816  12.081  22.367  0.00  0.00    +0.000 N 
ATOM     28  H   UNL     1      -2.880  11.361  23.071  0.00  0.00    +0.000 HD
BRANCH  27  29
ATOM     29  C   UNL     1      -3.863  13.042  22.353  0.00  0.00    +0.000 A 
ATOM     30  C   UNL     1      -4.880  13.046  21.403  0.00  0.00    +0.000 A 
ATOM     31  C   UNL     1      -5.849  14.051  21.399  0.00  0.00    +0.000 A 
ATOM     32  C   UNL     1      -5.839  15.078  22.321  0.00  0.00    +0.000 A 
ATOM     33  N   UNL     1      -6.795  16.011  22.213  0.00  0.00    +0.000 NA
ATOM     34  C   UNL     1      -6.827  17.011  23.114  0.00  0.00    +0.000 A 
ATOM     35  C   UNL     1      -7.915  18.031  22.960  0.00  0.00    +0.000 C 
ATOM     36  C   UNL     1      -5.899  17.116  24.138  0.00  0.00    +0.000 A 
ATOM     37  C   UNL     1      -4.860  16.184  24.224  0.00  0.00    +0.000 A 
ATOM     38  C   UNL     1      -4.838  15.092  23.319  0.00  0.00    +0.000 A 
ATOM     39  C   UNL     1      -3.875  14.041  23.332  0.00  0.00    +0.000 A 
BRANCH  37  40
ATOM     40  N   UNL     1      -3.994  16.257  25.336  0.00  0.00    +0.000 N 
ATOM     41  H   UNL     1      -3.382  15.450  25.426  0.00  0.00    +0.000 HD
ATOM     42  H   UNL     1      -4.463  16.462  26.211  0.00  0.00    +0.000 HD
ENDBRANCH  37  40
ENDBRANCH  27  29
ENDBRANCH   5  25
TORSDOF 6
ENDMDL
MODEL 2
REMARK VINA RESULT:      -8.3      6.021      9.187
REMARK  Name = 
REMARK  8 active torsions:
REMARK  status: ('A' for Active; 'I' for Inactive)
REMARK    1  A    between atoms: C_1  and  C_2
REMARK    2  A    between atoms: C_4  and  N_5
REMARK    3  A    between atoms: C_8  and  N_9
REMARK    4  A    between atoms: C_10  and  C_12
REMARK    5  A    between atoms: C_16  and  C_17
REMARK    6  A    between atoms: N_19  and  C_20
REMARK    7  A    between atoms: C_25  and  C_26
REMARK    8  A    between atoms: C_28  and  N_29
REMARK                            x       y       z     vdW  Elec       q    Type
REMARK                         _______ _______ _______ _____ _____    ______ ____
ROOT
ATOM      1  C   UNL     1       0.776  11.514  18.667  0.00  0.00    +0.000 A 
ATOM      2  C   UNL     1      -0.425  12.211  18.477  0.00  0.00    +0.000 A 
ATOM      3  C   UNL     1      -0.442  13.597  18.571  0.00  0.00    +0.000 A 
ATOM      4  C   UNL     1       0.734  14.281  18.870  0.00  0.00    +0.000 A 
ATOM      5  C   UNL     1       1.939  13.593  19.104  0.00  0.00    +0.000 A 
ATOM      6  C   UNL     1       1.958  12.200  19.005  0.00  0.00    +0.000 A 
ENDROOT
BRANCH   1   8
ATOM      7  N   UNL     1       1.786   9.402  19.296  0.00  0.00    +0.000 N 
ATOM      8  C   UNL     1       0.826  10.036  18.522  0.00  0.00    +0.000 C 
ATOM      9  O   UNL     1      -0.005   9.503  17.795  0.00  0.00    +0.000 OA
ATOM     10  H   UNL     1       2.241   9.951  20.015  0.00  0.00    +0.000 HD
BRANCH   7  17
ATOM     11  C   UNL     1       3.693   1.813  18.763  0.00  0.00    +0.000 C 
ATOM     12  C   UNL     1       3.493   3.286  18.585  0.00  0.00    +0.000 A 
ATOM     13  C   UNL     1       4.125   3.970  17.557  0.00  0.00    +0.000 A 
ATOM     14  C   UNL     1       3.898   5.337  17.405  0.00  0.00    +0.000 A 
ATOM     15  C   UNL     1       3.110   6.006  18.371  0.00  0.00    +0.000 A 
ATOM     16  C   UNL     1       2.878   7.402  18.360  0.00  0.00    +0.000 A 
ATOM     17  C   UNL     1       2.066   8.021  19.308  0.00  0.00    +0.000 A 
ATOM     18  C   UNL     1       1.515   7.243  20.323  0.00  0.00    +0.000 A 
ATOM     19  C   UNL     1       1.740   5.862  20.346  0.00  0.00    +0.000 A 
ATOM     20  C   UNL     1       2.521   5.227  19.388  0.00  0.00    +0.000 A 
ATOM     21  N   UNL     1       2.693   3.900  19.484  0.00  0.00    +0.000 NA
BRANCH  14  22
ATOM     22  N   UNL     1       4.641   6.031  16.426  0.00  0.00    +0.000 N 
ATOM     23  H   UNL     1       5.607   5.732  16.354  0.00  0.00    +0.000 HD
ATOM     24  H   UNL     1       4.196   6.061  15.513  0.00  0.00    +0.000 HD
ENDBRANCH  14  22
ENDBRANCH   7  17
ENDBRANCH   1   8
BRANCH   5  25
ATOM     25  C   UNL     1       3.144  14.430  19.368  0.00  0.00    +0.000 C 
ATOM     26  O   UNL     1       3.220  14.934  20.486  0.00  0.00    +0.000 OA
ATOM     27  N   UNL     1       4.066  14.591  18.344  0.00  0.00    +0.000 N 
ATOM     28  H   UNL     1       3.859  14.202  17.436  0.00  0.00    +0.000 HD
BRANCH  27  29
ATOM     29  C   UNL     1       5.272  15.335  18.451  0.00  0.00    +0.000 A 
ATOM     30  C   UNL     1       5.312  16.667  18.851  0.00  0.00    +0.000 A 
ATOM     31  C   UNL     1       6.519  17.367  18.879  0.00  0.00    +0.000 A 
ATOM     32  C   UNL     1       7.712  16.781  18.509  0.00  0.00    +0.000 A 
ATOM     33  N   UNL     1       8.811  17.547  18.541  0.00  0.00    +0.000 NA
ATOM     34  C   UNL     1       9.994  16.997  18.211  0.00  0.00    +0.000 A 
ATOM     35  C   UNL     1      11.198  17.888  18.264  0.00  0.00    +0.000 C 
ATOM     36  C   UNL     1      10.113  15.670  17.827  0.00  0.00    +0.000 A 
ATOM     37  C   UNL     1       8.964  14.877  17.729  0.00  0.00    +0.000 A 
ATOM     38  C   UNL     1       7.716  15.421  18.124  0.00  0.00    +0.000 A 
ATOM     39  C   UNL     1       6.482  14.707  18.132  0.00  0.00    +0.000 A 
BRANCH  37  40
ATOM     40  N   UNL     1       9.130  13.505  17.438  0.00  0.00    +0.000 N 
ATOM     41  H   UNL     1       9.400  12.950  18.245  0.00  0.00    +0.000 HD
ATOM     42  H   UNL     1       9.734  13.322  16.646  0.00  0.00    +0.000 HD
ENDBRANCH  37  40
ENDBRANCH  27  29
ENDBRANCH   5  25
TORSDOF 6
ENDMDL
MODEL 3
REMARK VINA RESULT:      -8.2      0.919      1.383
REMARK  Name = 
REMARK  8 active torsions:
REMARK  status: ('A' for Active; 'I' for Inactive)
REMARK    1  A    between atoms: C_1  and  C_2
REMARK    2  A    between atoms: C_4  and  N_5
REMARK    3  A    between atoms: C_8  and  N_9
REMARK    4  A    between atoms: C_10  and  C_12
REMARK    5  A    between atoms: C_16  and  C_17
REMARK    6  A    between atoms: N_19  and  C_20
REMARK    7  A    between atoms: C_25  and  C_26
REMARK    8  A    between atoms: C_28  and  N_29
REMARK                            x       y       z     vdW  Elec       q    Type
REMARK                         _______ _______ _______ _____ _____    ______ ____
ROOT
ATOM      1  C   UNL     1       0.719   9.326  20.760  0.00  0.00    +0.000 A 
ATOM      2  C   UNL     1       0.927   8.841  22.059  0.00  0.00    +0.000 A 
ATOM      3  C   UNL     1       0.279   9.441  23.132  0.00  0.00    +0.000 A 
ATOM      4  C   UNL     1      -0.560  10.531  22.907  0.00  0.00    +0.000 A 
ATOM      5  C   UNL     1      -0.746  11.053  21.615  0.00  0.00    +0.000 A 
ATOM      6  C   UNL     1      -0.099  10.447  20.535  0.00  0.00    +0.000 A 
ENDROOT
BRANCH   1   8
ATOM      7  N   UNL     1       1.975   7.453  19.869  0.00  0.00    +0.000 N 
ATOM      8  C   UNL     1       1.364   8.667  19.594  0.00  0.00    +0.000 C 
ATOM      9  O   UNL     1       1.253   9.206  18.498  0.00  0.00    +0.000 OA
ATOM     10  H   UNL     1       1.785   7.030  20.770  0.00  0.00    +0.000 HD
BRANCH   7  17
ATOM     11  C   UNL     1       6.408   3.539  14.717  0.00  0.00    +0.000 C 
ATOM     12  C   UNL     1       5.783   4.522  15.659  0.00  0.00    +0.000 A 
ATOM     13  C   UNL     1       6.420   5.714  15.969  0.00  0.00    +0.000 A 
ATOM     14  C   UNL     1       5.799   6.617  16.831  0.00  0.00    +0.000 A 
ATOM     15  C   UNL     1       4.582   6.240  17.447  0.00  0.00    +0.000 A 
ATOM     16  C   UNL     1       3.905   7.043  18.395  0.00  0.00    +0.000 A 
ATOM     17  C   UNL     1       2.689   6.654  18.954  0.00  0.00    +0.000 A 
ATOM     18  C   UNL     1       2.160   5.415  18.602  0.00  0.00    +0.000 A 
ATOM     19  C   UNL     1       2.822   4.612  17.668  0.00  0.00    +0.000 A 
ATOM     20  C   UNL     1       4.019   5.001  17.079  0.00  0.00    +0.000 A 
ATOM     21  N   UNL     1       4.594   4.170  16.196  0.00  0.00    +0.000 NA
BRANCH  14  22
ATOM     22  N   UNL     1       6.517   7.768  17.221  0.00  0.00    +0.000 N 
ATOM     23  H   UNL     1       7.132   7.619  18.013  0.00  0.00    +0.000 HD
ATOM     24  H   UNL     1       7.004   8.229  16.458  0.00  0.00    +0.000 HD
ENDBRANCH  14  22
ENDBRANCH   7  17
ENDBRANCH   1   8
BRANCH   5  25
ATOM     25  C   UNL     1      -1.703  12.189  21.487  0.00  0.00    +0.000 C 
ATOM     26  O   UNL     1      -2.060  12.472  20.346  0.00  0.00    +0.000 OA
ATOM     27  N   UNL     1      -2.101  12.843  22.644  0.00  0.00    +0.000 N 
ATOM     28  H   UNL     1      -1.677  12.581  23.522  0.00  0.00    +0.000 HD
BRANCH  27  29
ATOM     29  C   UNL     1      -3.024  13.922  22.687  0.00  0.00    +0.000 A 
ATOM     30  C   UNL     1      -2.651  15.251  22.512  0.00  0.00    +0.000 A 
ATOM     31  C   UNL     1      -3.591  16.277  22.625  0.00  0.00    +0.000 A 
ATOM     32  C   UNL     1      -4.915  16.024  22.921  0.00  0.00    +0.000 A 
ATOM     33  N   UNL     1      -5.731  17.081  23.039  0.00  0.00    +0.000 NA
ATOM     34  C   UNL     1      -7.034  16.865  23.300  0.00  0.00    +0.000 A 
ATOM     35  C   UNL     1      -7.913  18.074  23.420  0.00  0.00    +0.000 C 
ATOM     36  C   UNL     1      -7.556  15.592  23.465  0.00  0.00    +0.000 A 
ATOM     37  C   UNL     1      -6.703  14.485  23.406  0.00  0.00    +0.000 A 
ATOM     38  C   UNL     1      -5.338  14.686  23.078  0.00  0.00    +0.000 A 
ATOM     39  C   UNL     1      -4.375  13.644  22.926  0.00  0.00    +0.000 A 
BRANCH  37  40
ATOM     40  N   UNL     1      -7.280  13.199  23.473  0.00  0.00    +0.000 N 
ATOM     41  H   UNL     1      -7.641  12.965  24.394  0.00  0.00    +0.000 HD
ATOM     42  H   UNL     1      -6.688  12.461  23.112  0.00  0.00    +0.000 HD
ENDBRANCH  37  40
ENDBRANCH  27  29
ENDBRANCH   5  25
TORSDOF 6
ENDMDL
MODEL 4
REMARK VINA RESULT:      -8.1      6.240      9.522
REMARK  Name = 
REMARK  8 active torsions:
REMARK  status: ('A' for Active; 'I' for Inactive)
REMARK    1  A    between atoms: C_1  and  C_2
REMARK    2  A    between atoms: C_4  and  N_5
REMARK    3  A    between atoms: C_8  and  N_9
REMARK    4  A    between atoms: C_10  and  C_12
REMARK    5  A    between atoms: C_16  and  C_17
REMARK    6  A    between atoms: N_19  and  C_20
REMARK    7  A    between atoms: C_25  and  C_26
REMARK    8  A    between atoms: C_28  and  N_29
REMARK                            x       y       z     vdW  Elec       q    Type
REMARK                         _______ _______ _______ _____ _____    ______ ____
ROOT
ATOM      1  C   UNL     1       1.209  11.554  18.513  0.00  0.00    +0.000 A 
ATOM      2  C   UNL     1       0.037  12.179  18.962  0.00  0.00    +0.000 A 
ATOM      3  C   UNL     1       0.015  13.557  19.142  0.00  0.00    +0.000 A 
ATOM      4  C   UNL     1       1.164  14.303  18.890  0.00  0.00    +0.000 A 
ATOM      5  C   UNL     1       2.359  13.685  18.478  0.00  0.00    +0.000 A 
ATOM      6  C   UNL     1       2.381  12.300  18.292  0.00  0.00    +0.000 A 
ENDROOT
BRANCH   1   8
ATOM      7  N   UNL     1       2.457   9.476  18.522  0.00  0.00    +0.000 N 
ATOM      8  C   UNL     1       1.239  10.089  18.267  0.00  0.00    +0.000 C 
ATOM      9  O   UNL     1       0.195   9.543  17.926  0.00  0.00    +0.000 OA
ATOM     10  H   UNL     1       3.156  10.018  19.015  0.00  0.00    +0.000 HD
BRANCH   7  17
ATOM     11  C   UNL     1       3.741   1.756  18.003  0.00  0.00    +0.000 C 
ATOM     12  C   UNL     1       3.318   3.147  18.362  0.00  0.00    +0.000 A 
ATOM     13  C   UNL     1       2.399   3.371  19.376  0.00  0.00    +0.000 A 
ATOM     14  C   UNL     1       2.045   4.680  19.701  0.00  0.00    +0.000 A 
ATOM     15  C   UNL     1       2.557   5.737  18.912  0.00  0.00    +0.000 A 
ATOM     16  C   UNL     1       2.205   7.095  19.101  0.00  0.00    +0.000 A 
ATOM     17  C   UNL     1       2.759   8.113  18.327  0.00  0.00    +0.000 A 
ATOM     18  C   UNL     1       3.642   7.770  17.307  0.00  0.00    +0.000 A 
ATOM     19  C   UNL     1       3.994   6.430  17.109  0.00  0.00    +0.000 A 
ATOM     20  C   UNL     1       3.475   5.408  17.893  0.00  0.00    +0.000 A 
ATOM     21  N   UNL     1       3.860   4.149  17.635  0.00  0.00    +0.000 NA
BRANCH  14  22
ATOM     22  N   UNL     1       1.023   4.877  20.654  0.00  0.00    +0.000 N 
ATOM     23  H   UNL     1       1.235   5.591  21.343  0.00  0.00    +0.000 HD
ATOM     24  H   UNL     1       0.102   5.018  20.250  0.00  0.00    +0.000 HD
ENDBRANCH  14  22
ENDBRANCH   7  17
ENDBRANCH   1   8
BRANCH   5  25
ATOM     25  C   UNL     1       3.510  14.587  18.190  0.00  0.00    +0.000 C 
ATOM     26  O   UNL     1       3.404  15.303  17.198  0.00  0.00    +0.000 OA
ATOM     27  N   UNL     1       4.606  14.540  19.040  0.00  0.00    +0.000 N 
ATOM     28  H   UNL     1       4.623  13.851  19.777  0.00  0.00    +0.000 HD
BRANCH  27  29
ATOM     29  C   UNL     1       5.764  15.354  18.913  0.00  0.00    +0.000 A 
ATOM     30  C   UNL     1       5.785  16.706  19.242  0.00  0.00    +0.000 A 
ATOM     31  C   UNL     1       6.934  17.472  19.038  0.00  0.00    +0.000 A 
ATOM     32  C   UNL     1       8.085  16.932  18.501  0.00  0.00    +0.000 A 
ATOM     33  N   UNL     1       9.124  17.759  18.316  0.00  0.00    +0.000 NA
ATOM     34  C   UNL     1      10.270  17.257  17.818  0.00  0.00    +0.000 A 
ATOM     35  C   UNL     1      11.408  18.214  17.631  0.00  0.00    +0.000 C 
ATOM     36  C   UNL     1      10.407  15.920  17.478  0.00  0.00    +0.000 A 
ATOM     37  C   UNL     1       9.310  15.061  17.608  0.00  0.00    +0.000 A 
ATOM     38  C   UNL     1       8.112  15.556  18.180  0.00  0.00    +0.000 A 
ATOM     39  C   UNL     1       6.942  14.777  18.425  0.00  0.00    +0.000 A 
BRANCH  37  40
ATOM     40  N   UNL     1       9.512  13.687  17.353  0.00  0.00    +0.000 N 
ATOM     41  H   UNL     1      10.259  13.504  16.688  0.00  0.00    +0.000 HD
ATOM     42  H   UNL     1       8.667  13.185  17.104  0.00  0.00    +0.000 HD
ENDBRANCH  37  40
ENDBRANCH  27  29
ENDBRANCH   5  25
TORSDOF 6
ENDMDL
MODEL 5
REMARK VINA RESULT:      -8.0      5.981     11.187
REMARK  Name = 
REMARK  8 active torsions:
REMARK  status: ('A' for Active; 'I' for Inactive)
REMARK    1  A    between atoms: C_1  and  C_2
REMARK    2  A    between atoms: C_4  and  N_5
REMARK    3  A    between atoms: C_8  and  N_9
REMARK    4  A    between atoms: C_10  and  C_12
REMARK    5  A    between atoms: C_16  and  C_17
REMARK    6  A    between atoms: N_19  and  C_20
REMARK    7  A    between atoms: C_25  and  C_26
REMARK    8  A    between atoms: C_28  and  N_29
REMARK                            x       y       z     vdW  Elec       q    Type
REMARK                         _______ _______ _______ _____ _____    ______ ____
ROOT
ATOM      1  C   UNL     1       2.067  13.640  19.016  0.00  0.00    +0.000 A 
ATOM      2  C   UNL     1       0.836  14.283  18.825  0.00  0.00    +0.000 A 
ATOM      3  C   UNL     1      -0.306  13.529  18.582  0.00  0.00    +0.000 A 
ATOM      4  C   UNL     1      -0.212  12.141  18.513  0.00  0.00    +0.000 A 
ATOM      5  C   UNL     1       1.023  11.485  18.662  0.00  0.00    +0.000 A 
ATOM      6  C   UNL     1       2.171  12.241  18.912  0.00  0.00    +0.000 A 
ENDROOT
BRANCH   1   8
ATOM      7  N   UNL     1       4.191  14.549  18.279  0.00  0.00    +0.000 N 
ATOM      8  C   UNL     1       3.291  14.425  19.327  0.00  0.00    +0.000 C 
ATOM      9  O   UNL     1       3.376  14.938  20.437  0.00  0.00    +0.000 OA
ATOM     10  H   UNL     1       3.875  14.265  17.359  0.00  0.00    +0.000 HD
BRANCH   7  17
ATOM     11  C   UNL     1      11.433  17.557  18.397  0.00  0.00    +0.000 C 
ATOM     12  C   UNL     1      10.206  16.704  18.308  0.00  0.00    +0.000 A 
ATOM     13  C   UNL     1      10.287  15.379  17.905  0.00  0.00    +0.000 A 
ATOM     14  C   UNL     1       9.128  14.606  17.856  0.00  0.00    +0.000 A 
ATOM     15  C   UNL     1       7.885  15.230  18.120  0.00  0.00    +0.000 A 
ATOM     16  C   UNL     1       6.641  14.563  18.024  0.00  0.00    +0.000 A 
ATOM     17  C   UNL     1       5.439  15.201  18.327  0.00  0.00    +0.000 A 
ATOM     18  C   UNL     1       5.470  16.547  18.681  0.00  0.00    +0.000 A 
ATOM     19  C   UNL     1       6.695  17.217  18.776  0.00  0.00    +0.000 A 
ATOM     20  C   UNL     1       7.902  16.585  18.509  0.00  0.00    +0.000 A 
ATOM     21  N   UNL     1       9.033  17.300  18.617  0.00  0.00    +0.000 NA
BRANCH  14  22
ATOM     22  N   UNL     1       9.220  13.299  17.333  0.00  0.00    +0.000 N 
ATOM     23  H   UNL     1       9.700  12.645  17.941  0.00  0.00    +0.000 HD
ATOM     24  H   UNL     1       8.334  12.920  17.011  0.00  0.00    +0.000 HD
ENDBRANCH  14  22
ENDBRANCH   7  17
ENDBRANCH   1   8
BRANCH   5  25
ATOM     25  C   UNL     1       0.995   9.995  18.618  0.00  0.00    +0.000 C 
ATOM     26  O   UNL     1      -0.027   9.484  18.166  0.00  0.00    +0.000 OA
ATOM     27  N   UNL     1       2.099   9.305  19.098  0.00  0.00    +0.000 N 
ATOM     28  H   UNL     1       2.850   9.825  19.528  0.00  0.00    +0.000 HD
BRANCH  27  29
ATOM     29  C   UNL     1       2.232   7.891  19.099  0.00  0.00    +0.000 A 
ATOM     30  C   UNL     1       1.600   7.067  20.026  0.00  0.00    +0.000 A 
ATOM     31  C   UNL     1       1.815   5.687  20.017  0.00  0.00    +0.000 A 
ATOM     32  C   UNL     1       2.659   5.086  19.106  0.00  0.00    +0.000 A 
ATOM     33  N   UNL     1       2.822   3.759  19.202  0.00  0.00    +0.000 NA
ATOM     34  C   UNL     1       3.619   3.139  18.311  0.00  0.00    +0.000 A 
ATOM     35  C   UNL     1       3.771   1.654  18.451  0.00  0.00    +0.000 C 
ATOM     36  C   UNL     1       4.286   3.827  17.309  0.00  0.00    +0.000 A 
ATOM     37  C   UNL     1       4.172   5.220  17.237  0.00  0.00    +0.000 A 
ATOM     38  C   UNL     1       3.297   5.886  18.132  0.00  0.00    +0.000 A 
ATOM     39  C   UNL     1       3.042   7.289  18.129  0.00  0.00    +0.000 A 
BRANCH  37  40
ATOM     40  N   UNL     1       4.778   5.878  16.145  0.00  0.00    +0.000 N 
ATOM     41  H   UNL     1       4.142   6.042  15.369  0.00  0.00    +0.000 HD
ATOM     42  H   UNL     1       5.640   5.449  15.831  0.00  0.00    +0.000 HD
ENDBRANCH  37  40
ENDBRANCH  27  29
ENDBRANCH   5  25
TORSDOF 6
ENDMDL
MODEL 6
REMARK VINA RESULT:      -7.9      5.814      8.494
REMARK  Name = 
REMARK  8 active torsions:
REMARK  status: ('A' for Active; 'I' for Inactive)
REMARK    1  A    between atoms: C_1  and  C_2
REMARK    2  A    between atoms: C_4  and  N_5
REMARK    3  A    between atoms: C_8  and  N_9
REMARK    4  A    between atoms: C_10  and  C_12
REMARK    5  A    between atoms: C_16  and  C_17
REMARK    6  A    between atoms: N_19  and  C_20
REMARK    7  A    between atoms: C_25  and  C_26
REMARK    8  A    between atoms: C_28  and  N_29
REMARK                            x       y       z     vdW  Elec       q    Type
REMARK                         _______ _______ _______ _____ _____    ______ ____
ROOT
ATOM      1  C   UNL     1       0.401  11.093  20.125  0.00  0.00    +0.000 A 
ATOM      2  C   UNL     1      -0.852  11.696  20.299  0.00  0.00    +0.000 A 
ATOM      3  C   UNL     1      -0.995  13.063  20.095  0.00  0.00    +0.000 A 
ATOM      4  C   UNL     1       0.114  13.824  19.733  0.00  0.00    +0.000 A 
ATOM      5  C   UNL     1       1.386  13.240  19.594  0.00  0.00    +0.000 A 
ATOM      6  C   UNL     1       1.530  11.864  19.794  0.00  0.00    +0.000 A 
ENDROOT
BRANCH   1   8
ATOM      7  N   UNL     1       1.642   9.074  19.613  0.00  0.00    +0.000 N 
ATOM      8  C   UNL     1       0.564   9.624  20.290  0.00  0.00    +0.000 C 
ATOM      9  O   UNL     1      -0.210   9.043  21.041  0.00  0.00    +0.000 OA
ATOM     10  H   UNL     1       2.322   9.715  19.222  0.00  0.00    +0.000 HD
BRANCH   7  17
ATOM     11  C   UNL     1       3.901   1.611  18.770  0.00  0.00    +0.000 C 
ATOM     12  C   UNL     1       3.627   3.078  18.648  0.00  0.00    +0.000 A 
ATOM     13  C   UNL     1       4.202   3.828  17.634  0.00  0.00    +0.000 A 
ATOM     14  C   UNL     1       3.906   5.187  17.535  0.00  0.00    +0.000 A 
ATOM     15  C   UNL     1       3.108   5.782  18.541  0.00  0.00    +0.000 A 
ATOM     16  C   UNL     1       2.809   7.164  18.584  0.00  0.00    +0.000 A 
ATOM     17  C   UNL     1       1.989   7.708  19.570  0.00  0.00    +0.000 A 
ATOM     18  C   UNL     1       1.498   6.870  20.567  0.00  0.00    +0.000 A 
ATOM     19  C   UNL     1       1.790   5.502  20.536  0.00  0.00    +0.000 A 
ATOM     20  C   UNL     1       2.579   4.940  19.541  0.00  0.00    +0.000 A 
ATOM     21  N   UNL     1       2.817   3.620  19.585  0.00  0.00    +0.000 NA
BRANCH  14  22
ATOM     22  N   UNL     1       4.594   5.950  16.567  0.00  0.00    +0.000 N 
ATOM     23  H   UNL     1       4.028   6.201  15.764  0.00  0.00    +0.000 HD
ATOM     24  H   UNL     1       5.075   6.760  16.946  0.00  0.00    +0.000 HD
ENDBRANCH  14  22
ENDBRANCH   7  17
ENDBRANCH   1   8
BRANCH   5  25
ATOM     25  C   UNL     1       2.489  14.142  19.156  0.00  0.00    +0.000 C 
ATOM     26  O   UNL     1       2.454  14.514  17.986  0.00  0.00    +0.000 OA
ATOM     27  N   UNL     1       3.468  14.475  20.082  0.00  0.00    +0.000 N 
ATOM     28  H   UNL     1       3.445  14.042  20.993  0.00  0.00    +0.000 HD
BRANCH  27  29
ATOM     29  C   UNL     1       4.564  15.342  19.824  0.00  0.00    +0.000 A 
ATOM     30  C   UNL     1       4.593  16.674  20.225  0.00  0.00    +0.000 A 
ATOM     31  C   UNL     1       5.670  17.496  19.891  0.00  0.00    +0.000 A 
ATOM     32  C   UNL     1       6.738  17.034  19.149  0.00  0.00    +0.000 A 
ATOM     33  N   UNL     1       7.708  17.912  18.854  0.00  0.00    +0.000 NA
ATOM     34  C   UNL     1       8.776  17.485  18.154  0.00  0.00    +0.000 A 
ATOM     35  C   UNL     1       9.838  18.497  17.849  0.00  0.00    +0.000 C 
ATOM     36  C   UNL     1       8.900  16.175  17.718  0.00  0.00    +0.000 A 
ATOM     37  C   UNL     1       7.866  15.266  17.966  0.00  0.00    +0.000 A 
ATOM     38  C   UNL     1       6.758  15.680  18.747  0.00  0.00    +0.000 A 
ATOM     39  C   UNL     1       5.668  14.841  19.125  0.00  0.00    +0.000 A 
BRANCH  37  40
ATOM     40  N   UNL     1       8.069  13.917  17.601  0.00  0.00    +0.000 N 
ATOM     41  H   UNL     1       7.218  13.446  17.305  0.00  0.00    +0.000 HD
ATOM     42  H   UNL     1       8.569  13.373  18.294  0.00  0.00    +0.000 HD
ENDBRANCH  37  40
ENDBRANCH  27  29
ENDBRANCH   5  25
TORSDOF 6
ENDMDL
MODEL 7
REMARK VINA RESULT:      -7.9      5.734     11.190
REMARK  Name = 
REMARK  8 active torsions:
REMARK  status: ('A' for Active; 'I' for Inactive)
REMARK    1  A    between atoms: C_1  and  C_2
REMARK    2  A    between atoms: C_4  and  N_5
REMARK    3  A    between atoms: C_8  and  N_9
REMARK    4  A    between atoms: C_10  and  C_12
REMARK    5  A    between atoms: C_16  and  C_17
REMARK    6  A    between atoms: N_19  and  C_20
REMARK    7  A    between atoms: C_25  and  C_26
REMARK    8  A    between atoms: C_28  and  N_29
REMARK                            x       y       z     vdW  Elec       q    Type
REMARK                         _______ _______ _______ _____ _____    ______ ____
ROOT
ATOM      1  C   UNL     1       1.188  13.038  19.609  0.00  0.00    +0.000 A 
ATOM      2  C   UNL     1      -0.142  13.188  20.027  0.00  0.00    +0.000 A 
ATOM      3  C   UNL     1      -1.015  12.110  19.951  0.00  0.00    +0.000 A 
ATOM      4  C   UNL     1      -0.564  10.893  19.446  0.00  0.00    +0.000 A 
ATOM      5  C   UNL     1       0.756  10.738  18.986  0.00  0.00    +0.000 A 
ATOM      6  C   UNL     1       1.637  11.821  19.065  0.00  0.00    +0.000 A 
ENDROOT
BRANCH   1   8
ATOM      7  N   UNL     1       3.246  14.091  18.881  0.00  0.00    +0.000 N 
ATOM      8  C   UNL     1       2.151  14.164  19.727  0.00  0.00    +0.000 C 
ATOM      9  O   UNL     1       1.875  15.075  20.501  0.00  0.00    +0.000 OA
ATOM     10  H   UNL     1       3.217  13.400  18.141  0.00  0.00    +0.000 HD
BRANCH   7  17
ATOM     11  C   UNL     1       9.623  18.631  18.385  0.00  0.00    +0.000 C 
ATOM     12  C   UNL     1       8.610  17.528  18.388  0.00  0.00    +0.000 A 
ATOM     13  C   UNL     1       8.937  16.260  17.931  0.00  0.00    +0.000 A 
ATOM     14  C   UNL     1       7.977  15.250  17.970  0.00  0.00    +0.000 A 
ATOM     15  C   UNL     1       6.663  15.578  18.379  0.00  0.00    +0.000 A 
ATOM     16  C   UNL     1       5.592  14.653  18.383  0.00  0.00    +0.000 A 
ATOM     17  C   UNL     1       4.319  15.004  18.828  0.00  0.00    +0.000 A 
ATOM     18  C   UNL     1       4.090  16.318  19.226  0.00  0.00    +0.000 A 
ATOM     19  C   UNL     1       5.141  17.242  19.222  0.00  0.00    +0.000 A 
ATOM     20  C   UNL     1       6.423  16.898  18.813  0.00  0.00    +0.000 A 
ATOM     21  N   UNL     1       7.374  17.845  18.834  0.00  0.00    +0.000 NA
BRANCH  14  22
ATOM     22  N   UNL     1       8.299  14.003  17.393  0.00  0.00    +0.000 N 
ATOM     23  H   UNL     1       8.053  13.928  16.412  0.00  0.00    +0.000 HD
ATOM     24  H   UNL     1       9.256  13.706  17.557  0.00  0.00    +0.000 HD
ENDBRANCH  14  22
ENDBRANCH   7  17
ENDBRANCH   1   8
BRANCH   5  25
ATOM     25  C   UNL     1       1.142   9.379  18.511  0.00  0.00    +0.000 C 
ATOM     26  O   UNL     1       0.607   8.994  17.474  0.00  0.00    +0.000 OA
ATOM     27  N   UNL     1       2.047   8.653  19.271  0.00  0.00    +0.000 N 
ATOM     28  H   UNL     1       2.358   9.032  20.153  0.00  0.00    +0.000 HD
BRANCH  27  29
ATOM     29  C   UNL     1       2.530   7.359  18.937  0.00  0.00    +0.000 A 
ATOM     30  C   UNL     1       3.316   7.104  17.817  0.00  0.00    +0.000 A 
ATOM     31  C   UNL     1       3.711   5.803  17.503  0.00  0.00    +0.000 A 
ATOM     32  C   UNL     1       3.338   4.721  18.275  0.00  0.00    +0.000 A 
ATOM     33  N   UNL     1       3.742   3.509  17.871  0.00  0.00    +0.000 NA
ATOM     34  C   UNL     1       3.417   2.436  18.617  0.00  0.00    +0.000 A 
ATOM     35  C   UNL     1       3.893   1.100  18.131  0.00  0.00    +0.000 C 
ATOM     36  C   UNL     1       2.668   2.541  19.779  0.00  0.00    +0.000 A 
ATOM     37  C   UNL     1       2.188   3.793  20.177  0.00  0.00    +0.000 A 
ATOM     38  C   UNL     1       2.564   4.942  19.435  0.00  0.00    +0.000 A 
ATOM     39  C   UNL     1       2.195   6.280  19.764  0.00  0.00    +0.000 A 
BRANCH  37  40
ATOM     40  N   UNL     1       1.519   3.882  21.417  0.00  0.00    +0.000 N 
ATOM     41  H   UNL     1       0.531   3.647  21.361  0.00  0.00    +0.000 HD
ATOM     42  H   UNL     1       1.661   4.761  21.900  0.00  0.00    +0.000 HD
ENDBRANCH  37  40
ENDBRANCH  27  29
ENDBRANCH   5  25
TORSDOF 6
ENDMDL
MODEL 8
REMARK VINA RESULT:      -7.7      5.806      8.762
REMARK  Name = 
REMARK  8 active torsions:
REMARK  status: ('A' for Active; 'I' for Inactive)
REMARK    1  A    between atoms: C_1  and  C_2
REMARK    2  A    between atoms: C_4  and  N_5
REMARK    3  A    between atoms: C_8  and  N_9
REMARK    4  A    between atoms: C_10  and  C_12
REMARK    5  A    between atoms: C_16  and  C_17
REMARK    6  A    between atoms: N_19  and  C_20
REMARK    7  A    between atoms: C_25  and  C_26
REMARK    8  A    between atoms: C_28  and  N_29
REMARK                            x       y       z     vdW  Elec       q    Type
REMARK                         _______ _______ _______ _____ _____    ______ ____
ROOT
ATOM      1  C   UNL     1       0.431  11.149  18.829  0.00  0.00    +0.000 A 
ATOM      2  C   UNL     1      -0.875  11.537  19.157  0.00  0.00    +0.000 A 
ATOM      3  C   UNL     1      -1.129  12.846  19.550  0.00  0.00    +0.000 A 
ATOM      4  C   UNL     1      -0.078  13.756  19.629  0.00  0.00    +0.000 A 
ATOM      5  C   UNL     1       1.244  13.371  19.341  0.00  0.00    +0.000 A 
ATOM      6  C   UNL     1       1.500  12.057  18.942  0.00  0.00    +0.000 A 
ENDROOT
BRANCH   1   8
ATOM      7  N   UNL     1       1.757   9.128  19.014  0.00  0.00    +0.000 N 
ATOM      8  C   UNL     1       0.716   9.768  18.359  0.00  0.00    +0.000 C 
ATOM      9  O   UNL     1      -0.014   9.295  17.495  0.00  0.00    +0.000 OA
ATOM     10  H   UNL     1       2.112   9.562  19.858  0.00  0.00    +0.000 HD
BRANCH   7  17
ATOM     11  C   UNL     1       4.059   1.711  17.915  0.00  0.00    +0.000 C 
ATOM     12  C   UNL     1       3.419   2.995  18.345  0.00  0.00    +0.000 A 
ATOM     13  C   UNL     1       2.348   2.995  19.226  0.00  0.00    +0.000 A 
ATOM     14  C   UNL     1       1.791   4.210  19.625  0.00  0.00    +0.000 A 
ATOM     15  C   UNL     1       2.271   5.403  19.034  0.00  0.00    +0.000 A 
ATOM     16  C   UNL     1       1.729   6.682  19.304  0.00  0.00    +0.000 A 
ATOM     17  C   UNL     1       2.252   7.839  18.730  0.00  0.00    +0.000 A 
ATOM     18  C   UNL     1       3.302   7.718  17.825  0.00  0.00    +0.000 A 
ATOM     19  C   UNL     1       3.844   6.458  17.548  0.00  0.00    +0.000 A 
ATOM     20  C   UNL     1       3.354   5.299  18.137  0.00  0.00    +0.000 A 
ATOM     21  N   UNL     1       3.926   4.130  17.813  0.00  0.00    +0.000 NA
BRANCH  14  22
ATOM     22  N   UNL     1       0.632   4.179  20.429  0.00  0.00    +0.000 N 
ATOM     23  H   UNL     1       0.778   3.772  21.346  0.00  0.00    +0.000 HD
ATOM     24  H   UNL     1       0.151   5.072  20.495  0.00  0.00    +0.000 HD
ENDBRANCH  14  22
ENDBRANCH   7  17
ENDBRANCH   1   8
BRANCH   5  25
ATOM     25  C   UNL     1       2.280  14.441  19.412  0.00  0.00    +0.000 C 
ATOM     26  O   UNL     1       1.949  15.481  19.976  0.00  0.00    +0.000 OA
ATOM     27  N   UNL     1       3.515  14.196  18.829  0.00  0.00    +0.000 N 
ATOM     28  H   UNL     1       3.650  13.338  18.315  0.00  0.00    +0.000 HD
BRANCH  27  29
ATOM     29  C   UNL     1       4.608  15.104  18.837  0.00  0.00    +0.000 A 
ATOM     30  C   UNL     1       4.501  16.421  19.274  0.00  0.00    +0.000 A 
ATOM     31  C   UNL     1       5.593  17.287  19.202  0.00  0.00    +0.000 A 
ATOM     32  C   UNL     1       6.812  16.885  18.693  0.00  0.00    +0.000 A 
ATOM     33  N   UNL     1       7.788  17.801  18.639  0.00  0.00    +0.000 NA
ATOM     34  C   UNL     1       8.996  17.433  18.172  0.00  0.00    +0.000 A 
ATOM     35  C   UNL     1      10.061  18.487  18.131  0.00  0.00    +0.000 C 
ATOM     36  C   UNL     1       9.260  16.144  17.736  0.00  0.00    +0.000 A 
ATOM     37  C   UNL     1       8.232  15.195  17.730  0.00  0.00    +0.000 A 
ATOM     38  C   UNL     1       6.968  15.547  18.267  0.00  0.00    +0.000 A 
ATOM     39  C   UNL     1       5.854  14.663  18.377  0.00  0.00    +0.000 A 
BRANCH  37  40
ATOM     40  N   UNL     1       8.558  13.867  17.379  0.00  0.00    +0.000 N 
ATOM     41  H   UNL     1       8.049  13.527  16.568  0.00  0.00    +0.000 HD
ATOM     42  H   UNL     1       8.503  13.211  18.149  0.00  0.00    +0.000 HD
ENDBRANCH  37  40
ENDBRANCH  27  29
ENDBRANCH   5  25
TORSDOF 6
ENDMDL
MODEL 9
REMARK VINA RESULT:      -7.7      1.431     13.304
REMARK  Name = 
REMARK  8 active torsions:
REMARK  status: ('A' for Active; 'I' for Inactive)
REMARK    1  A    between atoms: C_1  and  C_2
REMARK    2  A    between atoms: C_4  and  N_5
REMARK    3  A    between atoms: C_8  and  N_9
REMARK    4  A    between atoms: C_10  and  C_12
REMARK    5  A    between atoms: C_16  and  C_17
REMARK    6  A    between atoms: N_19  and  C_20
REMARK    7  A    between atoms: C_25  and  C_26
REMARK    8  A    between atoms: C_28  and  N_29
REMARK                            x       y       z     vdW  Elec       q    Type
REMARK                         _______ _______ _______ _____ _____    ______ ____
ROOT
ATOM      1  C   UNL     1      -0.446  10.617  21.626  0.00  0.00    +0.000 A 
ATOM      2  C   UNL     1      -0.588   9.634  22.616  0.00  0.00    +0.000 A 
ATOM      3  C   UNL     1       0.006   8.389  22.443  0.00  0.00    +0.000 A 
ATOM      4  C   UNL     1       0.724   8.125  21.279  0.00  0.00    +0.000 A 
ATOM      5  C   UNL     1       0.841   9.088  20.260  0.00  0.00    +0.000 A 
ATOM      6  C   UNL     1       0.249  10.341  20.435  0.00  0.00    +0.000 A 
ENDROOT
BRANCH   1   8
ATOM      7  N   UNL     1      -1.419  12.267  23.112  0.00  0.00    +0.000 N 
ATOM      8  C   UNL     1      -1.031  11.970  21.814  0.00  0.00    +0.000 C 
ATOM      9  O   UNL     1      -1.065  12.719  20.844  0.00  0.00    +0.000 OA
ATOM     10  H   UNL     1      -1.117  11.635  23.843  0.00  0.00    +0.000 HD
BRANCH   7  17
ATOM     11  C   UNL     1      -5.465  18.631  25.269  0.00  0.00    +0.000 C 
ATOM     12  C   UNL     1      -4.981  17.313  24.748  0.00  0.00    +0.000 A 
ATOM     13  C   UNL     1      -5.874  16.371  24.259  0.00  0.00    +0.000 A 
ATOM     14  C   UNL     1      -5.388  15.163  23.758  0.00  0.00    +0.000 A 
ATOM     15  C   UNL     1      -4.002  14.894  23.862  0.00  0.00    +0.000 A 
ATOM     16  C   UNL     1      -3.412  13.673  23.459  0.00  0.00    +0.000 A 
ATOM     17  C   UNL     1      -2.038  13.458  23.543  0.00  0.00    +0.000 A 
ATOM     18  C   UNL     1      -1.238  14.458  24.090  0.00  0.00    +0.000 A 
ATOM     19  C   UNL     1      -1.813  15.668  24.495  0.00  0.00    +0.000 A 
ATOM     20  C   UNL     1      -3.176  15.909  24.387  0.00  0.00    +0.000 A 
ATOM     21  N   UNL     1      -3.649  17.094  24.803  0.00  0.00    +0.000 NA
BRANCH  14  22
ATOM     22  N   UNL     1      -6.322  14.177  23.376  0.00  0.00    +0.000 N 
ATOM     23  H   UNL     1      -6.294  13.340  23.948  0.00  0.00    +0.000 HD
ATOM     24  H   UNL     1      -7.271  14.523  23.275  0.00  0.00    +0.000 HD
ENDBRANCH  14  22
ENDBRANCH   7  17
ENDBRANCH   1   8
BRANCH   5  25
ATOM     25  C   UNL     1       1.674   8.712  19.081  0.00  0.00    +0.000 C 
ATOM     26  O   UNL     1       1.577   9.439  18.096  0.00  0.00    +0.000 OA
ATOM     27  N   UNL     1       2.469   7.579  19.177  0.00  0.00    +0.000 N 
ATOM     28  H   UNL     1       2.405   7.007  20.005  0.00  0.00    +0.000 HD
BRANCH  27  29
ATOM     29  C   UNL     1       3.333   7.110  18.151  0.00  0.00    +0.000 A 
ATOM     30  C   UNL     1       3.907   7.945  17.197  0.00  0.00    +0.000 A 
ATOM     31  C   UNL     1       4.701   7.420  16.175  0.00  0.00    +0.000 A 
ATOM     32  C   UNL     1       4.942   6.066  16.061  0.00  0.00    +0.000 A 
ATOM     33  N   UNL     1       5.691   5.661  15.026  0.00  0.00    +0.000 NA
ATOM     34  C   UNL     1       5.967   4.348  14.901  0.00  0.00    +0.000 A 
ATOM     35  C   UNL     1       6.811   3.938  13.732  0.00  0.00    +0.000 C 
ATOM     36  C   UNL     1       5.493   3.403  15.798  0.00  0.00    +0.000 A 
ATOM     37  C   UNL     1       4.659   3.807  16.847  0.00  0.00    +0.000 A 
ATOM     38  C   UNL     1       4.400   5.190  17.027  0.00  0.00    +0.000 A 
ATOM     39  C   UNL     1       3.620   5.741  18.086  0.00  0.00    +0.000 A 
BRANCH  37  40
ATOM     40  N   UNL     1       4.279   2.839  17.801  0.00  0.00    +0.000 N 
ATOM     41  H   UNL     1       5.059   2.292  18.155  0.00  0.00    +0.000 HD
ATOM     42  H   UNL     1       3.517   2.242  17.502  0.00  0.00    +0.000 HD
ENDBRANCH  37  40
ENDBRANCH  27  29
ENDBRANCH   5  25
TORSDOF 6
ENDMDL
