MODEL 1
REMARK VINA RESULT:      -7.6      0.000      0.000
REMARK  Name = 
REMARK  8 active torsions:
REMARK  status: ('A' for Active; 'I' for Inactive)
REMARK    1  A    between atoms: C_1  and  C_2
REMARK    2  A    between atoms: C_2  and  C_3
REMARK    3  A    between atoms: C_4  and  C_5
REMARK    4  A    between atoms: CA_7  and  C_8
REMARK    5  A    between atoms: C_8  and  OXT_10
REMARK    6  A    between atoms: C_11  and  C_12
REMARK    7  A    between atoms: C_13  and  C_14
REMARK    8  A    between atoms: N_16  and  C_17
REMARK                            x       y       z     vdW  Elec       q    Type
REMARK                         _______ _______ _______ _____ _____    ______ ____
ROOT
ATOM      1  C   UNL     1       3.140   3.942  18.293  0.00  0.00    +0.000 A 
ATOM      2  C   UNL     1       4.029   2.930  18.614  0.00  0.00    +0.000 A 
ATOM      3  C   UNL     1       3.837   1.476  18.857  0.00  0.00    +0.000 C 
ATOM      4  N   UNL     1       5.266   3.492  18.746  0.00  0.00    +0.000 N 
ATOM      5  CA  UNL     1       5.235   4.859  18.545  0.00  0.00    +0.000 A 
ATOM      6  C   UNL     1       3.912   5.160  18.209  0.00  0.00    +0.000 A 
ATOM      7  H   UNL     1       6.111   2.998  19.013  0.00  0.00    +0.000 HD
ENDROOT
BRANCH   1   9
ATOM      8  C   UNL     1       0.966   3.629  19.507  0.00  0.00    +0.000 C 
ATOM      9  C   UNL     1       1.654   3.767  18.156  0.00  0.00    +0.000 C 
ENDBRANCH   1   9
BRANCH   5  10
ATOM     10  C   UNL     1       6.489   5.565  18.742  0.00  0.00    +0.000 C 
ATOM     11  O   UNL     1       6.978   6.310  17.902  0.00  0.00    +0.000 OA
BRANCH  10  12
ATOM     12  OXT UNL     1       7.097   5.360  19.928  0.00  0.00    +0.000 OA
ATOM     13  HXT UNL     1       6.504   5.382  20.695  0.00  0.00    +0.000 HD
ENDBRANCH  10  12
ENDBRANCH   5  10
BRANCH   6  14
ATOM     14  C   UNL     1       3.385   6.463  17.937  0.00  0.00    +0.000 C 
ATOM     15  C   UNL     1       2.589   7.189  18.745  0.00  0.00    +0.000 C 
BRANCH  15  16
ATOM     16  C   UNL     1       2.107   8.506  18.259  0.00  0.00    +0.000 C 
ATOM     17  O   UNL     1       2.510   8.934  17.181  0.00  0.00    +0.000 OA
ATOM     18  N   UNL     1       1.241   9.141  19.129  0.00  0.00    +0.000 N 
ATOM     19  H   UNL     1       1.106   8.739  20.046  0.00  0.00    +0.000 HD
BRANCH  18  20
ATOM     20  C   UNL     1       0.602  10.383  18.889  0.00  0.00    +0.000 A 
ATOM     21  C   UNL     1       1.236  11.613  19.078  0.00  0.00    +0.000 A 
ATOM     22  C   UNL     1       0.558  12.814  18.850  0.00  0.00    +0.000 A 
ATOM     23  C   UNL     1      -0.765  12.797  18.427  0.00  0.00    +0.000 A 
ATOM     24  C   UNL     1      -1.405  11.579  18.213  0.00  0.00    +0.000 A 
ATOM     25  C   UNL     1      -0.722  10.375  18.430  0.00  0.00    +0.000 A 
ENDBRANCH  18  20
ENDBRANCH  15  16
ENDBRANCH   6  14
TORSDOF 6
ENDMDL
MODEL 2
REMARK VINA RESULT:      -7.6      0.134      1.234
REMARK  Name = 
REMARK  8 active torsions:
REMARK  status: ('A' for Active; 'I' for Inactive)
REMARK    1  A    between atoms: C_1  and  C_2
REMARK    2  A    between atoms: C_2  and  C_3
REMARK    3  A    between atoms: C_4  and  C_5
REMARK    4  A    between atoms: CA_7  and  C_8
REMARK    5  A    between atoms: C_8  and  OXT_10
REMARK    6  A    between atoms: C_11  and  C_12
REMARK    7  A    between atoms: C_13  and  C_14
REMARK    8  A    between atoms: N_16  and  C_17
REMARK                            x       y       z     vdW  Elec       q    Type
REMARK                         _______ _______ _______ _____ _____    ______ ____
ROOT
ATOM      1  C   UNL     1       3.076   3.858  18.372  0.00  0.00    +0.000 A 
ATOM      2  C   UNL     1       3.966   2.857  18.723  0.00  0.00    +0.000 A 
ATOM      3  C   UNL     1       3.781   1.403  18.970  0.00  0.00    +0.000 C 
ATOM      4  N   UNL     1       5.194   3.431  18.886  0.00  0.00    +0.000 N 
ATOM      5  CA  UNL     1       5.156   4.797  18.676  0.00  0.00    +0.000 A 
ATOM      6  C   UNL     1       3.840   5.083  18.302  0.00  0.00    +0.000 A 
ATOM      7  H   UNL     1       6.036   2.947  19.179  0.00  0.00    +0.000 HD
ENDROOT
BRANCH   1   9
ATOM      8  C   UNL     1       0.868   3.575  19.528  0.00  0.00    +0.000 C 
ATOM      9  C   UNL     1       1.597   3.669  18.195  0.00  0.00    +0.000 C 
ENDBRANCH   1   9
BRANCH   5  10
ATOM     10  C   UNL     1       6.398   5.515  18.903  0.00  0.00    +0.000 C 
ATOM     11  O   UNL     1       7.061   5.401  19.925  0.00  0.00    +0.000 OA
BRANCH  10  12
ATOM     12  OXT UNL     1       6.796   6.326  17.902  0.00  0.00    +0.000 OA
ATOM     13  HXT UNL     1       6.564   7.259  18.020  0.00  0.00    +0.000 HD
ENDBRANCH  10  12
ENDBRANCH   5  10
BRANCH   6  14
ATOM     14  C   UNL     1       3.308   6.380  18.007  0.00  0.00    +0.000 C 
ATOM     15  C   UNL     1       2.571   7.148  18.831  0.00  0.00    +0.000 C 
BRANCH  15  16
ATOM     16  C   UNL     1       2.071   8.450  18.320  0.00  0.00    +0.000 C 
ATOM     17  O   UNL     1       2.436   8.842  17.215  0.00  0.00    +0.000 OA
ATOM     18  N   UNL     1       1.237   9.113  19.199  0.00  0.00    +0.000 N 
ATOM     19  H   UNL     1       1.135   8.741  20.133  0.00  0.00    +0.000 HD
BRANCH  18  20
ATOM     20  C   UNL     1       0.589  10.347  18.941  0.00  0.00    +0.000 A 
ATOM     21  C   UNL     1      -0.734  10.433  18.498  0.00  0.00    +0.000 A 
ATOM     22  C   UNL     1      -1.325  11.672  18.236  0.00  0.00    +0.000 A 
ATOM     23  C   UNL     1      -0.598  12.842  18.417  0.00  0.00    +0.000 A 
ATOM     24  C   UNL     1       0.714  12.774  18.879  0.00  0.00    +0.000 A 
ATOM     25  C   UNL     1       1.303  11.533  19.152  0.00  0.00    +0.000 A 
ENDBRANCH  18  20
ENDBRANCH  15  16
ENDBRANCH   6  14
TORSDOF 6
ENDMDL
MODEL 3
REMARK VINA RESULT:      -7.4      1.110      1.174
REMARK  Name = 
REMARK  8 active torsions:
REMARK  status: ('A' for Active; 'I' for Inactive)
REMARK    1  A    between atoms: C_1  and  C_2
REMARK    2  A    between atoms: C_2  and  C_3
REMARK    3  A    between atoms: C_4  and  C_5
REMARK    4  A    between atoms: CA_7  and  C_8
REMARK    5  A    between atoms: C_8  and  OXT_10
REMARK    6  A    between atoms: C_11  and  C_12
REMARK    7  A    between atoms: C_13  and  C_14
REMARK    8  A    between atoms: N_16  and  C_17
REMARK                            x       y       z     vdW  Elec       q    Type
REMARK                         _______ _______ _______ _____ _____    ______ ____
ROOT
ATOM      1  C   UNL     1       2.798   3.956  18.599  0.00  0.00    +0.000 A 
ATOM      2  C   UNL     1       3.756   2.961  18.499  0.00  0.00    +0.000 A 
ATOM      3  C   UNL     1       3.649   1.481  18.432  0.00  0.00    +0.000 C 
ATOM      4  N   UNL     1       4.981   3.562  18.514  0.00  0.00    +0.000 N 
ATOM      5  CA  UNL     1       4.881   4.934  18.644  0.00  0.00    +0.000 A 
ATOM      6  C   UNL     1       3.511   5.212  18.650  0.00  0.00    +0.000 A 
ATOM      7  H   UNL     1       5.874   3.080  18.491  0.00  0.00    +0.000 HD
ENDROOT
BRANCH   1   9
ATOM      8  C   UNL     1       0.860   3.670  20.166  0.00  0.00    +0.000 C 
ATOM      9  C   UNL     1       1.320   3.716  18.716  0.00  0.00    +0.000 C 
ENDBRANCH   1   9
BRANCH   5  10
ATOM     10  C   UNL     1       6.133   5.662  18.751  0.00  0.00    +0.000 C 
ATOM     11  O   UNL     1       6.492   6.503  17.936  0.00  0.00    +0.000 OA
BRANCH  10  12
ATOM     12  OXT UNL     1       6.894   5.364  19.824  0.00  0.00    +0.000 OA
ATOM     13  HXT UNL     1       7.670   4.818  19.630  0.00  0.00    +0.000 HD
ENDBRANCH  10  12
ENDBRANCH   5  10
BRANCH   6  14
ATOM     14  C   UNL     1       2.911   6.505  18.794  0.00  0.00    +0.000 C 
ATOM     15  C   UNL     1       2.659   7.384  17.806  0.00  0.00    +0.000 C 
BRANCH  15  16
ATOM     16  C   UNL     1       2.071   8.699  18.167  0.00  0.00    +0.000 C 
ATOM     17  O   UNL     1       2.347   9.687  17.493  0.00  0.00    +0.000 OA
ATOM     18  N   UNL     1       1.265   8.662  19.288  0.00  0.00    +0.000 N 
ATOM     19  H   UNL     1       1.239   7.809  19.830  0.00  0.00    +0.000 HD
BRANCH  18  20
ATOM     20  C   UNL     1       0.549   9.764  19.819  0.00  0.00    +0.000 A 
ATOM     21  C   UNL     1       0.875  10.368  21.036  0.00  0.00    +0.000 A 
ATOM     22  C   UNL     1       0.125  11.438  21.532  0.00  0.00    +0.000 A 
ATOM     23  C   UNL     1      -0.961  11.920  20.811  0.00  0.00    +0.000 A 
ATOM     24  C   UNL     1      -1.286  11.343  19.585  0.00  0.00    +0.000 A 
ATOM     25  C   UNL     1      -0.528  10.278  19.083  0.00  0.00    +0.000 A 
ENDBRANCH  18  20
ENDBRANCH  15  16
ENDBRANCH   6  14
TORSDOF 6
ENDMDL
MODEL 4
REMARK VINA RESULT:      -7.4      3.065      3.973
REMARK  Name = 
REMARK  8 active torsions:
REMARK  status: ('A' for Active; 'I' for Inactive)
REMARK    1  A    between atoms: C_1  and  C_2
REMARK    2  A    between atoms: C_2  and  C_3
REMARK    3  A    between atoms: C_4  and  C_5
REMARK    4  A    between atoms: CA_7  and  C_8
REMARK    5  A    between atoms: C_8  and  OXT_10
REMARK    6  A    between atoms: C_11  and  C_12
REMARK    7  A    between atoms: C_13  and  C_14
REMARK    8  A    between atoms: N_16  and  C_17
REMARK                            x       y       z     vdW  Elec       q    Type
REMARK                         _______ _______ _______ _____ _____    ______ ____
ROOT
ATOM      1  C   UNL     1       4.827   5.060  16.717  0.00  0.00    +0.000 A 
ATOM      2  C   UNL     1       5.499   3.994  16.143  0.00  0.00    +0.000 A 
ATOM      3  C   UNL     1       6.572   3.930  15.117  0.00  0.00    +0.000 C 
ATOM      4  N   UNL     1       4.968   2.845  16.656  0.00  0.00    +0.000 N 
ATOM      5  CA  UNL     1       3.942   3.103  17.544  0.00  0.00    +0.000 A 
ATOM      6  C   UNL     1       3.867   4.496  17.638  0.00  0.00    +0.000 A 
ATOM      7  H   UNL     1       5.238   1.903  16.392  0.00  0.00    +0.000 HD
ENDROOT
BRANCH   1   9
ATOM      8  C   UNL     1       6.167   7.136  17.150  0.00  0.00    +0.000 C 
ATOM      9  C   UNL     1       5.036   6.502  16.353  0.00  0.00    +0.000 C 
ENDBRANCH   1   9
BRANCH   5  10
ATOM     10  C   UNL     1       3.256   1.944  18.087  0.00  0.00    +0.000 C 
ATOM     11  O   UNL     1       2.069   1.947  18.389  0.00  0.00    +0.000 OA
BRANCH  10  12
ATOM     12  OXT UNL     1       4.009   0.835  18.236  0.00  0.00    +0.000 OA
ATOM     13  HXT UNL     1       4.528   0.805  19.054  0.00  0.00    +0.000 HD
ENDBRANCH  10  12
ENDBRANCH   5  10
BRANCH   6  14
ATOM     14  C   UNL     1       2.929   5.241  18.423  0.00  0.00    +0.000 C 
ATOM     15  C   UNL     1       3.117   5.697  19.675  0.00  0.00    +0.000 C 
BRANCH  15  16
ATOM     16  C   UNL     1       1.998   6.412  20.340  0.00  0.00    +0.000 C 
ATOM     17  O   UNL     1       1.075   5.766  20.827  0.00  0.00    +0.000 OA
ATOM     18  N   UNL     1       2.117   7.788  20.308  0.00  0.00    +0.000 N 
ATOM     19  H   UNL     1       2.857   8.191  19.749  0.00  0.00    +0.000 HD
BRANCH  18  20
ATOM     20  C   UNL     1       1.215   8.703  20.906  0.00  0.00    +0.000 A 
ATOM     21  C   UNL     1       1.060   8.823  22.289  0.00  0.00    +0.000 A 
ATOM     22  C   UNL     1       0.141   9.724  22.834  0.00  0.00    +0.000 A 
ATOM     23  C   UNL     1      -0.633  10.520  21.999  0.00  0.00    +0.000 A 
ATOM     24  C   UNL     1      -0.475  10.427  20.618  0.00  0.00    +0.000 A 
ATOM     25  C   UNL     1       0.453   9.532  20.072  0.00  0.00    +0.000 A 
ENDBRANCH  18  20
ENDBRANCH  15  16
ENDBRANCH   6  14
TORSDOF 6
ENDMDL
MODEL 5
REMARK VINA RESULT:      -7.4      4.421      6.538
REMARK  Name = 
REMARK  8 active torsions:
REMARK  status: ('A' for Active; 'I' for Inactive)
REMARK    1  A    between atoms: C_1  and  C_2
REMARK    2  A    between atoms: C_2  and  C_3
REMARK    3  A    between atoms: C_4  and  C_5
REMARK    4  A    between atoms: CA_7  and  C_8
REMARK    5  A    between atoms: C_8  and  OXT_10
REMARK    6  A    between atoms: C_11  and  C_12
REMARK    7  A    between atoms: C_13  and  C_14
REMARK    8  A    between atoms: N_16  and  C_17
REMARK                            x       y       z     vdW  Elec       q    Type
REMARK                         _______ _______ _______ _____ _____    ______ ____
ROOT
ATOM      1  C   UNL     1       4.519   4.970  17.999  0.00  0.00    +0.000 A 
ATOM      2  C   UNL     1       3.866   4.141  17.102  0.00  0.00    +0.000 A 
ATOM      3  C   UNL     1       2.588   3.387  17.193  0.00  0.00    +0.000 C 
ATOM      4  N   UNL     1       4.648   4.036  15.988  0.00  0.00    +0.000 N 
ATOM      5  CA  UNL     1       5.822   4.754  16.114  0.00  0.00    +0.000 A 
ATOM      6  C   UNL     1       5.742   5.392  17.355  0.00  0.00    +0.000 A 
ATOM      7  H   UNL     1       4.442   3.464  15.176  0.00  0.00    +0.000 HD
ENDROOT
BRANCH   1   9
ATOM      8  C   UNL     1       2.950   6.326  19.410  0.00  0.00    +0.000 C 
ATOM      9  C   UNL     1       4.046   5.270  19.392  0.00  0.00    +0.000 C 
ENDBRANCH   1   9
BRANCH   5  10
ATOM     10  C   UNL     1       6.762   4.645  15.012  0.00  0.00    +0.000 C 
ATOM     11  O   UNL     1       7.695   5.421  14.847  0.00  0.00    +0.000 OA
BRANCH  10  12
ATOM     12  OXT UNL     1       6.556   3.615  14.167  0.00  0.00    +0.000 OA
ATOM     13  HXT UNL     1       7.015   3.692  13.317  0.00  0.00    +0.000 HD
ENDBRANCH  10  12
ENDBRANCH   5  10
BRANCH   6  14
ATOM     14  C   UNL     1       6.744   6.232  17.940  0.00  0.00    +0.000 C 
ATOM     15  C   UNL     1       7.029   7.500  17.591  0.00  0.00    +0.000 C 
BRANCH  15  16
ATOM     16  C   UNL     1       8.142   8.190  18.291  0.00  0.00    +0.000 C 
ATOM     17  O   UNL     1       8.849   7.555  19.069  0.00  0.00    +0.000 OA
ATOM     18  N   UNL     1       8.242   9.535  17.994  0.00  0.00    +0.000 N 
ATOM     19  H   UNL     1       7.505   9.959  17.446  0.00  0.00    +0.000 HD
BRANCH  18  20
ATOM     20  C   UNL     1       9.240  10.412  18.487  0.00  0.00    +0.000 A 
ATOM     21  C   UNL     1      10.167  11.051  17.660  0.00  0.00    +0.000 A 
ATOM     22  C   UNL     1      11.148  11.891  18.194  0.00  0.00    +0.000 A 
ATOM     23  C   UNL     1      11.211  12.103  19.566  0.00  0.00    +0.000 A 
ATOM     24  C   UNL     1      10.280  11.491  20.402  0.00  0.00    +0.000 A 
ATOM     25  C   UNL     1       9.290  10.658  19.866  0.00  0.00    +0.000 A 
ENDBRANCH  18  20
ENDBRANCH  15  16
ENDBRANCH   6  14
TORSDOF 6
ENDMDL
MODEL 6
REMARK VINA RESULT:      -7.3      3.655      6.947
REMARK  Name = 
REMARK  8 active torsions:
REMARK  status: ('A' for Active; 'I' for Inactive)
REMARK    1  A    between atoms: C_1  and  C_2
REMARK    2  A    between atoms: C_2  and  C_3
REMARK    3  A    between atoms: C_4  and  C_5
REMARK    4  A    between atoms: CA_7  and  C_8
REMARK    5  A    between atoms: C_8  and  OXT_10
REMARK    6  A    between atoms: C_11  and  C_12
REMARK    7  A    between atoms: C_13  and  C_14
REMARK    8  A    between atoms: N_16  and  C_17
REMARK                            x       y       z     vdW  Elec       q    Type
REMARK                         _______ _______ _______ _____ _____    ______ ____
ROOT
ATOM      1  C   UNL     1       2.724   3.540  19.687  0.00  0.00    +0.000 A 
ATOM      2  C   UNL     1       2.063   3.802  20.876  0.00  0.00    +0.000 A 
ATOM      3  C   UNL     1       1.523   2.906  21.932  0.00  0.00    +0.000 C 
ATOM      4  N   UNL     1       1.896   5.153  20.969  0.00  0.00    +0.000 N 
ATOM      5  CA  UNL     1       2.406   5.812  19.866  0.00  0.00    +0.000 A 
ATOM      6  C   UNL     1       2.978   4.820  19.066  0.00  0.00    +0.000 A 
ATOM      7  H   UNL     1       1.411   5.636  21.717  0.00  0.00    +0.000 HD
ENDROOT
BRANCH   1   9
ATOM      8  C   UNL     1       4.415   1.693  19.529  0.00  0.00    +0.000 C 
ATOM      9  C   UNL     1       3.018   2.167  19.153  0.00  0.00    +0.000 C 
ENDBRANCH   1   9
BRANCH   5  10
ATOM     10  C   UNL     1       2.207   7.251  19.830  0.00  0.00    +0.000 C 
ATOM     11  O   UNL     1       2.272   7.911  18.800  0.00  0.00    +0.000 OA
BRANCH  10  12
ATOM     12  OXT UNL     1       1.932   7.834  21.014  0.00  0.00    +0.000 OA
ATOM     13  HXT UNL     1       1.469   7.265  21.647  0.00  0.00    +0.000 HD
ENDBRANCH  10  12
ENDBRANCH   5  10
BRANCH   6  14
ATOM     14  C   UNL     1       3.610   5.018  17.796  0.00  0.00    +0.000 C 
ATOM     15  C   UNL     1       4.760   5.679  17.569  0.00  0.00    +0.000 C 
BRANCH  15  16
ATOM     16  C   UNL     1       5.229   5.816  16.167  0.00  0.00    +0.000 C 
ATOM     17  O   UNL     1       5.130   6.902  15.602  0.00  0.00    +0.000 OA
ATOM     18  N   UNL     1       5.719   4.644  15.624  0.00  0.00    +0.000 N 
ATOM     19  H   UNL     1       5.610   3.790  16.154  0.00  0.00    +0.000 HD
BRANCH  18  20
ATOM     20  C   UNL     1       6.270   4.510  14.325  0.00  0.00    +0.000 A 
ATOM     21  C   UNL     1       7.378   5.241  13.889  0.00  0.00    +0.000 A 
ATOM     22  C   UNL     1       7.872   5.092  12.591  0.00  0.00    +0.000 A 
ATOM     23  C   UNL     1       7.265   4.204  11.712  0.00  0.00    +0.000 A 
ATOM     24  C   UNL     1       6.173   3.451  12.138  0.00  0.00    +0.000 A 
ATOM     25  C   UNL     1       5.683   3.593  13.443  0.00  0.00    +0.000 A 
ENDBRANCH  18  20
ENDBRANCH  15  16
ENDBRANCH   6  14
TORSDOF 6
ENDMDL
MODEL 7
REMARK VINA RESULT:      -7.3      3.089      4.068
REMARK  Name = 
REMARK  8 active torsions:
REMARK  status: ('A' for Active; 'I' for Inactive)
REMARK    1  A    between atoms: C_1  and  C_2
REMARK    2  A    between atoms: C_2  and  C_3
REMARK    3  A    between atoms: C_4  and  C_5
REMARK    4  A    between atoms: CA_7  and  C_8
REMARK    5  A    between atoms: C_8  and  OXT_10
REMARK    6  A    between atoms: C_11  and  C_12
REMARK    7  A    between atoms: C_13  and  C_14
REMARK    8  A    between atoms: N_16  and  C_17
REMARK                            x       y       z     vdW  Elec       q    Type
REMARK                         _______ _______ _______ _____ _____    ______ ____
ROOT
ATOM      1  C   UNL     1       4.876   5.175  16.718  0.00  0.00    +0.000 A 
ATOM      2  C   UNL     1       5.543   4.120  16.118  0.00  0.00    +0.000 A 
ATOM      3  C   UNL     1       6.638   4.077  15.115  0.00  0.00    +0.000 C 
ATOM      4  N   UNL     1       4.983   2.961  16.575  0.00  0.00    +0.000 N 
ATOM      5  CA  UNL     1       3.941   3.203  17.449  0.00  0.00    +0.000 A 
ATOM      6  C   UNL     1       3.886   4.592  17.594  0.00  0.00    +0.000 A 
ATOM      7  H   UNL     1       5.243   2.026  16.281  0.00  0.00    +0.000 HD
ENDROOT
BRANCH   1   9
ATOM      8  C   UNL     1       6.316   7.178  17.170  0.00  0.00    +0.000 C 
ATOM      9  C   UNL     1       5.116   6.626  16.414  0.00  0.00    +0.000 C 
ENDBRANCH   1   9
BRANCH   5  10
ATOM     10  C   UNL     1       3.224   2.035  17.932  0.00  0.00    +0.000 C 
ATOM     11  O   UNL     1       3.763   1.127  18.552  0.00  0.00    +0.000 OA
BRANCH  10  12
ATOM     12  OXT UNL     1       1.903   2.007  17.665  0.00  0.00    +0.000 OA
ATOM     13  HXT UNL     1       1.587   2.738  17.113  0.00  0.00    +0.000 HD
ENDBRANCH  10  12
ENDBRANCH   5  10
BRANCH   6  14
ATOM     14  C   UNL     1       2.942   5.323  18.386  0.00  0.00    +0.000 C 
ATOM     15  C   UNL     1       3.111   5.731  19.657  0.00  0.00    +0.000 C 
BRANCH  15  16
ATOM     16  C   UNL     1       1.989   6.440  20.324  0.00  0.00    +0.000 C 
ATOM     17  O   UNL     1       1.092   5.786  20.850  0.00  0.00    +0.000 OA
ATOM     18  N   UNL     1       2.072   7.816  20.249  0.00  0.00    +0.000 N 
ATOM     19  H   UNL     1       2.790   8.220  19.663  0.00  0.00    +0.000 HD
BRANCH  18  20
ATOM     20  C   UNL     1       1.161   8.727  20.839  0.00  0.00    +0.000 A 
ATOM     21  C   UNL     1       0.330   9.564  20.090  0.00  0.00    +0.000 A 
ATOM     22  C   UNL     1      -0.538  10.463  20.715  0.00  0.00    +0.000 A 
ATOM     23  C   UNL     1      -0.587  10.532  22.102  0.00  0.00    +0.000 A 
ATOM     24  C   UNL     1       0.218   9.689  22.864  0.00  0.00    +0.000 A 
ATOM     25  C   UNL     1       1.081   8.780  22.237  0.00  0.00    +0.000 A 
ENDBRANCH  18  20
ENDBRANCH  15  16
ENDBRANCH   6  14
TORSDOF 6
ENDMDL
MODEL 8
REMARK VINA RESULT:      -7.3      4.465      6.367
REMARK  Name = 
REMARK  8 active torsions:
REMARK  status: ('A' for Active; 'I' for Inactive)
REMARK    1  A    between atoms: C_1  and  C_2
REMARK    2  A    between atoms: C_2  and  C_3
REMARK    3  A    between atoms: C_4  and  C_5
REMARK    4  A    between atoms: CA_7  and  C_8
REMARK    5  A    between atoms: C_8  and  OXT_10
REMARK    6  A    between atoms: C_11  and  C_12
REMARK    7  A    between atoms: C_13  and  C_14
REMARK    8  A    between atoms: N_16  and  C_17
REMARK                            x       y       z     vdW  Elec       q    Type
REMARK                         _______ _______ _______ _____ _____    ______ ____
ROOT
ATOM      1  C   UNL     1       4.928   4.963  18.049  0.00  0.00    +0.000 A 
ATOM      2  C   UNL     1       4.618   3.713  17.538  0.00  0.00    +0.000 A 
ATOM      3  C   UNL     1       3.811   2.589  18.080  0.00  0.00    +0.000 C 
ATOM      4  N   UNL     1       5.255   3.586  16.338  0.00  0.00    +0.000 N 
ATOM      5  CA  UNL     1       6.005   4.706  16.031  0.00  0.00    +0.000 A 
ATOM      6  C   UNL     1       5.775   5.609  17.073  0.00  0.00    +0.000 A 
ATOM      7  H   UNL     1       5.241   2.760  15.749  0.00  0.00    +0.000 HD
ENDROOT
BRANCH   1   9
ATOM      8  C   UNL     1       3.111   6.067  19.380  0.00  0.00    +0.000 C 
ATOM      9  C   UNL     1       4.509   5.465  19.401  0.00  0.00    +0.000 C 
ENDBRANCH   1   9
BRANCH   5  10
ATOM     10  C   UNL     1       6.787   4.639  14.809  0.00  0.00    +0.000 C 
ATOM     11  O   UNL     1       6.513   3.893  13.877  0.00  0.00    +0.000 OA
BRANCH  10  12
ATOM     12  OXT UNL     1       7.849   5.467  14.748  0.00  0.00    +0.000 OA
ATOM     13  HXT UNL     1       7.705   6.273  14.230  0.00  0.00    +0.000 HD
ENDBRANCH  10  12
ENDBRANCH   5  10
BRANCH   6  14
ATOM     14  C   UNL     1       6.363   6.908  17.211  0.00  0.00    +0.000 C 
ATOM     15  C   UNL     1       7.501   7.205  17.867  0.00  0.00    +0.000 C 
BRANCH  15  16
ATOM     16  C   UNL     1       7.921   8.628  17.936  0.00  0.00    +0.000 C 
ATOM     17  O   UNL     1       7.432   9.439  17.154  0.00  0.00    +0.000 OA
ATOM     18  N   UNL     1       8.879   8.882  18.898  0.00  0.00    +0.000 N 
ATOM     19  H   UNL     1       9.297   8.095  19.375  0.00  0.00    +0.000 HD
BRANCH  18  20
ATOM     20  C   UNL     1       9.418  10.157  19.202  0.00  0.00    +0.000 A 
ATOM     21  C   UNL     1      10.054  10.960  18.252  0.00  0.00    +0.000 A 
ATOM     22  C   UNL     1      10.590  12.202  18.604  0.00  0.00    +0.000 A 
ATOM     23  C   UNL     1      10.493  12.657  19.913  0.00  0.00    +0.000 A 
ATOM     24  C   UNL     1       9.843  11.878  20.867  0.00  0.00    +0.000 A 
ATOM     25  C   UNL     1       9.295  10.638  20.513  0.00  0.00    +0.000 A 
ENDBRANCH  18  20
ENDBRANCH  15  16
ENDBRANCH   6  14
TORSDOF 6
ENDMDL
MODEL 9
REMARK VINA RESULT:      -7.3      4.440      6.546
REMARK  Name = 
REMARK  8 active torsions:
REMARK  status: ('A' for Active; 'I' for Inactive)
REMARK    1  A    between atoms: C_1  and  C_2
REMARK    2  A    between atoms: C_2  and  C_3
REMARK    3  A    between atoms: C_4  and  C_5
REMARK    4  A    between atoms: CA_7  and  C_8
REMARK    5  A    between atoms: C_8  and  OXT_10
REMARK    6  A    between atoms: C_11  and  C_12
REMARK    7  A    between atoms: C_13  and  C_14
REMARK    8  A    between atoms: N_16  and  C_17
REMARK                            x       y       z     vdW  Elec       q    Type
REMARK                         _______ _______ _______ _____ _____    ______ ____
ROOT
ATOM      1  C   UNL     1       4.448   5.074  17.992  0.00  0.00    +0.000 A 
ATOM      2  C   UNL     1       3.799   4.251  17.088  0.00  0.00    +0.000 A 
ATOM      3  C   UNL     1       2.508   3.517  17.160  0.00  0.00    +0.000 C 
ATOM      4  N   UNL     1       4.598   4.130  15.988  0.00  0.00    +0.000 N 
ATOM      5  CA  UNL     1       5.780   4.831  16.131  0.00  0.00    +0.000 A 
ATOM      6  C   UNL     1       5.688   5.475  17.368  0.00  0.00    +0.000 A 
ATOM      7  H   UNL     1       4.398   3.557  15.175  0.00  0.00    +0.000 HD
ENDROOT
BRANCH   1   9
ATOM      8  C   UNL     1       2.768   6.338  19.360  0.00  0.00    +0.000 C 
ATOM      9  C   UNL     1       3.955   5.387  19.376  0.00  0.00    +0.000 C 
ENDBRANCH   1   9
BRANCH   5  10
ATOM     10  C   UNL     1       6.738   4.703  15.046  0.00  0.00    +0.000 C 
ATOM     11  O   UNL     1       7.696   5.452  14.905  0.00  0.00    +0.000 OA
BRANCH  10  12
ATOM     12  OXT UNL     1       6.517   3.687  14.188  0.00  0.00    +0.000 OA
ATOM     13  HXT UNL     1       6.088   2.911  14.580  0.00  0.00    +0.000 HD
ENDBRANCH  10  12
ENDBRANCH   5  10
BRANCH   6  14
ATOM     14  C   UNL     1       6.693   6.302  17.967  0.00  0.00    +0.000 C 
ATOM     15  C   UNL     1       7.048   7.540  17.575  0.00  0.00    +0.000 C 
BRANCH  15  16
ATOM     16  C   UNL     1       8.151   8.219  18.302  0.00  0.00    +0.000 C 
ATOM     17  O   UNL     1       8.853   7.569  19.073  0.00  0.00    +0.000 OA
ATOM     18  N   UNL     1       8.248   9.570  18.036  0.00  0.00    +0.000 N 
ATOM     19  H   UNL     1       7.516  10.003  17.490  0.00  0.00    +0.000 HD
BRANCH  18  20
ATOM     20  C   UNL     1       9.237  10.440  18.559  0.00  0.00    +0.000 A 
ATOM     21  C   UNL     1       9.347  10.734  19.921  0.00  0.00    +0.000 A 
ATOM     22  C   UNL     1      10.324  11.617  20.389  0.00  0.00    +0.000 A 
ATOM     23  C   UNL     1      11.208  12.214  19.498  0.00  0.00    +0.000 A 
ATOM     24  C   UNL     1      11.125  11.915  18.140  0.00  0.00    +0.000 A 
ATOM     25  C   UNL     1      10.152  11.022  17.672  0.00  0.00    +0.000 A 
ENDBRANCH  18  20
ENDBRANCH  15  16
ENDBRANCH   6  14
TORSDOF 6
ENDMDL
