MODEL 1
REMARK VINA RESULT:      -7.7      0.000      0.000
REMARK  Name = 
REMARK  7 active torsions:
REMARK  status: ('A' for Active; 'I' for Inactive)
REMARK    1  A    between atoms: C_1  and  C_2
REMARK    2  A    between atoms: C_2  and  N_3
REMARK    3  A    between atoms: C_5  and  C_6
REMARK    4  A    between atoms: N_8  and  N_9
REMARK    5  A    between atoms: N_9  and  C_10
REMARK    6  A    between atoms: C_10  and  N_11
REMARK    7  A    between atoms: C_18  and  C_19
REMARK                            x       y       z     vdW  Elec       q    Type
REMARK                         _______ _______ _______ _____ _____    ______ ____
ROOT
ATOM      1  N   UNL     1       4.448   4.314  18.487  0.00  0.00    +0.000 N 
ATOM      2  C   UNL     1       5.273   4.063  17.397  0.00  0.00    +0.000 A 
ATOM      3  C   UNL     1       5.517   4.904  16.377  0.00  0.00    +0.000 A 
ATOM      4  C   UNL     1       4.843   6.221  16.436  0.00  0.00    +0.000 A 
ATOM      5  O   UNL     1       5.035   7.072  15.569  0.00  0.00    +0.000 OA
ATOM      6  C   UNL     1       3.928   6.496  17.563  0.00  0.00    +0.000 A 
ATOM      7  C   UNL     1       3.237   7.705  17.609  0.00  0.00    +0.000 A 
ATOM      8  C   UNL     1       2.389   7.959  18.676  0.00  0.00    +0.000 A 
ATOM      9  C   UNL     1       2.264   6.994  19.667  0.00  0.00    +0.000 A 
ATOM     10  C   UNL     1       1.419   7.266  20.878  0.00  0.00    +0.000 C 
ATOM     11  N   UNL     1       2.922   5.804  19.621  0.00  0.00    +0.000 NA
ATOM     12  C   UNL     1       3.749   5.544  18.575  0.00  0.00    +0.000 A 
ENDROOT
BRANCH   3  13
ATOM     13  C   UNL     1       6.395   4.480  15.248  0.00  0.00    +0.000 C 
ATOM     14  O   UNL     1       7.598   4.747  15.226  0.00  0.00    +0.000 OA
ATOM     15  N   UNL     1       5.759   3.785  14.239  0.00  0.00    +0.000 N 
ATOM     16  H   UNL     1       4.738   3.741  14.203  0.00  0.00    +0.000 HD
BRANCH  15  17
ATOM     17  N   UNL     1       6.481   3.445  13.093  0.00  0.00    +0.000 N 
ATOM     18  H   UNL     1       7.497   3.508  13.161  0.00  0.00    +0.000 HD
BRANCH  17  19
ATOM     19  C   UNL     1       5.939   2.793  12.032  0.00  0.00    +0.000 C 
ATOM     20  S   UNL     1       4.438   3.192  11.441  0.00  0.00    +0.000 S 
BRANCH  19  21
ATOM     21  N   UNL     1       6.649   1.789  11.471  0.00  0.00    +0.000 N 
ATOM     22  H   UNL     1       6.587   1.555  10.492  0.00  0.00    +0.000 HD
ATOM     23  H   UNL     1       7.246   1.225  12.063  0.00  0.00    +0.000 HD
ENDBRANCH  19  21
ENDBRANCH  17  19
ENDBRANCH  15  17
ENDBRANCH   3  13
BRANCH   1  25
ATOM     24  C   UNL     1       3.586   2.021  18.783  0.00  0.00    +0.000 C 
ATOM     25  C   UNL     1       4.090   3.285  19.472  0.00  0.00    +0.000 C 
ENDBRANCH   1  25
TORSDOF 5
ENDMDL
MODEL 2
REMARK VINA RESULT:      -7.2      3.431      6.745
REMARK  Name = 
REMARK  7 active torsions:
REMARK  status: ('A' for Active; 'I' for Inactive)
REMARK    1  A    between atoms: C_1  and  C_2
REMARK    2  A    between atoms: C_2  and  N_3
REMARK    3  A    between atoms: C_5  and  C_6
REMARK    4  A    between atoms: N_8  and  N_9
REMARK    5  A    between atoms: N_9  and  C_10
REMARK    6  A    between atoms: C_10  and  N_11
REMARK    7  A    between atoms: C_18  and  C_19
REMARK                            x       y       z     vdW  Elec       q    Type
REMARK                         _______ _______ _______ _____ _____    ______ ____
ROOT
ATOM      1  N   UNL     1       6.565   6.085  17.293  0.00  0.00    +0.000 N 
ATOM      2  C   UNL     1       5.695   5.763  18.326  0.00  0.00    +0.000 A 
ATOM      3  C   UNL     1       4.762   4.795  18.304  0.00  0.00    +0.000 A 
ATOM      4  C   UNL     1       4.668   4.001  17.058  0.00  0.00    +0.000 A 
ATOM      5  O   UNL     1       3.872   3.069  16.958  0.00  0.00    +0.000 OA
ATOM      6  C   UNL     1       5.555   4.352  15.930  0.00  0.00    +0.000 A 
ATOM      7  C   UNL     1       5.445   3.657  14.726  0.00  0.00    +0.000 A 
ATOM      8  C   UNL     1       6.288   3.987  13.676  0.00  0.00    +0.000 A 
ATOM      9  C   UNL     1       7.219   4.999  13.867  0.00  0.00    +0.000 A 
ATOM     10  C   UNL     1       8.203   5.328  12.781  0.00  0.00    +0.000 C 
ATOM     11  N   UNL     1       7.322   5.693  15.032  0.00  0.00    +0.000 NA
ATOM     12  C   UNL     1       6.495   5.382  16.063  0.00  0.00    +0.000 A 
ENDROOT
BRANCH   3  13
ATOM     13  C   UNL     1       3.865   4.590  19.478  0.00  0.00    +0.000 C 
ATOM     14  O   UNL     1       3.327   5.535  20.058  0.00  0.00    +0.000 OA
ATOM     15  N   UNL     1       3.696   3.275  19.864  0.00  0.00    +0.000 N 
ATOM     16  H   UNL     1       4.293   2.541  19.480  0.00  0.00    +0.000 HD
BRANCH  15  17
ATOM     17  N   UNL     1       2.961   2.999  21.020  0.00  0.00    +0.000 N 
ATOM     18  H   UNL     1       3.402   3.239  21.907  0.00  0.00    +0.000 HD
BRANCH  17  19
ATOM     19  C   UNL     1       1.634   2.705  21.011  0.00  0.00    +0.000 C 
ATOM     20  S   UNL     1       0.766   2.647  19.596  0.00  0.00    +0.000 S 
BRANCH  19  21
ATOM     21  N   UNL     1       1.026   2.473  22.195  0.00  0.00    +0.000 N 
ATOM     22  H   UNL     1       0.502   1.633  22.386  0.00  0.00    +0.000 HD
ATOM     23  H   UNL     1       1.069   3.186  22.913  0.00  0.00    +0.000 HD
ENDBRANCH  19  21
ENDBRANCH  17  19
ENDBRANCH  15  17
ENDBRANCH   3  13
BRANCH   1  25
ATOM     24  C   UNL     1       8.246   7.319  18.613  0.00  0.00    +0.000 C 
ATOM     25  C   UNL     1       7.437   7.268  17.321  0.00  0.00    +0.000 C 
ENDBRANCH   1  25
TORSDOF 5
ENDMDL
MODEL 3
REMARK VINA RESULT:      -7.1      1.818      2.350
REMARK  Name = 
REMARK  7 active torsions:
REMARK  status: ('A' for Active; 'I' for Inactive)
REMARK    1  A    between atoms: C_1  and  C_2
REMARK    2  A    between atoms: C_2  and  N_3
REMARK    3  A    between atoms: C_5  and  C_6
REMARK    4  A    between atoms: N_8  and  N_9
REMARK    5  A    between atoms: N_9  and  C_10
REMARK    6  A    between atoms: C_10  and  N_11
REMARK    7  A    between atoms: C_18  and  C_19
REMARK                            x       y       z     vdW  Elec       q    Type
REMARK                         _______ _______ _______ _____ _____    ______ ____
ROOT
ATOM      1  N   UNL     1       2.995   5.615  19.876  0.00  0.00    +0.000 N 
ATOM      2  C   UNL     1       3.938   4.958  19.097  0.00  0.00    +0.000 A 
ATOM      3  C   UNL     1       4.480   5.416  17.955  0.00  0.00    +0.000 A 
ATOM      4  C   UNL     1       4.026   6.750  17.501  0.00  0.00    +0.000 A 
ATOM      5  O   UNL     1       4.494   7.270  16.489  0.00  0.00    +0.000 OA
ATOM      6  C   UNL     1       2.992   7.450  18.291  0.00  0.00    +0.000 A 
ATOM      7  C   UNL     1       2.505   8.680  17.851  0.00  0.00    +0.000 A 
ATOM      8  C   UNL     1       1.542   9.334  18.605  0.00  0.00    +0.000 A 
ATOM      9  C   UNL     1       1.101   8.737  19.778  0.00  0.00    +0.000 A 
ATOM     10  C   UNL     1       0.121   9.453  20.662  0.00  0.00    +0.000 C 
ATOM     11  N   UNL     1       1.559   7.529  20.205  0.00  0.00    +0.000 NA
ATOM     12  C   UNL     1       2.496   6.878  19.469  0.00  0.00    +0.000 A 
ENDROOT
BRANCH   3  13
ATOM     13  C   UNL     1       5.456   4.579  17.198  0.00  0.00    +0.000 C 
ATOM     14  O   UNL     1       6.526   4.221  17.692  0.00  0.00    +0.000 OA
ATOM     15  N   UNL     1       5.073   4.251  15.912  0.00  0.00    +0.000 N 
ATOM     16  H   UNL     1       4.271   4.711  15.476  0.00  0.00    +0.000 HD
BRANCH  15  17
ATOM     17  N   UNL     1       5.972   3.562  15.094  0.00  0.00    +0.000 N 
ATOM     18  H   UNL     1       5.993   2.548  15.196  0.00  0.00    +0.000 HD
BRANCH  17  19
ATOM     19  C   UNL     1       6.584   4.121  14.018  0.00  0.00    +0.000 C 
ATOM     20  S   UNL     1       6.315   3.561  12.477  0.00  0.00    +0.000 S 
BRANCH  19  21
ATOM     21  N   UNL     1       7.439   5.145  14.233  0.00  0.00    +0.000 N 
ATOM     22  H   UNL     1       7.608   5.869  13.552  0.00  0.00    +0.000 HD
ATOM     23  H   UNL     1       7.958   5.172  15.102  0.00  0.00    +0.000 HD
ENDBRANCH  19  21
ENDBRANCH  17  19
ENDBRANCH  15  17
ENDBRANCH   3  13
BRANCH   1  25
ATOM     24  C   UNL     1       1.273   3.975  20.538  0.00  0.00    +0.000 C 
ATOM     25  C   UNL     1       2.317   4.979  21.015  0.00  0.00    +0.000 C 
ENDBRANCH   1  25
TORSDOF 5
ENDMDL
MODEL 4
REMARK VINA RESULT:      -7.0      2.155      2.725
REMARK  Name = 
REMARK  7 active torsions:
REMARK  status: ('A' for Active; 'I' for Inactive)
REMARK    1  A    between atoms: C_1  and  C_2
REMARK    2  A    between atoms: C_2  and  N_3
REMARK    3  A    between atoms: C_5  and  C_6
REMARK    4  A    between atoms: N_8  and  N_9
REMARK    5  A    between atoms: N_9  and  C_10
REMARK    6  A    between atoms: C_10  and  N_11
REMARK    7  A    between atoms: C_18  and  C_19
REMARK                            x       y       z     vdW  Elec       q    Type
REMARK                         _______ _______ _______ _____ _____    ______ ____
ROOT
ATOM      1  N   UNL     1       2.620   5.084  20.221  0.00  0.00    +0.000 N 
ATOM      2  C   UNL     1       3.461   4.518  19.272  0.00  0.00    +0.000 A 
ATOM      3  C   UNL     1       3.938   5.126  18.172  0.00  0.00    +0.000 A 
ATOM      4  C   UNL     1       3.527   6.534  17.969  0.00  0.00    +0.000 A 
ATOM      5  O   UNL     1       3.943   7.185  17.012  0.00  0.00    +0.000 OA
ATOM      6  C   UNL     1       2.599   7.145  18.942  0.00  0.00    +0.000 A 
ATOM      7  C   UNL     1       2.151   8.449  18.740  0.00  0.00    +0.000 A 
ATOM      8  C   UNL     1       1.288   9.018  19.665  0.00  0.00    +0.000 A 
ATOM      9  C   UNL     1       0.906   8.264  20.766  0.00  0.00    +0.000 A 
ATOM     10  C   UNL     1       0.039   8.874  21.830  0.00  0.00    +0.000 C 
ATOM     11  N   UNL     1       1.325   6.985  20.962  0.00  0.00    +0.000 NA
ATOM     12  C   UNL     1       2.164   6.417  20.057  0.00  0.00    +0.000 A 
ENDROOT
BRANCH   3  13
ATOM     13  C   UNL     1       4.802   4.377  17.214  0.00  0.00    +0.000 C 
ATOM     14  O   UNL     1       4.532   3.229  16.857  0.00  0.00    +0.000 OA
ATOM     15  N   UNL     1       5.919   5.059  16.774  0.00  0.00    +0.000 N 
ATOM     16  H   UNL     1       6.206   5.930  17.226  0.00  0.00    +0.000 HD
BRANCH  15  17
ATOM     17  N   UNL     1       6.841   4.395  15.962  0.00  0.00    +0.000 N 
ATOM     18  H   UNL     1       7.269   3.555  16.353  0.00  0.00    +0.000 HD
BRANCH  17  19
ATOM     19  C   UNL     1       6.977   4.635  14.632  0.00  0.00    +0.000 C 
ATOM     20  S   UNL     1       6.032   3.859  13.507  0.00  0.00    +0.000 S 
BRANCH  19  21
ATOM     21  N   UNL     1       7.919   5.519  14.238  0.00  0.00    +0.000 N 
ATOM     22  H   UNL     1       7.700   6.455  13.936  0.00  0.00    +0.000 HD
ATOM     23  H   UNL     1       8.887   5.221  14.213  0.00  0.00    +0.000 HD
ENDBRANCH  19  21
ENDBRANCH  17  19
ENDBRANCH  15  17
ENDBRANCH   3  13
BRANCH   1  25
ATOM     24  C   UNL     1       2.594   2.907  21.382  0.00  0.00    +0.000 C 
ATOM     25  C   UNL     1       1.997   4.307  21.302  0.00  0.00    +0.000 C 
ENDBRANCH   1  25
TORSDOF 5
ENDMDL
MODEL 5
REMARK VINA RESULT:      -7.0      3.561      6.782
REMARK  Name = 
REMARK  7 active torsions:
REMARK  status: ('A' for Active; 'I' for Inactive)
REMARK    1  A    between atoms: C_1  and  C_2
REMARK    2  A    between atoms: C_2  and  N_3
REMARK    3  A    between atoms: C_5  and  C_6
REMARK    4  A    between atoms: N_8  and  N_9
REMARK    5  A    between atoms: N_9  and  C_10
REMARK    6  A    between atoms: C_10  and  N_11
REMARK    7  A    between atoms: C_18  and  C_19
REMARK                            x       y       z     vdW  Elec       q    Type
REMARK                         _______ _______ _______ _____ _____    ______ ____
ROOT
ATOM      1  N   UNL     1       6.955   5.724  17.560  0.00  0.00    +0.000 N 
ATOM      2  C   UNL     1       6.123   5.301  18.588  0.00  0.00    +0.000 A 
ATOM      3  C   UNL     1       5.128   4.404  18.483  0.00  0.00    +0.000 A 
ATOM      4  C   UNL     1       4.913   3.814  17.142  0.00  0.00    +0.000 A 
ATOM      5  O   UNL     1       4.052   2.955  16.956  0.00  0.00    +0.000 OA
ATOM      6  C   UNL     1       5.758   4.280  16.023  0.00  0.00    +0.000 A 
ATOM      7  C   UNL     1       5.536   3.783  14.740  0.00  0.00    +0.000 A 
ATOM      8  C   UNL     1       6.342   4.218  13.698  0.00  0.00    +0.000 A 
ATOM      9  C   UNL     1       7.347   5.133  13.977  0.00  0.00    +0.000 A 
ATOM     10  C   UNL     1       8.291   5.565  12.891  0.00  0.00    +0.000 C 
ATOM     11  N   UNL     1       7.560   5.636  15.223  0.00  0.00    +0.000 NA
ATOM     12  C   UNL     1       6.771   5.221  16.248  0.00  0.00    +0.000 A 
ENDROOT
BRANCH   3  13
ATOM     13  C   UNL     1       4.284   4.075  19.669  0.00  0.00    +0.000 C 
ATOM     14  O   UNL     1       4.353   2.981  20.232  0.00  0.00    +0.000 OA
ATOM     15  N   UNL     1       3.424   5.077  20.072  0.00  0.00    +0.000 N 
ATOM     16  H   UNL     1       3.264   5.894  19.479  0.00  0.00    +0.000 HD
BRANCH  15  17
ATOM     17  N   UNL     1       2.520   4.817  21.105  0.00  0.00    +0.000 N 
ATOM     18  H   UNL     1       2.288   5.602  21.714  0.00  0.00    +0.000 HD
BRANCH  17  19
ATOM     19  C   UNL     1       1.751   3.699  21.164  0.00  0.00    +0.000 C 
ATOM     20  S   UNL     1       0.672   3.322  19.958  0.00  0.00    +0.000 S 
BRANCH  19  21
ATOM     21  N   UNL     1       1.874   2.898  22.245  0.00  0.00    +0.000 N 
ATOM     22  H   UNL     1       1.757   3.231  23.189  0.00  0.00    +0.000 HD
ATOM     23  H   UNL     1       2.126   1.927  22.106  0.00  0.00    +0.000 HD
ENDBRANCH  19  21
ENDBRANCH  17  19
ENDBRANCH  15  17
ENDBRANCH   3  13
BRANCH   1  25
ATOM     24  C   UNL     1       7.198   8.180  17.574  0.00  0.00    +0.000 C 
ATOM     25  C   UNL     1       7.905   6.836  17.708  0.00  0.00    +0.000 C 
ENDBRANCH   1  25
TORSDOF 5
ENDMDL
MODEL 6
REMARK VINA RESULT:      -6.8      1.944      3.575
REMARK  Name = 
REMARK  7 active torsions:
REMARK  status: ('A' for Active; 'I' for Inactive)
REMARK    1  A    between atoms: C_1  and  C_2
REMARK    2  A    between atoms: C_2  and  N_3
REMARK    3  A    between atoms: C_5  and  C_6
REMARK    4  A    between atoms: N_8  and  N_9
REMARK    5  A    between atoms: N_9  and  C_10
REMARK    6  A    between atoms: C_10  and  N_11
REMARK    7  A    between atoms: C_18  and  C_19
REMARK                            x       y       z     vdW  Elec       q    Type
REMARK                         _______ _______ _______ _____ _____    ______ ____
ROOT
ATOM      1  N   UNL     1       3.142   6.057  18.542  0.00  0.00    +0.000 N 
ATOM      2  C   UNL     1       3.995   6.344  17.484  0.00  0.00    +0.000 A 
ATOM      3  C   UNL     1       4.742   5.457  16.805  0.00  0.00    +0.000 A 
ATOM      4  C   UNL     1       4.631   4.042  17.230  0.00  0.00    +0.000 A 
ATOM      5  O   UNL     1       5.246   3.153  16.643  0.00  0.00    +0.000 OA
ATOM      6  C   UNL     1       3.762   3.718  18.380  0.00  0.00    +0.000 A 
ATOM      7  C   UNL     1       3.686   2.403  18.835  0.00  0.00    +0.000 A 
ATOM      8  C   UNL     1       2.860   2.106  19.908  0.00  0.00    +0.000 A 
ATOM      9  C   UNL     1       2.131   3.135  20.488  0.00  0.00    +0.000 A 
ATOM     10  C   UNL     1       1.164   2.839  21.598  0.00  0.00    +0.000 C 
ATOM     11  N   UNL     1       2.212   4.424  20.060  0.00  0.00    +0.000 NA
ATOM     12  C   UNL     1       3.025   4.725  19.015  0.00  0.00    +0.000 A 
ENDROOT
BRANCH   3  13
ATOM     13  C   UNL     1       5.650   5.917  15.714  0.00  0.00    +0.000 C 
ATOM     14  O   UNL     1       5.337   6.834  14.953  0.00  0.00    +0.000 OA
ATOM     15  N   UNL     1       6.847   5.236  15.621  0.00  0.00    +0.000 N 
ATOM     16  H   UNL     1       6.995   4.372  16.146  0.00  0.00    +0.000 HD
BRANCH  15  17
ATOM     17  N   UNL     1       7.710   5.528  14.561  0.00  0.00    +0.000 N 
ATOM     18  H   UNL     1       8.641   5.859  14.812  0.00  0.00    +0.000 HD
BRANCH  17  19
ATOM     19  C   UNL     1       7.481   5.139  13.280  0.00  0.00    +0.000 C 
ATOM     20  S   UNL     1       6.552   3.807  12.929  0.00  0.00    +0.000 S 
BRANCH  19  21
ATOM     21  N   UNL     1       8.044   5.859  12.285  0.00  0.00    +0.000 N 
ATOM     22  H   UNL     1       7.700   6.763  12.001  0.00  0.00    +0.000 HD
ATOM     23  H   UNL     1       8.828   5.462  11.780  0.00  0.00    +0.000 HD
ENDBRANCH  19  21
ENDBRANCH  17  19
ENDBRANCH  15  17
ENDBRANCH   3  13
BRANCH   1  25
ATOM     24  C   UNL     1       2.021   8.254  18.475  0.00  0.00    +0.000 C 
ATOM     25  C   UNL     1       2.492   7.098  19.350  0.00  0.00    +0.000 C 
ENDBRANCH   1  25
TORSDOF 5
ENDMDL
MODEL 7
REMARK VINA RESULT:      -6.7      3.585      6.696
REMARK  Name = 
REMARK  7 active torsions:
REMARK  status: ('A' for Active; 'I' for Inactive)
REMARK    1  A    between atoms: C_1  and  C_2
REMARK    2  A    between atoms: C_2  and  N_3
REMARK    3  A    between atoms: C_5  and  C_6
REMARK    4  A    between atoms: N_8  and  N_9
REMARK    5  A    between atoms: N_9  and  C_10
REMARK    6  A    between atoms: C_10  and  N_11
REMARK    7  A    between atoms: C_18  and  C_19
REMARK                            x       y       z     vdW  Elec       q    Type
REMARK                         _______ _______ _______ _____ _____    ______ ____
ROOT
ATOM      1  N   UNL     1       6.538   6.173  17.178  0.00  0.00    +0.000 N 
ATOM      2  C   UNL     1       5.624   5.906  18.189  0.00  0.00    +0.000 A 
ATOM      3  C   UNL     1       4.648   4.982  18.153  0.00  0.00    +0.000 A 
ATOM      4  C   UNL     1       4.555   4.174  16.915  0.00  0.00    +0.000 A 
ATOM      5  O   UNL     1       3.720   3.278  16.804  0.00  0.00    +0.000 OA
ATOM      6  C   UNL     1       5.489   4.467  15.809  0.00  0.00    +0.000 A 
ATOM      7  C   UNL     1       5.382   3.760  14.613  0.00  0.00    +0.000 A 
ATOM      8  C   UNL     1       6.271   4.035  13.584  0.00  0.00    +0.000 A 
ATOM      9  C   UNL     1       7.241   5.007  13.789  0.00  0.00    +0.000 A 
ATOM     10  C   UNL     1       8.272   5.274  12.729  0.00  0.00    +0.000 C 
ATOM     11  N   UNL     1       7.342   5.712  14.947  0.00  0.00    +0.000 NA
ATOM     12  C   UNL     1       6.471   5.455  15.957  0.00  0.00    +0.000 A 
ENDROOT
BRANCH   3  13
ATOM     13  C   UNL     1       3.708   4.835  19.302  0.00  0.00    +0.000 C 
ATOM     14  O   UNL     1       4.112   4.729  20.461  0.00  0.00    +0.000 OA
ATOM     15  N   UNL     1       2.369   4.817  18.966  0.00  0.00    +0.000 N 
ATOM     16  H   UNL     1       2.081   4.725  17.990  0.00  0.00    +0.000 HD
BRANCH  15  17
ATOM     17  N   UNL     1       1.424   4.574  19.965  0.00  0.00    +0.000 N 
ATOM     18  H   UNL     1       0.860   5.371  20.260  0.00  0.00    +0.000 HD
BRANCH  17  19
ATOM     19  C   UNL     1       1.039   3.328  20.346  0.00  0.00    +0.000 C 
ATOM     20  S   UNL     1       1.557   2.657  21.775  0.00  0.00    +0.000 S 
BRANCH  19  21
ATOM     21  N   UNL     1       0.229   2.632  19.519  0.00  0.00    +0.000 N 
ATOM     22  H   UNL     1      -0.774   2.727  19.527  0.00  0.00    +0.000 HD
ATOM     23  H   UNL     1       0.643   1.961  18.882  0.00  0.00    +0.000 HD
ENDBRANCH  19  21
ENDBRANCH  17  19
ENDBRANCH  15  17
ENDBRANCH   3  13
BRANCH   1  25
ATOM     24  C   UNL     1       8.212   7.365  18.544  0.00  0.00    +0.000 C 
ATOM     25  C   UNL     1       7.462   7.315  17.217  0.00  0.00    +0.000 C 
ENDBRANCH   1  25
TORSDOF 5
ENDMDL
MODEL 8
REMARK VINA RESULT:      -6.7      3.824      7.089
REMARK  Name = 
REMARK  7 active torsions:
REMARK  status: ('A' for Active; 'I' for Inactive)
REMARK    1  A    between atoms: C_1  and  C_2
REMARK    2  A    between atoms: C_2  and  N_3
REMARK    3  A    between atoms: C_5  and  C_6
REMARK    4  A    between atoms: N_8  and  N_9
REMARK    5  A    between atoms: N_9  and  C_10
REMARK    6  A    between atoms: C_10  and  N_11
REMARK    7  A    between atoms: C_18  and  C_19
REMARK                            x       y       z     vdW  Elec       q    Type
REMARK                         _______ _______ _______ _____ _____    ______ ____
ROOT
ATOM      1  N   UNL     1       3.452   3.637  17.885  0.00  0.00    +0.000 N 
ATOM      2  C   UNL     1       2.753   4.271  18.904  0.00  0.00    +0.000 A 
ATOM      3  C   UNL     1       2.671   5.598  19.102  0.00  0.00    +0.000 A 
ATOM      4  C   UNL     1       3.393   6.453  18.133  0.00  0.00    +0.000 A 
ATOM      5  O   UNL     1       3.345   7.680  18.209  0.00  0.00    +0.000 OA
ATOM      6  C   UNL     1       4.178   5.801  17.065  0.00  0.00    +0.000 A 
ATOM      7  C   UNL     1       4.913   6.583  16.176  0.00  0.00    +0.000 A 
ATOM      8  C   UNL     1       5.639   5.963  15.170  0.00  0.00    +0.000 A 
ATOM      9  C   UNL     1       5.600   4.578  15.084  0.00  0.00    +0.000 A 
ATOM     10  C   UNL     1       6.306   3.876  13.959  0.00  0.00    +0.000 C 
ATOM     11  N   UNL     1       4.898   3.806  15.957  0.00  0.00    +0.000 NA
ATOM     12  C   UNL     1       4.192   4.405  16.950  0.00  0.00    +0.000 A 
ENDROOT
BRANCH   3  13
ATOM     13  C   UNL     1       1.916   6.138  20.270  0.00  0.00    +0.000 C 
ATOM     14  O   UNL     1       1.063   5.469  20.857  0.00  0.00    +0.000 OA
ATOM     15  N   UNL     1       2.237   7.431  20.629  0.00  0.00    +0.000 N 
ATOM     16  H   UNL     1       2.811   8.013  20.015  0.00  0.00    +0.000 HD
BRANCH  15  17
ATOM     17  N   UNL     1       1.503   8.054  21.641  0.00  0.00    +0.000 N 
ATOM     18  H   UNL     1       1.766   7.826  22.600  0.00  0.00    +0.000 HD
BRANCH  17  19
ATOM     19  C   UNL     1       0.683   9.117  21.427  0.00  0.00    +0.000 C 
ATOM     20  S   UNL     1      -0.273   9.734  22.637  0.00  0.00    +0.000 S 
BRANCH  19  21
ATOM     21  N   UNL     1       0.651   9.657  20.189  0.00  0.00    +0.000 N 
ATOM     22  H   UNL     1       1.405   9.555  19.527  0.00  0.00    +0.000 HD
ATOM     23  H   UNL     1      -0.150  10.216  19.922  0.00  0.00    +0.000 HD
ENDBRANCH  19  21
ENDBRANCH  17  19
ENDBRANCH  15  17
ENDBRANCH   3  13
BRANCH   1  25
ATOM     24  C   UNL     1       3.890   1.612  19.225  0.00  0.00    +0.000 C 
ATOM     25  C   UNL     1       3.643   2.181  17.832  0.00  0.00    +0.000 C 
ENDBRANCH   1  25
TORSDOF 5
ENDMDL
MODEL 9
REMARK VINA RESULT:      -6.7      1.676      1.713
REMARK  Name = 
REMARK  7 active torsions:
REMARK  status: ('A' for Active; 'I' for Inactive)
REMARK    1  A    between atoms: C_1  and  C_2
REMARK    2  A    between atoms: C_2  and  N_3
REMARK    3  A    between atoms: C_5  and  C_6
REMARK    4  A    between atoms: N_8  and  N_9
REMARK    5  A    between atoms: N_9  and  C_10
REMARK    6  A    between atoms: C_10  and  N_11
REMARK    7  A    between atoms: C_18  and  C_19
REMARK                            x       y       z     vdW  Elec       q    Type
REMARK                         _______ _______ _______ _____ _____    ______ ____
ROOT
ATOM      1  N   UNL     1       4.068   4.663  18.907  0.00  0.00    +0.000 N 
ATOM      2  C   UNL     1       4.927   4.314  17.873  0.00  0.00    +0.000 A 
ATOM      3  C   UNL     1       5.248   5.080  16.816  0.00  0.00    +0.000 A 
ATOM      4  C   UNL     1       4.626   6.424  16.766  0.00  0.00    +0.000 A 
ATOM      5  O   UNL     1       4.889   7.212  15.859  0.00  0.00    +0.000 OA
ATOM      6  C   UNL     1       3.677   6.802  17.833  0.00  0.00    +0.000 A 
ATOM      7  C   UNL     1       3.034   8.037  17.776  0.00  0.00    +0.000 A 
ATOM      8  C   UNL     1       2.152   8.388  18.787  0.00  0.00    +0.000 A 
ATOM      9  C   UNL     1       1.946   7.491  19.827  0.00  0.00    +0.000 A 
ATOM     10  C   UNL     1       1.063   7.869  20.981  0.00  0.00    +0.000 C 
ATOM     11  N   UNL     1       2.557   6.276  19.882  0.00  0.00    +0.000 NA
ATOM     12  C   UNL     1       3.416   5.922  18.891  0.00  0.00    +0.000 A 
ENDROOT
BRANCH   3  13
ATOM     13  C   UNL     1       6.155   4.555  15.755  0.00  0.00    +0.000 C 
ATOM     14  O   UNL     1       6.142   3.370  15.418  0.00  0.00    +0.000 OA
ATOM     15  N   UNL     1       7.005   5.488  15.196  0.00  0.00    +0.000 N 
ATOM     16  H   UNL     1       7.115   6.411  15.622  0.00  0.00    +0.000 HD
BRANCH  15  17
ATOM     17  N   UNL     1       7.963   5.062  14.273  0.00  0.00    +0.000 N 
ATOM     18  H   UNL     1       8.720   4.484  14.638  0.00  0.00    +0.000 HD
BRANCH  17  19
ATOM     19  C   UNL     1       7.793   5.138  12.927  0.00  0.00    +0.000 C 
ATOM     20  S   UNL     1       6.979   3.958  12.087  0.00  0.00    +0.000 S 
BRANCH  19  21
ATOM     21  N   UNL     1       8.318   6.199  12.277  0.00  0.00    +0.000 N 
ATOM     22  H   UNL     1       8.969   6.106  11.513  0.00  0.00    +0.000 HD
ATOM     23  H   UNL     1       8.074   7.131  12.589  0.00  0.00    +0.000 HD
ENDBRANCH  19  21
ENDBRANCH  17  19
ENDBRANCH  15  17
ENDBRANCH   3  13
BRANCH   1  25
ATOM     24  C   UNL     1       2.821   2.572  19.316  0.00  0.00    +0.000 C 
ATOM     25  C   UNL     1       3.626   3.710  19.936  0.00  0.00    +0.000 C 
ENDBRANCH   1  25
TORSDOF 5
ENDMDL
