MODEL 1
REMARK VINA RESULT:      -7.4      0.000      0.000
REMARK  Name = 
REMARK  8 active torsions:
REMARK  status: ('A' for Active; 'I' for Inactive)
REMARK    1  A    between atoms: C_1  and  C_2
REMARK    2  A    between atoms: C_2  and  N_3
REMARK    3  A    between atoms: C_4  and  C_5
REMARK    4  A    between atoms: N_7  and  C_8
REMARK    5  A    between atoms: C_16  and  S_17
REMARK    6  A    between atoms: S_17  and  N_20
REMARK    7  A    between atoms: N_20  and  C_21
REMARK    8  A    between atoms: N_20  and  C_22
REMARK                            x       y       z     vdW  Elec       q    Type
REMARK                         _______ _______ _______ _____ _____    ______ ____
ROOT
ATOM      1  N   UNL     1       2.348   6.363  19.760  0.00  0.00    +0.000 N 
ATOM      2  C   UNL     1       2.795   6.452  18.449  0.00  0.00    +0.000 A 
ATOM      3  C   UNL     1       2.468   7.731  18.020  0.00  0.00    +0.000 A 
ATOM      4  C   UNL     1       1.820   8.423  19.068  0.00  0.00    +0.000 A 
ATOM      5  C   UNL     1       1.264   9.712  19.167  0.00  0.00    +0.000 A 
ATOM      6  C   UNL     1       0.656  10.090  20.368  0.00  0.00    +0.000 A 
ATOM      7  C   UNL     1       0.642   9.237  21.472  0.00  0.00    +0.000 A 
ATOM      8  C   UNL     1       1.191   7.952  21.383  0.00  0.00    +0.000 A 
ATOM      9  C   UNL     1       1.766   7.560  20.160  0.00  0.00    +0.000 A 
ENDROOT
BRANCH   2  10
ATOM     10  C   UNL     1       3.422   5.390  17.673  0.00  0.00    +0.000 C 
ATOM     11  O   UNL     1       2.893   4.308  17.439  0.00  0.00    +0.000 OA
ATOM     12  N   UNL     1       4.679   5.716  17.207  0.00  0.00    +0.000 N 
ATOM     13  H   UNL     1       5.141   6.501  17.643  0.00  0.00    +0.000 HD
BRANCH  12  14
ATOM     14  C   UNL     1       5.483   4.830  16.394  0.00  0.00    +0.000 C 
ATOM     15  C   UNL     1       4.910   4.688  14.987  0.00  0.00    +0.000 C 
ATOM     16  C   UNL     1       6.078   4.173  14.162  0.00  0.00    +0.000 C 
ATOM     17  C   UNL     1       7.329   4.756  14.813  0.00  0.00    +0.000 C 
ATOM     18  C   UNL     1       6.890   5.369  16.143  0.00  0.00    +0.000 C 
ENDBRANCH  12  14
ENDBRANCH   2  10
BRANCH   6  19
ATOM     19  S   UNL     1      -0.059  11.718  20.498  0.00  0.00    +0.000 S 
ATOM     20  O   UNL     1      -1.437  11.619  20.062  0.00  0.00    +0.000 OA
ATOM     21  O   UNL     1       0.274  12.239  21.808  0.00  0.00    +0.000 OA
BRANCH  19  22
ATOM     22  N   UNL     1       0.801  12.613  19.331  0.00  0.00    +0.000 NA
ATOM     23  C   UNL     1       0.008  13.402  18.373  0.00  0.00    +0.000 C 
ATOM     24  C   UNL     1       2.011  13.310  19.798  0.00  0.00    +0.000 C 
ENDBRANCH  19  22
ENDBRANCH   6  19
BRANCH   1  26
ATOM     25  C   UNL     1       1.221   4.315  20.554  0.00  0.00    +0.000 C 
ATOM     26  C   UNL     1       2.461   5.192  20.621  0.00  0.00    +0.000 C 
ENDBRANCH   1  26
TORSDOF 5
ENDMDL
MODEL 2
REMARK VINA RESULT:      -7.3      2.917      8.140
REMARK  Name = 
REMARK  8 active torsions:
REMARK  status: ('A' for Active; 'I' for Inactive)
REMARK    1  A    between atoms: C_1  and  C_2
REMARK    2  A    between atoms: C_2  and  N_3
REMARK    3  A    between atoms: C_4  and  C_5
REMARK    4  A    between atoms: N_7  and  C_8
REMARK    5  A    between atoms: C_16  and  S_17
REMARK    6  A    between atoms: S_17  and  N_20
REMARK    7  A    between atoms: N_20  and  C_21
REMARK    8  A    between atoms: N_20  and  C_22
REMARK                            x       y       z     vdW  Elec       q    Type
REMARK                         _______ _______ _______ _____ _____    ______ ____
ROOT
ATOM      1  N   UNL     1       1.326   8.406  19.813  0.00  0.00    +0.000 N 
ATOM      2  C   UNL     1       1.261   9.327  18.776  0.00  0.00    +0.000 A 
ATOM      3  C   UNL     1       2.142   8.871  17.805  0.00  0.00    +0.000 A 
ATOM      4  C   UNL     1       2.748   7.674  18.249  0.00  0.00    +0.000 A 
ATOM      5  C   UNL     1       3.716   6.822  17.687  0.00  0.00    +0.000 A 
ATOM      6  C   UNL     1       4.130   5.702  18.415  0.00  0.00    +0.000 A 
ATOM      7  C   UNL     1       3.562   5.394  19.651  0.00  0.00    +0.000 A 
ATOM      8  C   UNL     1       2.599   6.236  20.220  0.00  0.00    +0.000 A 
ATOM      9  C   UNL     1       2.214   7.383  19.503  0.00  0.00    +0.000 A 
ENDROOT
BRANCH   2  10
ATOM     10  C   UNL     1       0.471  10.552  18.752  0.00  0.00    +0.000 C 
ATOM     11  O   UNL     1       0.949  11.677  18.852  0.00  0.00    +0.000 OA
ATOM     12  N   UNL     1      -0.881  10.332  18.595  0.00  0.00    +0.000 N 
ATOM     13  H   UNL     1      -1.219   9.397  18.773  0.00  0.00    +0.000 HD
BRANCH  12  14
ATOM     14  C   UNL     1      -1.858  11.396  18.518  0.00  0.00    +0.000 C 
ATOM     15  C   UNL     1      -3.201  10.887  18.003  0.00  0.00    +0.000 C 
ATOM     16  C   UNL     1      -4.194  11.949  18.446  0.00  0.00    +0.000 C 
ATOM     17  C   UNL     1      -3.632  12.521  19.744  0.00  0.00    +0.000 C 
ATOM     18  C   UNL     1      -2.210  11.978  19.886  0.00  0.00    +0.000 C 
ENDBRANCH  12  14
ENDBRANCH   2  10
BRANCH   6  19
ATOM     19  S   UNL     1       5.363   4.624  17.712  0.00  0.00    +0.000 S 
ATOM     20  O   UNL     1       6.264   4.247  18.782  0.00  0.00    +0.000 OA
ATOM     21  O   UNL     1       4.672   3.620  16.930  0.00  0.00    +0.000 OA
BRANCH  19  22
ATOM     22  N   UNL     1       6.210   5.648  16.645  0.00  0.00    +0.000 NA
ATOM     23  C   UNL     1       7.304   6.452  17.214  0.00  0.00    +0.000 C 
ATOM     24  C   UNL     1       6.523   5.096  15.316  0.00  0.00    +0.000 C 
ENDBRANCH  19  22
ENDBRANCH   6  19
BRANCH   1  26
ATOM     25  C   UNL     1       1.367   9.177  22.158  0.00  0.00    +0.000 C 
ATOM     26  C   UNL     1       0.579   8.477  21.063  0.00  0.00    +0.000 C 
ENDBRANCH   1  26
TORSDOF 5
ENDMDL
MODEL 3
REMARK VINA RESULT:      -7.3      2.422      7.878
REMARK  Name = 
REMARK  8 active torsions:
REMARK  status: ('A' for Active; 'I' for Inactive)
REMARK    1  A    between atoms: C_1  and  C_2
REMARK    2  A    between atoms: C_2  and  N_3
REMARK    3  A    between atoms: C_4  and  C_5
REMARK    4  A    between atoms: N_7  and  C_8
REMARK    5  A    between atoms: C_16  and  S_17
REMARK    6  A    between atoms: S_17  and  N_20
REMARK    7  A    between atoms: N_20  and  C_21
REMARK    8  A    between atoms: N_20  and  C_22
REMARK                            x       y       z     vdW  Elec       q    Type
REMARK                         _______ _______ _______ _____ _____    ______ ____
ROOT
ATOM      1  N   UNL     1       1.285   8.468  19.876  0.00  0.00    +0.000 N 
ATOM      2  C   UNL     1       1.439   9.302  18.778  0.00  0.00    +0.000 A 
ATOM      3  C   UNL     1       2.272   8.626  17.898  0.00  0.00    +0.000 A 
ATOM      4  C   UNL     1       2.630   7.379  18.459  0.00  0.00    +0.000 A 
ATOM      5  C   UNL     1       3.457   6.330  18.018  0.00  0.00    +0.000 A 
ATOM      6  C   UNL     1       3.626   5.215  18.845  0.00  0.00    +0.000 A 
ATOM      7  C   UNL     1       2.951   5.107  20.060  0.00  0.00    +0.000 A 
ATOM      8  C   UNL     1       2.127   6.146  20.509  0.00  0.00    +0.000 A 
ATOM      9  C   UNL     1       1.990   7.284  19.693  0.00  0.00    +0.000 A 
ENDROOT
BRANCH   2  10
ATOM     10  C   UNL     1       0.884  10.640  18.620  0.00  0.00    +0.000 C 
ATOM     11  O   UNL     1      -0.307  10.871  18.440  0.00  0.00    +0.000 OA
ATOM     12  N   UNL     1       1.828  11.642  18.702  0.00  0.00    +0.000 N 
ATOM     13  H   UNL     1       2.796  11.371  18.597  0.00  0.00    +0.000 HD
BRANCH  12  14
ATOM     14  C   UNL     1       1.509  13.050  18.600  0.00  0.00    +0.000 C 
ATOM     15  C   UNL     1       1.196  13.653  19.966  0.00  0.00    +0.000 C 
ATOM     16  C   UNL     1       1.380  15.147  19.761  0.00  0.00    +0.000 C 
ATOM     17  C   UNL     1       2.460  15.286  18.692  0.00  0.00    +0.000 C 
ATOM     18  C   UNL     1       2.687  13.890  18.112  0.00  0.00    +0.000 C 
ENDBRANCH  12  14
ENDBRANCH   2  10
BRANCH   6  19
ATOM     19  S   UNL     1       4.681   3.886  18.297  0.00  0.00    +0.000 S 
ATOM     20  O   UNL     1       5.375   3.380  19.462  0.00  0.00    +0.000 OA
ATOM     21  O   UNL     1       3.883   3.010  17.464  0.00  0.00    +0.000 OA
BRANCH  19  22
ATOM     22  N   UNL     1       5.819   4.678  17.306  0.00  0.00    +0.000 NA
ATOM     23  C   UNL     1       7.137   4.963  17.897  0.00  0.00    +0.000 C 
ATOM     24  C   UNL     1       5.893   4.232  15.905  0.00  0.00    +0.000 C 
ENDBRANCH  19  22
ENDBRANCH   6  19
BRANCH   1  26
ATOM     25  C   UNL     1       1.374   9.227  22.224  0.00  0.00    +0.000 C 
ATOM     26  C   UNL     1       0.501   8.765  21.069  0.00  0.00    +0.000 C 
ENDBRANCH   1  26
TORSDOF 5
ENDMDL
MODEL 4
REMARK VINA RESULT:      -7.2      0.886      1.112
REMARK  Name = 
REMARK  8 active torsions:
REMARK  status: ('A' for Active; 'I' for Inactive)
REMARK    1  A    between atoms: C_1  and  C_2
REMARK    2  A    between atoms: C_2  and  N_3
REMARK    3  A    between atoms: C_4  and  C_5
REMARK    4  A    between atoms: N_7  and  C_8
REMARK    5  A    between atoms: C_16  and  S_17
REMARK    6  A    between atoms: S_17  and  N_20
REMARK    7  A    between atoms: N_20  and  C_21
REMARK    8  A    between atoms: N_20  and  C_22
REMARK                            x       y       z     vdW  Elec       q    Type
REMARK                         _______ _______ _______ _____ _____    ______ ____
ROOT
ATOM      1  N   UNL     1       2.351   6.538  19.697  0.00  0.00    +0.000 N 
ATOM      2  C   UNL     1       2.818   6.553  18.390  0.00  0.00    +0.000 A 
ATOM      3  C   UNL     1       2.482   7.800  17.880  0.00  0.00    +0.000 A 
ATOM      4  C   UNL     1       1.808   8.545  18.874  0.00  0.00    +0.000 A 
ATOM      5  C   UNL     1       1.236   9.830  18.887  0.00  0.00    +0.000 A 
ATOM      6  C   UNL     1       0.603  10.272  20.053  0.00  0.00    +0.000 A 
ATOM      7  C   UNL     1       0.582   9.486  21.205  0.00  0.00    +0.000 A 
ATOM      8  C   UNL     1       1.148   8.206  21.202  0.00  0.00    +0.000 A 
ATOM      9  C   UNL     1       1.748   7.748  20.015  0.00  0.00    +0.000 A 
ENDROOT
BRANCH   2  10
ATOM     10  C   UNL     1       3.470   5.455  17.689  0.00  0.00    +0.000 C 
ATOM     11  O   UNL     1       2.991   4.331  17.580  0.00  0.00    +0.000 OA
ATOM     12  N   UNL     1       4.689   5.797  17.141  0.00  0.00    +0.000 N 
ATOM     13  H   UNL     1       5.124   6.642  17.481  0.00  0.00    +0.000 HD
BRANCH  12  14
ATOM     14  C   UNL     1       5.507   4.879  16.379  0.00  0.00    +0.000 C 
ATOM     15  C   UNL     1       4.939   4.652  14.981  0.00  0.00    +0.000 C 
ATOM     16  C   UNL     1       6.117   4.109  14.188  0.00  0.00    +0.000 C 
ATOM     17  C   UNL     1       7.358   4.744  14.808  0.00  0.00    +0.000 C 
ATOM     18  C   UNL     1       6.907   5.423  16.101  0.00  0.00    +0.000 C 
ENDBRANCH  12  14
ENDBRANCH   2  10
BRANCH   6  19
ATOM     19  S   UNL     1      -0.133  11.895  20.073  0.00  0.00    +0.000 S 
ATOM     20  O   UNL     1       0.007  12.448  18.742  0.00  0.00    +0.000 OA
ATOM     21  O   UNL     1      -1.435  11.777  20.699  0.00  0.00    +0.000 OA
BRANCH  19  22
ATOM     22  N   UNL     1       0.887  12.770  21.120  0.00  0.00    +0.000 NA
ATOM     23  C   UNL     1       2.210  13.155  20.599  0.00  0.00    +0.000 C 
ATOM     24  C   UNL     1       0.251  13.824  21.928  0.00  0.00    +0.000 C 
ENDBRANCH  19  22
ENDBRANCH   6  19
BRANCH   1  26
ATOM     25  C   UNL     1       1.256   4.501  20.563  0.00  0.00    +0.000 C 
ATOM     26  C   UNL     1       2.464   5.421  20.628  0.00  0.00    +0.000 C 
ENDBRANCH   1  26
TORSDOF 5
ENDMDL
MODEL 5
REMARK VINA RESULT:      -7.2      1.345      1.620
REMARK  Name = 
REMARK  8 active torsions:
REMARK  status: ('A' for Active; 'I' for Inactive)
REMARK    1  A    between atoms: C_1  and  C_2
REMARK    2  A    between atoms: C_2  and  N_3
REMARK    3  A    between atoms: C_4  and  C_5
REMARK    4  A    between atoms: N_7  and  C_8
REMARK    5  A    between atoms: C_16  and  S_17
REMARK    6  A    between atoms: S_17  and  N_20
REMARK    7  A    between atoms: N_20  and  C_21
REMARK    8  A    between atoms: N_20  and  C_22
REMARK                            x       y       z     vdW  Elec       q    Type
REMARK                         _______ _______ _______ _____ _____    ______ ____
ROOT
ATOM      1  N   UNL     1       2.154   6.724  19.894  0.00  0.00    +0.000 N 
ATOM      2  C   UNL     1       2.548   6.780  18.564  0.00  0.00    +0.000 A 
ATOM      3  C   UNL     1       2.240   8.060  18.127  0.00  0.00    +0.000 A 
ATOM      4  C   UNL     1       1.655   8.788  19.189  0.00  0.00    +0.000 A 
ATOM      5  C   UNL     1       1.141  10.093  19.289  0.00  0.00    +0.000 A 
ATOM      6  C   UNL     1       0.594  10.508  20.507  0.00  0.00    +0.000 A 
ATOM      7  C   UNL     1       0.602   9.673  21.624  0.00  0.00    +0.000 A 
ATOM      8  C   UNL     1       1.110   8.372  21.535  0.00  0.00    +0.000 A 
ATOM      9  C   UNL     1       1.623   7.943  20.297  0.00  0.00    +0.000 A 
ENDROOT
BRANCH   2  10
ATOM     10  C   UNL     1       3.112   5.688  17.780  0.00  0.00    +0.000 C 
ATOM     11  O   UNL     1       2.493   4.675  17.472  0.00  0.00    +0.000 OA
ATOM     12  N   UNL     1       4.421   5.900  17.401  0.00  0.00    +0.000 N 
ATOM     13  H   UNL     1       4.932   6.619  17.894  0.00  0.00    +0.000 HD
BRANCH  12  14
ATOM     14  C   UNL     1       5.181   4.967  16.598  0.00  0.00    +0.000 C 
ATOM     15  C   UNL     1       5.366   5.476  15.172  0.00  0.00    +0.000 C 
ATOM     16  C   UNL     1       6.546   4.677  14.644  0.00  0.00    +0.000 C 
ATOM     17  C   UNL     1       7.425   4.391  15.859  0.00  0.00    +0.000 C 
ATOM     18  C   UNL     1       6.615   4.790  17.092  0.00  0.00    +0.000 C 
ENDBRANCH  12  14
ENDBRANCH   2  10
BRANCH   6  19
ATOM     19  S   UNL     1      -0.069  12.158  20.638  0.00  0.00    +0.000 S 
ATOM     20  O   UNL     1       0.167  12.610  21.994  0.00  0.00    +0.000 OA
ATOM     21  O   UNL     1       0.417  12.916  19.503  0.00  0.00    +0.000 OA
BRANCH  19  22
ATOM     22  N   UNL     1      -1.744  11.918  20.445  0.00  0.00    +0.000 NA
ATOM     23  C   UNL     1      -2.635  12.643  21.367  0.00  0.00    +0.000 C 
ATOM     24  C   UNL     1      -2.247  11.878  19.062  0.00  0.00    +0.000 C 
ENDBRANCH  19  22
ENDBRANCH   6  19
BRANCH   1  26
ATOM     25  C   UNL     1       1.133   4.577  20.557  0.00  0.00    +0.000 C 
ATOM     26  C   UNL     1       2.269   5.564  20.769  0.00  0.00    +0.000 C 
ENDBRANCH   1  26
TORSDOF 5
ENDMDL
MODEL 6
REMARK VINA RESULT:      -7.2      3.108      8.021
REMARK  Name = 
REMARK  8 active torsions:
REMARK  status: ('A' for Active; 'I' for Inactive)
REMARK    1  A    between atoms: C_1  and  C_2
REMARK    2  A    between atoms: C_2  and  N_3
REMARK    3  A    between atoms: C_4  and  C_5
REMARK    4  A    between atoms: N_7  and  C_8
REMARK    5  A    between atoms: C_16  and  S_17
REMARK    6  A    between atoms: S_17  and  N_20
REMARK    7  A    between atoms: N_20  and  C_21
REMARK    8  A    between atoms: N_20  and  C_22
REMARK                            x       y       z     vdW  Elec       q    Type
REMARK                         _______ _______ _______ _____ _____    ______ ____
ROOT
ATOM      1  N   UNL     1       1.184   8.709  19.878  0.00  0.00    +0.000 N 
ATOM      2  C   UNL     1       1.372   9.546  18.787  0.00  0.00    +0.000 A 
ATOM      3  C   UNL     1       2.223   8.867  17.926  0.00  0.00    +0.000 A 
ATOM      4  C   UNL     1       2.557   7.616  18.492  0.00  0.00    +0.000 A 
ATOM      5  C   UNL     1       3.388   6.563  18.068  0.00  0.00    +0.000 A 
ATOM      6  C   UNL     1       3.528   5.443  18.894  0.00  0.00    +0.000 A 
ATOM      7  C   UNL     1       2.821   5.336  20.092  0.00  0.00    +0.000 A 
ATOM      8  C   UNL     1       1.993   6.379  20.523  0.00  0.00    +0.000 A 
ATOM      9  C   UNL     1       1.885   7.521  19.708  0.00  0.00    +0.000 A 
ENDROOT
BRANCH   2  10
ATOM     10  C   UNL     1       0.830  10.889  18.621  0.00  0.00    +0.000 C 
ATOM     11  O   UNL     1      -0.359  11.130  18.442  0.00  0.00    +0.000 OA
ATOM     12  N   UNL     1       1.785  11.881  18.693  0.00  0.00    +0.000 N 
ATOM     13  H   UNL     1       2.749  11.600  18.588  0.00  0.00    +0.000 HD
BRANCH  12  14
ATOM     14  C   UNL     1       1.480  13.291  18.581  0.00  0.00    +0.000 C 
ATOM     15  C   UNL     1       1.161  13.904  19.941  0.00  0.00    +0.000 C 
ATOM     16  C   UNL     1       1.361  15.396  19.730  0.00  0.00    +0.000 C 
ATOM     17  C   UNL     1       2.451  15.519  18.670  0.00  0.00    +0.000 C 
ATOM     18  C   UNL     1       2.671  14.118  18.099  0.00  0.00    +0.000 C 
ENDBRANCH  12  14
ENDBRANCH   2  10
BRANCH   6  19
ATOM     19  S   UNL     1       4.588   4.109  18.368  0.00  0.00    +0.000 S 
ATOM     20  O   UNL     1       4.503   4.036  16.925  0.00  0.00    +0.000 OA
ATOM     21  O   UNL     1       5.864   4.276  19.033  0.00  0.00    +0.000 OA
BRANCH  19  22
ATOM     22  N   UNL     1       3.823   2.730  19.013  0.00  0.00    +0.000 NA
ATOM     23  C   UNL     1       3.215   1.792  18.055  0.00  0.00    +0.000 C 
ATOM     24  C   UNL     1       4.511   2.059  20.129  0.00  0.00    +0.000 C 
ENDBRANCH  19  22
ENDBRANCH   6  19
BRANCH   1  26
ATOM     25  C   UNL     1       1.224   9.318  22.271  0.00  0.00    +0.000 C 
ATOM     26  C   UNL     1       0.372   9.007  21.051  0.00  0.00    +0.000 C 
ENDBRANCH   1  26
TORSDOF 5
ENDMDL
MODEL 7
REMARK VINA RESULT:      -7.2      2.064      2.775
REMARK  Name = 
REMARK  8 active torsions:
REMARK  status: ('A' for Active; 'I' for Inactive)
REMARK    1  A    between atoms: C_1  and  C_2
REMARK    2  A    between atoms: C_2  and  N_3
REMARK    3  A    between atoms: C_4  and  C_5
REMARK    4  A    between atoms: N_7  and  C_8
REMARK    5  A    between atoms: C_16  and  S_17
REMARK    6  A    between atoms: S_17  and  N_20
REMARK    7  A    between atoms: N_20  and  C_21
REMARK    8  A    between atoms: N_20  and  C_22
REMARK                            x       y       z     vdW  Elec       q    Type
REMARK                         _______ _______ _______ _____ _____    ______ ____
ROOT
ATOM      1  N   UNL     1       4.011   4.547  18.681  0.00  0.00    +0.000 N 
ATOM      2  C   UNL     1       4.783   5.232  17.753  0.00  0.00    +0.000 A 
ATOM      3  C   UNL     1       4.397   6.562  17.843  0.00  0.00    +0.000 A 
ATOM      4  C   UNL     1       3.387   6.690  18.824  0.00  0.00    +0.000 A 
ATOM      5  C   UNL     1       2.636   7.784  19.291  0.00  0.00    +0.000 A 
ATOM      6  C   UNL     1       1.670   7.563  20.278  0.00  0.00    +0.000 A 
ATOM      7  C   UNL     1       1.482   6.298  20.835  0.00  0.00    +0.000 A 
ATOM      8  C   UNL     1       2.223   5.203  20.375  0.00  0.00    +0.000 A 
ATOM      9  C   UNL     1       3.166   5.421  19.354  0.00  0.00    +0.000 A 
ENDROOT
BRANCH   2  10
ATOM     10  C   UNL     1       5.753   4.651  16.834  0.00  0.00    +0.000 C 
ATOM     11  O   UNL     1       6.884   4.305  17.160  0.00  0.00    +0.000 OA
ATOM     12  N   UNL     1       5.279   4.514  15.546  0.00  0.00    +0.000 N 
ATOM     13  H   UNL     1       4.453   5.042  15.302  0.00  0.00    +0.000 HD
BRANCH  12  14
ATOM     14  C   UNL     1       6.054   3.940  14.468  0.00  0.00    +0.000 C 
ATOM     15  C   UNL     1       5.180   3.624  13.257  0.00  0.00    +0.000 C 
ATOM     16  C   UNL     1       6.167   3.520  12.107  0.00  0.00    +0.000 C 
ATOM     17  C   UNL     1       7.305   4.475  12.452  0.00  0.00    +0.000 C 
ATOM     18  C   UNL     1       7.092   4.908  13.903  0.00  0.00    +0.000 C 
ENDBRANCH  12  14
ENDBRANCH   2  10
BRANCH   6  19
ATOM     19  S   UNL     1       0.709   8.943  20.869  0.00  0.00    +0.000 S 
ATOM     20  O   UNL     1      -0.599   8.434  21.227  0.00  0.00    +0.000 OA
ATOM     21  O   UNL     1       1.519   9.661  21.831  0.00  0.00    +0.000 OA
BRANCH  19  22
ATOM     22  N   UNL     1       0.536   9.916  19.481  0.00  0.00    +0.000 NA
ATOM     23  C   UNL     1      -0.823  10.066  18.933  0.00  0.00    +0.000 C 
ATOM     24  C   UNL     1       1.314  11.166  19.454  0.00  0.00    +0.000 C 
ENDBRANCH  19  22
ENDBRANCH   6  19
BRANCH   1  26
ATOM     25  C   UNL     1       3.133   2.339  18.009  0.00  0.00    +0.000 C 
ATOM     26  C   UNL     1       4.058   3.112  18.935  0.00  0.00    +0.000 C 
ENDBRANCH   1  26
TORSDOF 5
ENDMDL
MODEL 8
REMARK VINA RESULT:      -7.2      2.936      8.281
REMARK  Name = 
REMARK  8 active torsions:
REMARK  status: ('A' for Active; 'I' for Inactive)
REMARK    1  A    between atoms: C_1  and  C_2
REMARK    2  A    between atoms: C_2  and  N_3
REMARK    3  A    between atoms: C_4  and  C_5
REMARK    4  A    between atoms: N_7  and  C_8
REMARK    5  A    between atoms: C_16  and  S_17
REMARK    6  A    between atoms: S_17  and  N_20
REMARK    7  A    between atoms: N_20  and  C_21
REMARK    8  A    between atoms: N_20  and  C_22
REMARK                            x       y       z     vdW  Elec       q    Type
REMARK                         _______ _______ _______ _____ _____    ______ ____
ROOT
ATOM      1  N   UNL     1       1.229   8.720  19.823  0.00  0.00    +0.000 N 
ATOM      2  C   UNL     1       1.057   9.837  19.017  0.00  0.00    +0.000 A 
ATOM      3  C   UNL     1       1.875   9.641  17.914  0.00  0.00    +0.000 A 
ATOM      4  C   UNL     1       2.549   8.406  18.046  0.00  0.00    +0.000 A 
ATOM      5  C   UNL     1       3.498   7.740  17.248  0.00  0.00    +0.000 A 
ATOM      6  C   UNL     1       4.000   6.511  17.686  0.00  0.00    +0.000 A 
ATOM      7  C   UNL     1       3.538   5.919  18.862  0.00  0.00    +0.000 A 
ATOM      8  C   UNL     1       2.595   6.574  19.663  0.00  0.00    +0.000 A 
ATOM      9  C   UNL     1       2.121   7.829  19.240  0.00  0.00    +0.000 A 
ENDROOT
BRANCH   2  10
ATOM     10  C   UNL     1       0.230  11.001  19.312  0.00  0.00    +0.000 C 
ATOM     11  O   UNL     1       0.642  12.008  19.878  0.00  0.00    +0.000 OA
ATOM     12  N   UNL     1      -1.075  10.872  18.885  0.00  0.00    +0.000 N 
ATOM     13  H   UNL     1      -1.396   9.940  18.664  0.00  0.00    +0.000 HD
BRANCH  12  14
ATOM     14  C   UNL     1      -2.072  11.907  19.046  0.00  0.00    +0.000 C 
ATOM     15  C   UNL     1      -3.426  11.470  18.495  0.00  0.00    +0.000 C 
ATOM     16  C   UNL     1      -4.418  12.406  19.166  0.00  0.00    +0.000 C 
ATOM     17  C   UNL     1      -3.813  12.739  20.527  0.00  0.00    +0.000 C 
ATOM     18  C   UNL     1      -2.377  12.215  20.510  0.00  0.00    +0.000 C 
ENDBRANCH  12  14
ENDBRANCH   2  10
BRANCH   6  19
ATOM     19  S   UNL     1       5.210   5.667  16.686  0.00  0.00    +0.000 S 
ATOM     20  O   UNL     1       4.829   4.271  16.637  0.00  0.00    +0.000 OA
ATOM     21  O   UNL     1       5.386   6.435  15.471  0.00  0.00    +0.000 OA
BRANCH  19  22
ATOM     22  N   UNL     1       6.635   5.794  17.611  0.00  0.00    +0.000 NA
ATOM     23  C   UNL     1       7.522   4.619  17.639  0.00  0.00    +0.000 C 
ATOM     24  C   UNL     1       7.362   7.071  17.525  0.00  0.00    +0.000 C 
ENDBRANCH  19  22
ENDBRANCH   6  19
BRANCH   1  26
ATOM     25  C   UNL     1       1.358   9.094  22.260  0.00  0.00    +0.000 C 
ATOM     26  C   UNL     1       0.577   8.487  21.106  0.00  0.00    +0.000 C 
ENDBRANCH   1  26
TORSDOF 5
ENDMDL
MODEL 9
REMARK VINA RESULT:      -7.2      3.180      8.090
REMARK  Name = 
REMARK  8 active torsions:
REMARK  status: ('A' for Active; 'I' for Inactive)
REMARK    1  A    between atoms: C_1  and  C_2
REMARK    2  A    between atoms: C_2  and  N_3
REMARK    3  A    between atoms: C_4  and  C_5
REMARK    4  A    between atoms: N_7  and  C_8
REMARK    5  A    between atoms: C_16  and  S_17
REMARK    6  A    between atoms: S_17  and  N_20
REMARK    7  A    between atoms: N_20  and  C_21
REMARK    8  A    between atoms: N_20  and  C_22
REMARK                            x       y       z     vdW  Elec       q    Type
REMARK                         _______ _______ _______ _____ _____    ______ ____
ROOT
ATOM      1  N   UNL     1       1.195   8.480  19.616  0.00  0.00    +0.000 N 
ATOM      2  C   UNL     1       1.064   9.355  18.546  0.00  0.00    +0.000 A 
ATOM      3  C   UNL     1       2.028   8.976  17.622  0.00  0.00    +0.000 A 
ATOM      4  C   UNL     1       2.750   7.871  18.128  0.00  0.00    +0.000 A 
ATOM      5  C   UNL     1       3.831   7.122  17.629  0.00  0.00    +0.000 A 
ATOM      6  C   UNL     1       4.343   6.081  18.410  0.00  0.00    +0.000 A 
ATOM      7  C   UNL     1       3.769   5.746  19.636  0.00  0.00    +0.000 A 
ATOM      8  C   UNL     1       2.694   6.487  20.141  0.00  0.00    +0.000 A 
ATOM      9  C   UNL     1       2.206   7.559  19.372  0.00  0.00    +0.000 A 
ENDROOT
BRANCH   2  10
ATOM     10  C   UNL     1       0.139  10.478  18.452  0.00  0.00    +0.000 C 
ATOM     11  O   UNL     1       0.339  11.574  18.963  0.00  0.00    +0.000 OA
ATOM     12  N   UNL     1      -0.995  10.198  17.718  0.00  0.00    +0.000 N 
ATOM     13  H   UNL     1      -1.205   9.224  17.550  0.00  0.00    +0.000 HD
BRANCH  12  14
ATOM     14  C   UNL     1      -2.042  11.164  17.469  0.00  0.00    +0.000 C 
ATOM     15  C   UNL     1      -2.879  10.781  16.251  0.00  0.00    +0.000 C 
ATOM     16  C   UNL     1      -4.167  11.568  16.426  0.00  0.00    +0.000 C 
ATOM     17  C   UNL     1      -4.369  11.697  17.933  0.00  0.00    +0.000 C 
ATOM     18  C   UNL     1      -3.074  11.225  18.594  0.00  0.00    +0.000 C 
ENDBRANCH  12  14
ENDBRANCH   2  10
BRANCH   6  19
ATOM     19  S   UNL     1       5.719   5.133  17.788  0.00  0.00    +0.000 S 
ATOM     20  O   UNL     1       6.633   6.064  17.158  0.00  0.00    +0.000 OA
ATOM     21  O   UNL     1       6.163   4.257  18.853  0.00  0.00    +0.000 OA
BRANCH  19  22
ATOM     22  N   UNL     1       5.012   4.179  16.567  0.00  0.00    +0.000 NA
ATOM     23  C   UNL     1       5.892   3.727  15.476  0.00  0.00    +0.000 C 
ATOM     24  C   UNL     1       4.058   3.148  17.009  0.00  0.00    +0.000 C 
ENDBRANCH  19  22
ENDBRANCH   6  19
BRANCH   1  26
ATOM     25  C   UNL     1       1.091   9.260  21.956  0.00  0.00    +0.000 C 
ATOM     26  C   UNL     1       0.398   8.502  20.836  0.00  0.00    +0.000 C 
ENDBRANCH   1  26
TORSDOF 5
ENDMDL
