MODEL 1
REMARK VINA RESULT:      -5.9      0.000      0.000
REMARK  Name = 
REMARK  7 active torsions:
REMARK  status: ('A' for Active; 'I' for Inactive)
REMARK    1  A    between atoms: C_1  and  C_2
REMARK    2  A    between atoms: C_4  and  O_5
REMARK    3  A    between atoms: C_13  and  N_14
REMARK    4  A    between atoms: N_14  and  C_15
REMARK    5  A    between atoms: C_15  and  C_16
REMARK    6  A    between atoms: C_19  and  C_20
REMARK    7  A    between atoms: C_24  and  C_25
REMARK                            x       y       z     vdW  Elec       q    Type
REMARK                         _______ _______ _______ _____ _____    ______ ____
ROOT
ATOM      1  C   UNL     1      -3.914  11.131  17.148  0.00  0.00    +0.000 C 
ATOM      2  C   UNL     1      -3.421  11.580  18.521  0.00  0.00    +0.000 C 
ATOM      3  C   UNL     1      -2.147  11.521  19.050  0.00  0.00    +0.000 C 
ATOM      4  C   UNL     1      -1.085  10.933  18.176  0.00  0.00    +0.000 C 
ATOM      5  C   UNL     1      -0.533  10.098  19.354  0.00  0.00    +0.000 C 
ATOM      6  C   UNL     1      -0.280  11.201  20.332  0.00  0.00    +0.000 C 
ATOM      7  C   UNL     1       0.733  12.260  19.812  0.00  0.00    +0.000 C 
ATOM      8  C   UNL     1       1.796  11.602  18.933  0.00  0.00    +0.000 C 
ATOM      9  C   UNL     1       2.150  12.683  17.958  0.00  0.00    +0.000 C 
ATOM     10  C   UNL     1       2.806  13.757  18.822  0.00  0.00    +0.000 C 
ATOM     11  C   UNL     1       3.532  14.563  17.825  0.00  0.00    +0.000 C 
ATOM     12  C   UNL     1       4.603  15.574  18.021  0.00  0.00    +0.000 C 
ATOM     13  C   UNL     1       4.112  16.304  19.298  0.00  0.00    +0.000 C 
ATOM     14  C   UNL     1       3.236  15.474  20.396  0.00  0.00    +0.000 C 
ATOM     15  C   UNL     1       2.033  14.541  19.861  0.00  0.00    +0.000 C 
ATOM     16  C   UNL     1       0.932  15.479  19.329  0.00  0.00    +0.000 C 
ATOM     17  C   UNL     1       1.351  13.331  20.781  0.00  0.00    +0.000 C 
ATOM     18  C   UNL     1       0.218  13.679  21.772  0.00  0.00    +0.000 C 
ATOM     19  C   UNL     1      -0.837  12.520  22.010  0.00  0.00    +0.000 C 
ATOM     20  C   UNL     1      -1.720  11.887  20.680  0.00  0.00    +0.000 C 
ATOM     21  C   UNL     1      -2.449  13.297  20.595  0.00  0.00    +0.000 C 
ENDROOT
BRANCH   4  22
ATOM     22  O   UNL     1      -1.324  10.117  17.083  0.00  0.00    +0.000 OA
ATOM     23  H   UNL     1      -1.767   9.311  17.427  0.00  0.00    +0.000 HD
ENDBRANCH   4  22
BRANCH  12  24
ATOM     24  N   UNL     1       5.945  14.882  17.916  0.00  0.00    +0.000 NA
ATOM     25  H   UNL     1       5.874  13.950  18.338  0.00  0.00    +0.000 HD
BRANCH  24  26
ATOM     26  C   UNL     1       7.085  15.583  18.627  0.00  0.00    +0.000 C 
ATOM     27  C   UNL     1       7.524  14.881  19.904  0.00  0.00    +0.000 C 
ENDBRANCH  24  26
ENDBRANCH  12  24
TORSDOF 3
ENDMDL
MODEL 2
REMARK VINA RESULT:      -5.8      5.111      8.243
REMARK  Name = 
REMARK  7 active torsions:
REMARK  status: ('A' for Active; 'I' for Inactive)
REMARK    1  A    between atoms: C_1  and  C_2
REMARK    2  A    between atoms: C_4  and  O_5
REMARK    3  A    between atoms: C_13  and  N_14
REMARK    4  A    between atoms: N_14  and  C_15
REMARK    5  A    between atoms: C_15  and  C_16
REMARK    6  A    between atoms: C_19  and  C_20
REMARK    7  A    between atoms: C_24  and  C_25
REMARK                            x       y       z     vdW  Elec       q    Type
REMARK                         _______ _______ _______ _____ _____    ______ ____
ROOT
ATOM      1  C   UNL     1       9.487  10.289  19.539  0.00  0.00    +0.000 C 
ATOM      2  C   UNL     1       9.453  11.555  20.393  0.00  0.00    +0.000 C 
ATOM      3  C   UNL     1       9.135  12.845  20.022  0.00  0.00    +0.000 C 
ATOM      4  C   UNL     1       8.774  13.062  18.587  0.00  0.00    +0.000 C 
ATOM      5  C   UNL     1       9.661  14.327  18.520  0.00  0.00    +0.000 C 
ATOM      6  C   UNL     1       9.057  15.101  19.649  0.00  0.00    +0.000 C 
ATOM      7  C   UNL     1       7.547  15.408  19.443  0.00  0.00    +0.000 C 
ATOM      8  C   UNL     1       7.239  15.626  17.962  0.00  0.00    +0.000 C 
ATOM      9  C   UNL     1       5.827  15.141  17.831  0.00  0.00    +0.000 C 
ATOM     10  C   UNL     1       5.020  16.132  18.664  0.00  0.00    +0.000 C 
ATOM     11  C   UNL     1       3.651  15.921  18.163  0.00  0.00    +0.000 C 
ATOM     12  C   UNL     1       2.438  16.763  18.336  0.00  0.00    +0.000 C 
ATOM     13  C   UNL     1       2.588  17.227  19.808  0.00  0.00    +0.000 C 
ATOM     14  C   UNL     1       4.085  17.400  20.434  0.00  0.00    +0.000 C 
ATOM     15  C   UNL     1       5.160  16.226  20.169  0.00  0.00    +0.000 C 
ATOM     16  C   UNL     1       4.697  14.996  20.975  0.00  0.00    +0.000 C 
ATOM     17  C   UNL     1       6.800  16.444  20.358  0.00  0.00    +0.000 C 
ATOM     18  C   UNL     1       7.431  16.273  21.758  0.00  0.00    +0.000 C 
ATOM     19  C   UNL     1       8.928  15.750  21.753  0.00  0.00    +0.000 C 
ATOM     20  C   UNL     1       9.301  14.245  21.017  0.00  0.00    +0.000 C 
ATOM     21  C   UNL     1       8.473  13.557  22.188  0.00  0.00    +0.000 C 
ENDROOT
BRANCH   4  22
ATOM     22  O   UNL     1       9.096  12.199  17.553  0.00  0.00    +0.000 OA
ATOM     23  H   UNL     1       9.594  11.453  17.956  0.00  0.00    +0.000 HD
ENDBRANCH   4  22
BRANCH  12  24
ATOM     24  N   UNL     1       2.340  17.716  17.163  0.00  0.00    +0.000 NA
ATOM     25  H   UNL     1       2.993  18.493  17.309  0.00  0.00    +0.000 HD
BRANCH  24  26
ATOM     26  C   UNL     1       0.975  18.341  16.958  0.00  0.00    +0.000 C 
ATOM     27  C   UNL     1      -0.155  17.542  17.588  0.00  0.00    +0.000 C 
ENDBRANCH  24  26
ENDBRANCH  12  24
TORSDOF 3
ENDMDL
MODEL 3
REMARK VINA RESULT:      -5.7      3.806      6.509
REMARK  Name = 
REMARK  7 active torsions:
REMARK  status: ('A' for Active; 'I' for Inactive)
REMARK    1  A    between atoms: C_1  and  C_2
REMARK    2  A    between atoms: C_4  and  O_5
REMARK    3  A    between atoms: C_13  and  N_14
REMARK    4  A    between atoms: N_14  and  C_15
REMARK    5  A    between atoms: C_15  and  C_16
REMARK    6  A    between atoms: C_19  and  C_20
REMARK    7  A    between atoms: C_24  and  C_25
REMARK                            x       y       z     vdW  Elec       q    Type
REMARK                         _______ _______ _______ _____ _____    ______ ____
ROOT
ATOM      1  C   UNL     1      -4.306  12.922  21.149  0.00  0.00    +0.000 C 
ATOM      2  C   UNL     1      -3.023  13.222  20.377  0.00  0.00    +0.000 C 
ATOM      3  C   UNL     1      -1.744  12.754  20.602  0.00  0.00    +0.000 C 
ATOM      4  C   UNL     1      -1.563  11.826  21.761  0.00  0.00    +0.000 C 
ATOM      5  C   UNL     1      -0.290  12.581  22.208  0.00  0.00    +0.000 C 
ATOM      6  C   UNL     1       0.502  12.486  20.942  0.00  0.00    +0.000 C 
ATOM      7  C   UNL     1       0.787  11.020  20.508  0.00  0.00    +0.000 C 
ATOM      8  C   UNL     1       0.970  10.122  21.730  0.00  0.00    +0.000 C 
ATOM      9  C   UNL     1       0.467   8.793  21.256  0.00  0.00    +0.000 C 
ATOM     10  C   UNL     1       1.467   8.385  20.178  0.00  0.00    +0.000 C 
ATOM     11  C   UNL     1       1.230   6.935  20.062  0.00  0.00    +0.000 C 
ATOM     12  C   UNL     1       2.062   5.888  19.414  0.00  0.00    +0.000 C 
ATOM     13  C   UNL     1       2.559   6.626  18.144  0.00  0.00    +0.000 C 
ATOM     14  C   UNL     1       2.761   8.244  18.199  0.00  0.00    +0.000 C 
ATOM     15  C   UNL     1       1.594   9.135  18.868  0.00  0.00    +0.000 C 
ATOM     16  C   UNL     1       0.376   9.071  17.925  0.00  0.00    +0.000 C 
ATOM     17  C   UNL     1       1.834  10.701  19.381  0.00  0.00    +0.000 C 
ATOM     18  C   UNL     1       1.701  11.859  18.367  0.00  0.00    +0.000 C 
ATOM     19  C   UNL     1       1.195  13.228  18.985  0.00  0.00    +0.000 C 
ATOM     20  C   UNL     1      -0.322  13.292  19.786  0.00  0.00    +0.000 C 
ATOM     21  C   UNL     1      -0.994  13.037  18.368  0.00  0.00    +0.000 C 
ENDROOT
BRANCH   4  22
ATOM     22  O   UNL     1      -2.445  11.707  22.822  0.00  0.00    +0.000 OA
ATOM     23  H   UNL     1      -3.331  11.540  22.432  0.00  0.00    +0.000 HD
ENDBRANCH   4  22
BRANCH  12  24
ATOM     24  N   UNL     1       2.988   5.294  20.455  0.00  0.00    +0.000 NA
ATOM     25  H   UNL     1       3.757   4.811  19.980  0.00  0.00    +0.000 HD
BRANCH  24  26
ATOM     26  C   UNL     1       2.348   4.272  21.373  0.00  0.00    +0.000 C 
ATOM     27  C   UNL     1       1.398   3.326  20.654  0.00  0.00    +0.000 C 
ENDBRANCH  24  26
ENDBRANCH  12  24
TORSDOF 3
ENDMDL
MODEL 4
REMARK VINA RESULT:      -5.5      3.815      6.100
REMARK  Name = 
REMARK  7 active torsions:
REMARK  status: ('A' for Active; 'I' for Inactive)
REMARK    1  A    between atoms: C_1  and  C_2
REMARK    2  A    between atoms: C_4  and  O_5
REMARK    3  A    between atoms: C_13  and  N_14
REMARK    4  A    between atoms: N_14  and  C_15
REMARK    5  A    between atoms: C_15  and  C_16
REMARK    6  A    between atoms: C_19  and  C_20
REMARK    7  A    between atoms: C_24  and  C_25
REMARK                            x       y       z     vdW  Elec       q    Type
REMARK                         _______ _______ _______ _____ _____    ______ ____
ROOT
ATOM      1  C   UNL     1      -4.509  12.621  21.691  0.00  0.00    +0.000 C 
ATOM      2  C   UNL     1      -3.342  13.056  20.808  0.00  0.00    +0.000 C 
ATOM      3  C   UNL     1      -2.008  12.714  20.899  0.00  0.00    +0.000 C 
ATOM      4  C   UNL     1      -1.626  11.793  22.015  0.00  0.00    +0.000 C 
ATOM      5  C   UNL     1      -0.396  12.664  22.357  0.00  0.00    +0.000 C 
ATOM      6  C   UNL     1       0.276  12.664  21.020  0.00  0.00    +0.000 C 
ATOM      7  C   UNL     1       0.659  11.239  20.528  0.00  0.00    +0.000 C 
ATOM      8  C   UNL     1       1.045  10.348  21.707  0.00  0.00    +0.000 C 
ATOM      9  C   UNL     1       0.629   8.981  21.253  0.00  0.00    +0.000 C 
ATOM     10  C   UNL     1       1.555   8.688  20.076  0.00  0.00    +0.000 C 
ATOM     11  C   UNL     1       1.450   7.223  19.952  0.00  0.00    +0.000 C 
ATOM     12  C   UNL     1       2.313   6.272  19.204  0.00  0.00    +0.000 C 
ATOM     13  C   UNL     1       2.612   7.071  17.910  0.00  0.00    +0.000 C 
ATOM     14  C   UNL     1       2.660   8.700  17.981  0.00  0.00    +0.000 C 
ATOM     15  C   UNL     1       1.482   9.463  18.778  0.00  0.00    +0.000 C 
ATOM     16  C   UNL     1       0.191   9.292  17.953  0.00  0.00    +0.000 C 
ATOM     17  C   UNL     1       1.618  11.039  19.299  0.00  0.00    +0.000 C 
ATOM     18  C   UNL     1       1.276  12.191  18.329  0.00  0.00    +0.000 C 
ATOM     19  C   UNL     1       0.701  13.496  19.022  0.00  0.00    +0.000 C 
ATOM     20  C   UNL     1      -0.730  13.399  19.965  0.00  0.00    +0.000 C 
ATOM     21  C   UNL     1      -1.507  13.098  18.611  0.00  0.00    +0.000 C 
ENDROOT
BRANCH   4  22
ATOM     22  O   UNL     1      -2.386  11.574  23.152  0.00  0.00    +0.000 OA
ATOM     23  H   UNL     1      -2.269  12.365  23.724  0.00  0.00    +0.000 HD
ENDBRANCH   4  22
BRANCH  12  24
ATOM     24  N   UNL     1       3.389   5.759  20.139  0.00  0.00    +0.000 NA
ATOM     25  H   UNL     1       3.723   6.534  20.720  0.00  0.00    +0.000 HD
BRANCH  24  26
ATOM     26  C   UNL     1       4.612   5.185  19.454  0.00  0.00    +0.000 C 
ATOM     27  C   UNL     1       4.499   3.695  19.166  0.00  0.00    +0.000 C 
ENDBRANCH  24  26
ENDBRANCH  12  24
TORSDOF 3
ENDMDL
MODEL 5
REMARK VINA RESULT:      -5.5      2.962      4.815
REMARK  Name = 
REMARK  7 active torsions:
REMARK  status: ('A' for Active; 'I' for Inactive)
REMARK    1  A    between atoms: C_1  and  C_2
REMARK    2  A    between atoms: C_4  and  O_5
REMARK    3  A    between atoms: C_13  and  N_14
REMARK    4  A    between atoms: N_14  and  C_15
REMARK    5  A    between atoms: C_15  and  C_16
REMARK    6  A    between atoms: C_19  and  C_20
REMARK    7  A    between atoms: C_24  and  C_25
REMARK                            x       y       z     vdW  Elec       q    Type
REMARK                         _______ _______ _______ _____ _____    ______ ____
ROOT
ATOM      1  C   UNL     1      -6.963  14.545  22.163  0.00  0.00    +0.000 C 
ATOM      2  C   UNL     1      -5.679  15.015  22.842  0.00  0.00    +0.000 C 
ATOM      3  C   UNL     1      -4.470  14.360  22.964  0.00  0.00    +0.000 C 
ATOM      4  C   UNL     1      -4.382  12.995  22.359  0.00  0.00    +0.000 C 
ATOM      5  C   UNL     1      -3.668  12.448  23.616  0.00  0.00    +0.000 C 
ATOM      6  C   UNL     1      -2.516  13.402  23.671  0.00  0.00    +0.000 C 
ATOM      7  C   UNL     1      -1.624  13.358  22.398  0.00  0.00    +0.000 C 
ATOM      8  C   UNL     1      -1.566  11.941  21.830  0.00  0.00    +0.000 C 
ATOM      9  C   UNL     1      -1.400  12.169  20.358  0.00  0.00    +0.000 C 
ATOM     10  C   UNL     1      -0.022  12.815  20.240  0.00  0.00    +0.000 C 
ATOM     11  C   UNL     1       0.299  12.611  18.817  0.00  0.00    +0.000 C 
ATOM     12  C   UNL     1       1.602  12.735  18.113  0.00  0.00    +0.000 C 
ATOM     13  C   UNL     1       2.213  13.981  18.803  0.00  0.00    +0.000 C 
ATOM     14  C   UNL     1       1.824  14.295  20.356  0.00  0.00    +0.000 C 
ATOM     15  C   UNL     1       0.272  14.196  20.787  0.00  0.00    +0.000 C 
ATOM     16  C   UNL     1      -0.463  15.370  20.109  0.00  0.00    +0.000 C 
ATOM     17  C   UNL     1      -0.218  14.060  22.373  0.00  0.00    +0.000 C 
ATOM     18  C   UNL     1      -0.390  15.337  23.225  0.00  0.00    +0.000 C 
ATOM     19  C   UNL     1      -1.506  15.241  24.347  0.00  0.00    +0.000 C 
ATOM     20  C   UNL     1      -3.129  14.896  23.908  0.00  0.00    +0.000 C 
ATOM     21  C   UNL     1      -3.160  16.324  23.209  0.00  0.00    +0.000 C 
ENDROOT
BRANCH   4  22
ATOM     22  O   UNL     1      -5.471  12.199  22.045  0.00  0.00    +0.000 OA
ATOM     23  H   UNL     1      -5.291  11.815  21.158  0.00  0.00    +0.000 HD
ENDBRANCH   4  22
BRANCH  12  24
ATOM     24  N   UNL     1       2.271  11.376  18.093  0.00  0.00    +0.000 NA
ATOM     25  H   UNL     1       2.768  11.261  17.204  0.00  0.00    +0.000 HD
BRANCH  24  26
ATOM     26  C   UNL     1       1.327  10.196  18.206  0.00  0.00    +0.000 C 
ATOM     27  C   UNL     1       1.966   8.872  17.813  0.00  0.00    +0.000 C 
ENDBRANCH  24  26
ENDBRANCH  12  24
TORSDOF 3
ENDMDL
MODEL 6
REMARK VINA RESULT:      -5.5      4.517      6.799
REMARK  Name = 
REMARK  7 active torsions:
REMARK  status: ('A' for Active; 'I' for Inactive)
REMARK    1  A    between atoms: C_1  and  C_2
REMARK    2  A    between atoms: C_4  and  O_5
REMARK    3  A    between atoms: C_13  and  N_14
REMARK    4  A    between atoms: N_14  and  C_15
REMARK    5  A    between atoms: C_15  and  C_16
REMARK    6  A    between atoms: C_19  and  C_20
REMARK    7  A    between atoms: C_24  and  C_25
REMARK                            x       y       z     vdW  Elec       q    Type
REMARK                         _______ _______ _______ _____ _____    ______ ____
ROOT
ATOM      1  C   UNL     1      -7.752  15.202  15.918  0.00  0.00    +0.000 C 
ATOM      2  C   UNL     1      -7.916  15.316  17.432  0.00  0.00    +0.000 C 
ATOM      3  C   UNL     1      -7.446  14.478  18.422  0.00  0.00    +0.000 C 
ATOM      4  C   UNL     1      -6.671  13.279  17.975  0.00  0.00    +0.000 C 
ATOM      5  C   UNL     1      -7.442  12.371  18.960  0.00  0.00    +0.000 C 
ATOM      6  C   UNL     1      -7.163  13.108  20.233  0.00  0.00    +0.000 C 
ATOM      7  C   UNL     1      -5.647  13.209  20.562  0.00  0.00    +0.000 C 
ATOM      8  C   UNL     1      -4.909  11.957  20.090  0.00  0.00    +0.000 C 
ATOM      9  C   UNL     1      -3.544  12.473  19.750  0.00  0.00    +0.000 C 
ATOM     10  C   UNL     1      -2.974  12.916  21.094  0.00  0.00    +0.000 C 
ATOM     11  C   UNL     1      -1.528  12.980  20.817  0.00  0.00    +0.000 C 
ATOM     12  C   UNL     1      -0.384  13.058  21.762  0.00  0.00    +0.000 C 
ATOM     13  C   UNL     1      -0.939  14.020  22.845  0.00  0.00    +0.000 C 
ATOM     14  C   UNL     1      -2.544  14.042  23.134  0.00  0.00    +0.000 C 
ATOM     15  C   UNL     1      -3.545  14.085  21.869  0.00  0.00    +0.000 C 
ATOM     16  C   UNL     1      -3.394  15.474  21.217  0.00  0.00    +0.000 C 
ATOM     17  C   UNL     1      -5.157  13.682  21.978  0.00  0.00    +0.000 C 
ATOM     18  C   UNL     1      -6.178  14.754  22.420  0.00  0.00    +0.000 C 
ATOM     19  C   UNL     1      -7.629  14.584  21.804  0.00  0.00    +0.000 C 
ATOM     20  C   UNL     1      -7.836  14.589  20.099  0.00  0.00    +0.000 C 
ATOM     21  C   UNL     1      -7.419  16.123  20.133  0.00  0.00    +0.000 C 
ENDROOT
BRANCH   4  22
ATOM     22  O   UNL     1      -6.712  12.743  16.700  0.00  0.00    +0.000 OA
ATOM     23  H   UNL     1      -6.975  11.801  16.800  0.00  0.00    +0.000 HD
ENDBRANCH   4  22
BRANCH  12  24
ATOM     24  N   UNL     1       0.096  11.652  22.057  0.00  0.00    +0.000 NA
ATOM     25  H   UNL     1       0.201  11.144  21.173  0.00  0.00    +0.000 HD
BRANCH  24  26
ATOM     26  C   UNL     1      -0.839  10.824  22.914  0.00  0.00    +0.000 C 
ATOM     27  C   UNL     1      -0.425   9.364  23.021  0.00  0.00    +0.000 C 
ENDBRANCH  24  26
ENDBRANCH  12  24
TORSDOF 3
ENDMDL
MODEL 7
REMARK VINA RESULT:      -5.4      3.532      7.685
REMARK  Name = 
REMARK  7 active torsions:
REMARK  status: ('A' for Active; 'I' for Inactive)
REMARK    1  A    between atoms: C_1  and  C_2
REMARK    2  A    between atoms: C_4  and  O_5
REMARK    3  A    between atoms: C_13  and  N_14
REMARK    4  A    between atoms: N_14  and  C_15
REMARK    5  A    between atoms: C_15  and  C_16
REMARK    6  A    between atoms: C_19  and  C_20
REMARK    7  A    between atoms: C_24  and  C_25
REMARK                            x       y       z     vdW  Elec       q    Type
REMARK                         _______ _______ _______ _____ _____    ______ ____
ROOT
ATOM      1  C   UNL     1       9.627  11.801  18.550  0.00  0.00    +0.000 C 
ATOM      2  C   UNL     1       9.262  12.997  19.425  0.00  0.00    +0.000 C 
ATOM      3  C   UNL     1       8.307  13.971  19.211  0.00  0.00    +0.000 C 
ATOM      4  C   UNL     1       7.510  13.864  17.950  0.00  0.00    +0.000 C 
ATOM      5  C   UNL     1       7.673  15.377  17.679  0.00  0.00    +0.000 C 
ATOM      6  C   UNL     1       7.121  15.911  18.963  0.00  0.00    +0.000 C 
ATOM      7  C   UNL     1       5.643  15.496  19.213  0.00  0.00    +0.000 C 
ATOM      8  C   UNL     1       4.877  15.410  17.894  0.00  0.00    +0.000 C 
ATOM      9  C   UNL     1       3.862  14.340  18.157  0.00  0.00    +0.000 C 
ATOM     10  C   UNL     1       2.957  14.948  19.225  0.00  0.00    +0.000 C 
ATOM     11  C   UNL     1       1.752  14.105  19.133  0.00  0.00    +0.000 C 
ATOM     12  C   UNL     1       0.390  14.336  19.681  0.00  0.00    +0.000 C 
ATOM     13  C   UNL     1       0.711  14.960  21.063  0.00  0.00    +0.000 C 
ATOM     14  C   UNL     1       2.076  15.837  21.236  0.00  0.00    +0.000 C 
ATOM     15  C   UNL     1       3.446  15.240  20.628  0.00  0.00    +0.000 C 
ATOM     16  C   UNL     1       3.830  14.018  21.486  0.00  0.00    +0.000 C 
ATOM     17  C   UNL     1       4.792  16.179  20.344  0.00  0.00    +0.000 C 
ATOM     18  C   UNL     1       5.789  16.443  21.494  0.00  0.00    +0.000 C 
ATOM     19  C   UNL     1       7.294  16.638  21.038  0.00  0.00    +0.000 C 
ATOM     20  C   UNL     1       8.090  15.389  20.168  0.00  0.00    +0.000 C 
ATOM     21  C   UNL     1       8.018  14.525  21.501  0.00  0.00    +0.000 C 
ENDROOT
BRANCH   4  22
ATOM     22  O   UNL     1       7.889  13.136  16.835  0.00  0.00    +0.000 OA
ATOM     23  H   UNL     1       8.619  12.543  17.123  0.00  0.00    +0.000 HD
ENDBRANCH   4  22
BRANCH  12  24
ATOM     24  N   UNL     1      -0.445  15.027  18.623  0.00  0.00    +0.000 NA
ATOM     25  H   UNL     1       0.023  14.936  17.716  0.00  0.00    +0.000 HD
BRANCH  24  26
ATOM     26  C   UNL     1      -0.657  16.511  18.844  0.00  0.00    +0.000 C 
ATOM     27  C   UNL     1       0.334  17.382  18.085  0.00  0.00    +0.000 C 
ENDBRANCH  24  26
ENDBRANCH  12  24
TORSDOF 3
ENDMDL
MODEL 8
REMARK VINA RESULT:      -5.4      1.443      1.635
REMARK  Name = 
REMARK  7 active torsions:
REMARK  status: ('A' for Active; 'I' for Inactive)
REMARK    1  A    between atoms: C_1  and  C_2
REMARK    2  A    between atoms: C_4  and  O_5
REMARK    3  A    between atoms: C_13  and  N_14
REMARK    4  A    between atoms: N_14  and  C_15
REMARK    5  A    between atoms: C_15  and  C_16
REMARK    6  A    between atoms: C_19  and  C_20
REMARK    7  A    between atoms: C_24  and  C_25
REMARK                            x       y       z     vdW  Elec       q    Type
REMARK                         _______ _______ _______ _____ _____    ______ ____
ROOT
ATOM      1  C   UNL     1      -2.770   9.684  16.697  0.00  0.00    +0.000 C 
ATOM      2  C   UNL     1      -2.803  10.423  18.033  0.00  0.00    +0.000 C 
ATOM      3  C   UNL     1      -1.751  10.900  18.788  0.00  0.00    +0.000 C 
ATOM      4  C   UNL     1      -0.376  10.668  18.246  0.00  0.00    +0.000 C 
ATOM      5  C   UNL     1       0.133  10.224  19.637  0.00  0.00    +0.000 C 
ATOM      6  C   UNL     1      -0.249  11.435  20.429  0.00  0.00    +0.000 C 
ATOM      7  C   UNL     1       0.431  12.738  19.921  0.00  0.00    +0.000 C 
ATOM      8  C   UNL     1       1.832  12.442  19.387  0.00  0.00    +0.000 C 
ATOM      9  C   UNL     1       2.013  13.472  18.314  0.00  0.00    +0.000 C 
ATOM     10  C   UNL     1       2.035  14.794  19.075  0.00  0.00    +0.000 C 
ATOM     11  C   UNL     1       2.654  15.708  18.099  0.00  0.00    +0.000 C 
ATOM     12  C   UNL     1       3.233  17.062  18.303  0.00  0.00    +0.000 C 
ATOM     13  C   UNL     1       2.232  17.680  19.313  0.00  0.00    +0.000 C 
ATOM     14  C   UNL     1       1.461  16.698  20.363  0.00  0.00    +0.000 C 
ATOM     15  C   UNL     1       0.816  15.332  19.795  0.00  0.00    +0.000 C 
ATOM     16  C   UNL     1      -0.380  15.730  18.907  0.00  0.00    +0.000 C 
ATOM     17  C   UNL     1       0.394  14.055  20.777  0.00  0.00    +0.000 C 
ATOM     18  C   UNL     1      -0.990  14.052  21.462  0.00  0.00    +0.000 C 
ATOM     19  C   UNL     1      -1.607  12.612  21.708  0.00  0.00    +0.000 C 
ATOM     20  C   UNL     1      -1.876  11.562  20.376  0.00  0.00    +0.000 C 
ATOM     21  C   UNL     1      -3.003  12.579  19.904  0.00  0.00    +0.000 C 
ENDROOT
BRANCH   4  22
ATOM     22  O   UNL     1      -0.053   9.716  17.294  0.00  0.00    +0.000 OA
ATOM     23  H   UNL     1       0.097   8.874  17.779  0.00  0.00    +0.000 HD
ENDBRANCH   4  22
BRANCH  12  24
ATOM     24  N   UNL     1       4.716  16.917  18.574  0.00  0.00    +0.000 NA
ATOM     25  H   UNL     1       5.041  16.028  18.182  0.00  0.00    +0.000 HD
BRANCH  24  26
ATOM     26  C   UNL     1       5.099  16.899  20.040  0.00  0.00    +0.000 C 
ATOM     27  C   UNL     1       5.778  18.180  20.501  0.00  0.00    +0.000 C 
ENDBRANCH  24  26
ENDBRANCH  12  24
TORSDOF 3
ENDMDL
MODEL 9
REMARK VINA RESULT:      -5.4      2.860      7.089
REMARK  Name = 
REMARK  7 active torsions:
REMARK  status: ('A' for Active; 'I' for Inactive)
REMARK    1  A    between atoms: C_1  and  C_2
REMARK    2  A    between atoms: C_4  and  O_5
REMARK    3  A    between atoms: C_13  and  N_14
REMARK    4  A    between atoms: N_14  and  C_15
REMARK    5  A    between atoms: C_15  and  C_16
REMARK    6  A    between atoms: C_19  and  C_20
REMARK    7  A    between atoms: C_24  and  C_25
REMARK                            x       y       z     vdW  Elec       q    Type
REMARK                         _______ _______ _______ _____ _____    ______ ____
ROOT
ATOM      1  C   UNL     1       6.821  15.920  21.655  0.00  0.00    +0.000 C 
ATOM      2  C   UNL     1       5.445  16.555  21.470  0.00  0.00    +0.000 C 
ATOM      3  C   UNL     1       4.506  16.324  20.486  0.00  0.00    +0.000 C 
ATOM      4  C   UNL     1       4.865  15.318  19.438  0.00  0.00    +0.000 C 
ATOM      5  C   UNL     1       4.345  16.249  18.319  0.00  0.00    +0.000 C 
ATOM      6  C   UNL     1       2.949  16.462  18.815  0.00  0.00    +0.000 C 
ATOM      7  C   UNL     1       2.135  15.143  18.934  0.00  0.00    +0.000 C 
ATOM      8  C   UNL     1       2.538  14.159  17.837  0.00  0.00    +0.000 C 
ATOM      9  C   UNL     1       2.329  12.823  18.482  0.00  0.00    +0.000 C 
ATOM     10  C   UNL     1       0.819  12.750  18.692  0.00  0.00    +0.000 C 
ATOM     11  C   UNL     1       0.599  11.306  18.886  0.00  0.00    +0.000 C 
ATOM     12  C   UNL     1      -0.666  10.527  18.846  0.00  0.00    +0.000 C 
ATOM     13  C   UNL     1      -1.651  11.493  19.552  0.00  0.00    +0.000 C 
ATOM     14  C   UNL     1      -1.404  13.101  19.432  0.00  0.00    +0.000 C 
ATOM     15  C   UNL     1       0.093  13.660  19.660  0.00  0.00    +0.000 C 
ATOM     16  C   UNL     1       0.426  13.472  21.153  0.00  0.00    +0.000 C 
ATOM     17  C   UNL     1       0.579  15.171  19.156  0.00  0.00    +0.000 C 
ATOM     18  C   UNL     1       0.324  16.392  20.067  0.00  0.00    +0.000 C 
ATOM     19  C   UNL     1       1.397  17.553  19.939  0.00  0.00    +0.000 C 
ATOM     20  C   UNL     1       3.051  17.222  20.256  0.00  0.00    +0.000 C 
ATOM     21  C   UNL     1       2.636  17.011  21.776  0.00  0.00    +0.000 C 
ENDROOT
BRANCH   4  22
ATOM     22  O   UNL     1       6.155  14.903  19.152  0.00  0.00    +0.000 OA
ATOM     23  H   UNL     1       6.756  15.603  19.490  0.00  0.00    +0.000 HD
ENDBRANCH   4  22
BRANCH  12  24
ATOM     24  N   UNL     1      -0.868  10.007  17.438  0.00  0.00    +0.000 NA
ATOM     25  H   UNL     1      -0.459  10.673  16.774  0.00  0.00    +0.000 HD
BRANCH  24  26
ATOM     26  C   UNL     1      -2.314   9.828  17.022  0.00  0.00    +0.000 C 
ATOM     27  C   UNL     1      -2.660  10.538  15.722  0.00  0.00    +0.000 C 
ENDBRANCH  24  26
ENDBRANCH  12  24
TORSDOF 3
ENDMDL
