MODEL 1
REMARK VINA RESULT:      -9.4      0.000      0.000
REMARK  Name = 
REMARK  7 active torsions:
REMARK  status: ('A' for Active; 'I' for Inactive)
REMARK    1  A    between atoms: C_1  and  O_2
REMARK    2  A    between atoms: O_2  and  C_3
REMARK    3  A    between atoms: C_5  and  C_6
REMARK    4  A    between atoms: N_7  and  N_8
REMARK    5  A    between atoms: C_9  and  C_11
REMARK    6  A    between atoms: C_13  and  C_14
REMARK    7  A    between atoms: C_28  and  O_29
REMARK                            x       y       z     vdW  Elec       q    Type
REMARK                         _______ _______ _______ _____ _____    ______ ____
ROOT
ATOM      1  N   UNL     1       7.547   8.127  18.258  0.00  0.00    +0.000 N 
ATOM      2  C   UNL     1       7.408   7.016  17.412  0.00  0.00    +0.000 C 
ATOM      3  O   UNL     1       7.909   6.936  16.296  0.00  0.00    +0.000 OA
ATOM      4  H   UNL     1       7.178   8.083  19.203  0.00  0.00    +0.000 HD
ENDROOT
BRANCH   2   5
ATOM      5  C   UNL     1       6.617   5.901  17.987  0.00  0.00    +0.000 A 
ATOM      6  C   UNL     1       5.221   5.898  18.294  0.00  0.00    +0.000 A 
ATOM      7  C   UNL     1       4.921   4.624  18.752  0.00  0.00    +0.000 A 
ATOM      8  N   UNL     1       6.117   3.964  18.713  0.00  0.00    +0.000 N 
ATOM      9  N   UNL     1       7.156   4.699  18.273  0.00  0.00    +0.000 NA
ATOM     10  H   UNL     1       6.304   2.994  18.959  0.00  0.00    +0.000 HD
BRANCH   7  11
ATOM     11  C   UNL     1       3.602   4.017  19.190  0.00  0.00    +0.000 C 
ATOM     12  C   UNL     1       3.151   4.658  20.533  0.00  0.00    +0.000 C 
ATOM     13  C   UNL     1       1.857   4.006  21.049  0.00  0.00    +0.000 C 
ATOM     14  C   UNL     1       0.739   4.206  20.015  0.00  0.00    +0.000 C 
ATOM     15  C   UNL     1       1.143   3.565  18.677  0.00  0.00    +0.000 C 
ATOM     16  C   UNL     1       1.372   2.060  18.894  0.00  0.00    +0.000 C 
ATOM     17  C   UNL     1       2.493   1.844  19.920  0.00  0.00    +0.000 C 
ATOM     18  C   UNL     1       2.099   2.500  21.253  0.00  0.00    +0.000 C 
ATOM     19  C   UNL     1       3.786   2.491  19.403  0.00  0.00    +0.000 C 
ATOM     20  C   UNL     1       2.446   4.216  18.168  0.00  0.00    +0.000 C 
ENDBRANCH   7  11
ENDBRANCH   2   5
BRANCH   1  22
ATOM     21  C   UNL     1       8.697  10.075  18.659  0.00  0.00    +0.000 C 
ATOM     22  N   UNL     1       8.263   9.212  17.811  0.00  0.00    +0.000 NA
BRANCH  21  25
ATOM     23  C   UNL     1       9.680  13.634  17.662  0.00  0.00    +0.000 A 
ATOM     24  C   UNL     1       8.920  12.535  18.116  0.00  0.00    +0.000 A 
ATOM     25  C   UNL     1       9.485  11.251  18.193  0.00  0.00    +0.000 A 
ATOM     26  C   UNL     1      10.817  11.063  17.820  0.00  0.00    +0.000 A 
ATOM     27  C   UNL     1      11.578  12.144  17.367  0.00  0.00    +0.000 A 
ATOM     28  C   UNL     1      11.011  13.421  17.286  0.00  0.00    +0.000 A 
BRANCH  23  30
ATOM     29  C   UNL     1       7.612  14.791  18.006  0.00  0.00    +0.000 C 
ATOM     30  O   UNL     1       8.988  14.820  17.646  0.00  0.00    +0.000 OA
ENDBRANCH  23  30
BRANCH  28  31
ATOM     31  O   UNL     1      11.802  14.438  16.828  0.00  0.00    +0.000 OA
ATOM     32  H   UNL     1      12.320  14.805  17.562  0.00  0.00    +0.000 HD
ENDBRANCH  28  31
ENDBRANCH  21  25
ENDBRANCH   1  22
TORSDOF 6
ENDMDL
MODEL 2
REMARK VINA RESULT:      -9.4      0.382      1.445
REMARK  Name = 
REMARK  7 active torsions:
REMARK  status: ('A' for Active; 'I' for Inactive)
REMARK    1  A    between atoms: C_1  and  O_2
REMARK    2  A    between atoms: O_2  and  C_3
REMARK    3  A    between atoms: C_5  and  C_6
REMARK    4  A    between atoms: N_7  and  N_8
REMARK    5  A    between atoms: C_9  and  C_11
REMARK    6  A    between atoms: C_13  and  C_14
REMARK    7  A    between atoms: C_28  and  O_29
REMARK                            x       y       z     vdW  Elec       q    Type
REMARK                         _______ _______ _______ _____ _____    ______ ____
ROOT
ATOM      1  N   UNL     1       8.247   7.815  18.826  0.00  0.00    +0.000 N 
ATOM      2  C   UNL     1       7.681   7.088  17.768  0.00  0.00    +0.000 C 
ATOM      3  O   UNL     1       7.859   7.349  16.583  0.00  0.00    +0.000 OA
ATOM      4  H   UNL     1       8.126   7.484  19.779  0.00  0.00    +0.000 HD
ENDROOT
BRANCH   2   5
ATOM      5  C   UNL     1       6.852   5.932  18.189  0.00  0.00    +0.000 A 
ATOM      6  C   UNL     1       5.465   5.943  18.536  0.00  0.00    +0.000 A 
ATOM      7  C   UNL     1       5.116   4.627  18.802  0.00  0.00    +0.000 A 
ATOM      8  N   UNL     1       6.278   3.930  18.625  0.00  0.00    +0.000 N 
ATOM      9  N   UNL     1       7.340   4.679  18.270  0.00  0.00    +0.000 NA
ATOM     10  H   UNL     1       6.426   2.926  18.713  0.00  0.00    +0.000 HD
BRANCH   7  11
ATOM     11  C   UNL     1       3.781   4.017  19.183  0.00  0.00    +0.000 C 
ATOM     12  C   UNL     1       2.736   4.307  18.069  0.00  0.00    +0.000 C 
ATOM     13  C   UNL     1       1.348   3.773  18.461  0.00  0.00    +0.000 C 
ATOM     14  C   UNL     1       1.428   2.253  18.669  0.00  0.00    +0.000 C 
ATOM     15  C   UNL     1       2.439   1.929  19.780  0.00  0.00    +0.000 C 
ATOM     16  C   UNL     1       1.977   2.597  21.086  0.00  0.00    +0.000 C 
ATOM     17  C   UNL     1       1.900   4.119  20.896  0.00  0.00    +0.000 C 
ATOM     18  C   UNL     1       0.902   4.443  19.772  0.00  0.00    +0.000 C 
ATOM     19  C   UNL     1       3.286   4.653  20.509  0.00  0.00    +0.000 C 
ATOM     20  C   UNL     1       3.828   2.475  19.386  0.00  0.00    +0.000 C 
ENDBRANCH   7  11
ENDBRANCH   2   5
BRANCH   1  22
ATOM     21  C   UNL     1       8.499  10.075  18.505  0.00  0.00    +0.000 C 
ATOM     22  N   UNL     1       9.030   8.905  18.535  0.00  0.00    +0.000 NA
BRANCH  21  25
ATOM     23  C   UNL     1       9.597  13.680  17.849  0.00  0.00    +0.000 A 
ATOM     24  C   UNL     1       8.788  12.563  18.148  0.00  0.00    +0.000 A 
ATOM     25  C   UNL     1       9.337  11.270  18.202  0.00  0.00    +0.000 A 
ATOM     26  C   UNL     1      10.700  11.092  17.962  0.00  0.00    +0.000 A 
ATOM     27  C   UNL     1      11.510  12.191  17.663  0.00  0.00    +0.000 A 
ATOM     28  C   UNL     1      10.959  13.477  17.605  0.00  0.00    +0.000 A 
BRANCH  23  30
ATOM     29  C   UNL     1       7.494  14.825  17.898  0.00  0.00    +0.000 C 
ATOM     30  O   UNL     1       8.915  14.871  17.836  0.00  0.00    +0.000 OA
ENDBRANCH  23  30
BRANCH  28  31
ATOM     31  O   UNL     1      11.799  14.512  17.300  0.00  0.00    +0.000 OA
ATOM     32  H   UNL     1      11.586  14.856  16.417  0.00  0.00    +0.000 HD
ENDBRANCH  28  31
ENDBRANCH  21  25
ENDBRANCH   1  22
TORSDOF 6
ENDMDL
MODEL 3
REMARK VINA RESULT:      -9.4      0.128      1.410
REMARK  Name = 
REMARK  7 active torsions:
REMARK  status: ('A' for Active; 'I' for Inactive)
REMARK    1  A    between atoms: C_1  and  O_2
REMARK    2  A    between atoms: O_2  and  C_3
REMARK    3  A    between atoms: C_5  and  C_6
REMARK    4  A    between atoms: N_7  and  N_8
REMARK    5  A    between atoms: C_9  and  C_11
REMARK    6  A    between atoms: C_13  and  C_14
REMARK    7  A    between atoms: C_28  and  O_29
REMARK                            x       y       z     vdW  Elec       q    Type
REMARK                         _______ _______ _______ _____ _____    ______ ____
ROOT
ATOM      1  N   UNL     1       7.539   8.124  18.274  0.00  0.00    +0.000 N 
ATOM      2  C   UNL     1       7.433   7.000  17.440  0.00  0.00    +0.000 C 
ATOM      3  O   UNL     1       7.966   6.910  16.339  0.00  0.00    +0.000 OA
ATOM      4  H   UNL     1       7.143   8.089  19.209  0.00  0.00    +0.000 HD
ENDROOT
BRANCH   2   5
ATOM      5  C   UNL     1       6.636   5.885  18.007  0.00  0.00    +0.000 A 
ATOM      6  C   UNL     1       5.252   5.906  18.364  0.00  0.00    +0.000 A 
ATOM      7  C   UNL     1       4.937   4.625  18.792  0.00  0.00    +0.000 A 
ATOM      8  N   UNL     1       6.114   3.938  18.688  0.00  0.00    +0.000 N 
ATOM      9  N   UNL     1       7.155   4.663  18.234  0.00  0.00    +0.000 NA
ATOM     10  H   UNL     1       6.286   2.956  18.896  0.00  0.00    +0.000 HD
BRANCH   7  11
ATOM     11  C   UNL     1       3.620   4.035  19.257  0.00  0.00    +0.000 C 
ATOM     12  C   UNL     1       3.772   2.499  19.446  0.00  0.00    +0.000 C 
ATOM     13  C   UNL     1       2.431   1.855  19.839  0.00  0.00    +0.000 C 
ATOM     14  C   UNL     1       1.944   2.463  21.164  0.00  0.00    +0.000 C 
ATOM     15  C   UNL     1       1.763   3.981  21.008  0.00  0.00    +0.000 C 
ATOM     16  C   UNL     1       0.718   4.249  19.911  0.00  0.00    +0.000 C 
ATOM     17  C   UNL     1       1.195   3.654  18.578  0.00  0.00    +0.000 C 
ATOM     18  C   UNL     1       1.395   2.138  18.738  0.00  0.00    +0.000 C 
ATOM     19  C   UNL     1       2.531   4.299  18.183  0.00  0.00    +0.000 C 
ATOM     20  C   UNL     1       3.108   4.621  20.605  0.00  0.00    +0.000 C 
ENDBRANCH   7  11
ENDBRANCH   2   5
BRANCH   1  22
ATOM     21  C   UNL     1       8.728  10.044  18.689  0.00  0.00    +0.000 C 
ATOM     22  N   UNL     1       8.258   9.209  17.833  0.00  0.00    +0.000 NA
BRANCH  21  25
ATOM     23  C   UNL     1       9.720  13.604  17.700  0.00  0.00    +0.000 A 
ATOM     24  C   UNL     1       8.956  12.505  18.148  0.00  0.00    +0.000 A 
ATOM     25  C   UNL     1       9.520  11.220  18.229  0.00  0.00    +0.000 A 
ATOM     26  C   UNL     1      10.855  11.032  17.866  0.00  0.00    +0.000 A 
ATOM     27  C   UNL     1      11.619  12.113  17.418  0.00  0.00    +0.000 A 
ATOM     28  C   UNL     1      11.053  13.390  17.334  0.00  0.00    +0.000 A 
BRANCH  23  30
ATOM     29  C   UNL     1       7.842  14.881  18.460  0.00  0.00    +0.000 C 
ATOM     30  O   UNL     1       9.028  14.789  17.680  0.00  0.00    +0.000 OA
ENDBRANCH  23  30
BRANCH  28  31
ATOM     31  O   UNL     1      11.848  14.407  16.881  0.00  0.00    +0.000 OA
ATOM     32  H   UNL     1      12.406  14.732  17.605  0.00  0.00    +0.000 HD
ENDBRANCH  28  31
ENDBRANCH  21  25
ENDBRANCH   1  22
TORSDOF 6
ENDMDL
MODEL 4
REMARK VINA RESULT:      -9.0      1.152      1.848
REMARK  Name = 
REMARK  7 active torsions:
REMARK  status: ('A' for Active; 'I' for Inactive)
REMARK    1  A    between atoms: C_1  and  O_2
REMARK    2  A    between atoms: O_2  and  C_3
REMARK    3  A    between atoms: C_5  and  C_6
REMARK    4  A    between atoms: N_7  and  N_8
REMARK    5  A    between atoms: C_9  and  C_11
REMARK    6  A    between atoms: C_13  and  C_14
REMARK    7  A    between atoms: C_28  and  O_29
REMARK                            x       y       z     vdW  Elec       q    Type
REMARK                         _______ _______ _______ _____ _____    ______ ____
ROOT
ATOM      1  N   UNL     1       7.938   8.056  18.682  0.00  0.00    +0.000 N 
ATOM      2  C   UNL     1       7.593   7.146  17.671  0.00  0.00    +0.000 C 
ATOM      3  O   UNL     1       7.946   7.252  16.501  0.00  0.00    +0.000 OA
ATOM      4  H   UNL     1       7.682   7.853  19.644  0.00  0.00    +0.000 HD
ENDROOT
BRANCH   2   5
ATOM      5  C   UNL     1       6.774   5.997  18.130  0.00  0.00    +0.000 A 
ATOM      6  C   UNL     1       5.393   6.013  18.500  0.00  0.00    +0.000 A 
ATOM      7  C   UNL     1       5.051   4.702  18.799  0.00  0.00    +0.000 A 
ATOM      8  N   UNL     1       6.212   4.004  18.617  0.00  0.00    +0.000 N 
ATOM      9  N   UNL     1       7.266   4.747  18.229  0.00  0.00    +0.000 NA
ATOM     10  H   UNL     1       6.363   3.002  18.725  0.00  0.00    +0.000 HD
BRANCH   7  11
ATOM     11  C   UNL     1       3.724   4.098  19.215  0.00  0.00    +0.000 C 
ATOM     12  C   UNL     1       3.875   2.557  19.368  0.00  0.00    +0.000 C 
ATOM     13  C   UNL     1       2.527   1.901  19.708  0.00  0.00    +0.000 C 
ATOM     14  C   UNL     1       2.004   2.472  21.035  0.00  0.00    +0.000 C 
ATOM     15  C   UNL     1       1.822   3.994  20.914  0.00  0.00    +0.000 C 
ATOM     16  C   UNL     1       0.806   4.289  19.799  0.00  0.00    +0.000 C 
ATOM     17  C   UNL     1       1.319   3.730  18.464  0.00  0.00    +0.000 C 
ATOM     18  C   UNL     1       1.518   2.211  18.588  0.00  0.00    +0.000 C 
ATOM     19  C   UNL     1       2.663   4.388  18.121  0.00  0.00    +0.000 C 
ATOM     20  C   UNL     1       3.176   4.647  20.564  0.00  0.00    +0.000 C 
ENDBRANCH   7  11
ENDBRANCH   2   5
BRANCH   1  22
ATOM     21  C   UNL     1       9.004  10.005  19.264  0.00  0.00    +0.000 C 
ATOM     22  N   UNL     1       8.695   9.154  18.352  0.00  0.00    +0.000 NA
BRANCH  21  25
ATOM     23  C   UNL     1      10.651  13.455  19.406  0.00  0.00    +0.000 A 
ATOM     24  C   UNL     1       9.866  12.334  19.750  0.00  0.00    +0.000 A 
ATOM     25  C   UNL     1       9.834  11.196  18.925  0.00  0.00    +0.000 A 
ATOM     26  C   UNL     1      10.595  11.175  17.755  0.00  0.00    +0.000 A 
ATOM     27  C   UNL     1      11.374  12.280  17.404  0.00  0.00    +0.000 A 
ATOM     28  C   UNL     1      11.399  13.414  18.225  0.00  0.00    +0.000 A 
BRANCH  23  30
ATOM     29  C   UNL     1      10.021  14.203  21.592  0.00  0.00    +0.000 C 
ATOM     30  O   UNL     1      10.577  14.483  20.313  0.00  0.00    +0.000 OA
ENDBRANCH  23  30
BRANCH  28  31
ATOM     31  O   UNL     1      12.173  14.468  17.826  0.00  0.00    +0.000 OA
ATOM     32  H   UNL     1      12.537  14.919  18.604  0.00  0.00    +0.000 HD
ENDBRANCH  28  31
ENDBRANCH  21  25
ENDBRANCH   1  22
TORSDOF 6
ENDMDL
MODEL 5
REMARK VINA RESULT:      -9.0      1.416      2.106
REMARK  Name = 
REMARK  7 active torsions:
REMARK  status: ('A' for Active; 'I' for Inactive)
REMARK    1  A    between atoms: C_1  and  O_2
REMARK    2  A    between atoms: O_2  and  C_3
REMARK    3  A    between atoms: C_5  and  C_6
REMARK    4  A    between atoms: N_7  and  N_8
REMARK    5  A    between atoms: C_9  and  C_11
REMARK    6  A    between atoms: C_13  and  C_14
REMARK    7  A    between atoms: C_28  and  O_29
REMARK                            x       y       z     vdW  Elec       q    Type
REMARK                         _______ _______ _______ _____ _____    ______ ____
ROOT
ATOM      1  N   UNL     1       8.445   7.849  18.966  0.00  0.00    +0.000 N 
ATOM      2  C   UNL     1       7.728   7.276  17.905  0.00  0.00    +0.000 C 
ATOM      3  O   UNL     1       7.772   7.681  16.748  0.00  0.00    +0.000 OA
ATOM      4  H   UNL     1       8.426   7.403  19.878  0.00  0.00    +0.000 HD
ENDROOT
BRANCH   2   5
ATOM      5  C   UNL     1       6.912   6.095  18.280  0.00  0.00    +0.000 A 
ATOM      6  C   UNL     1       5.496   6.047  18.473  0.00  0.00    +0.000 A 
ATOM      7  C   UNL     1       5.182   4.726  18.753  0.00  0.00    +0.000 A 
ATOM      8  N   UNL     1       6.387   4.083  18.732  0.00  0.00    +0.000 N 
ATOM      9  N   UNL     1       7.446   4.872  18.464  0.00  0.00    +0.000 NA
ATOM     10  H   UNL     1       6.571   3.091  18.876  0.00  0.00    +0.000 HD
BRANCH   7  11
ATOM     11  C   UNL     1       3.843   4.063  19.011  0.00  0.00    +0.000 C 
ATOM     12  C   UNL     1       3.363   3.334  17.724  0.00  0.00    +0.000 C 
ATOM     13  C   UNL     1       1.967   2.720  17.925  0.00  0.00    +0.000 C 
ATOM     14  C   UNL     1       2.022   1.697  19.071  0.00  0.00    +0.000 C 
ATOM     15  C   UNL     1       2.474   2.388  20.367  0.00  0.00    +0.000 C 
ATOM     16  C   UNL     1       1.467   3.495  20.721  0.00  0.00    +0.000 C 
ATOM     17  C   UNL     1       1.407   4.529  19.588  0.00  0.00    +0.000 C 
ATOM     18  C   UNL     1       0.972   3.836  18.286  0.00  0.00    +0.000 C 
ATOM     19  C   UNL     1       2.799   5.146  19.390  0.00  0.00    +0.000 C 
ATOM     20  C   UNL     1       3.870   3.011  20.158  0.00  0.00    +0.000 C 
ENDBRANCH   7  11
ENDBRANCH   2   5
BRANCH   1  22
ATOM     21  C   UNL     1       8.975  10.056  19.319  0.00  0.00    +0.000 C 
ATOM     22  N   UNL     1       9.228   8.950  18.716  0.00  0.00    +0.000 NA
BRANCH  21  25
ATOM     23  C   UNL     1      10.829  13.368  19.795  0.00  0.00    +0.000 A 
ATOM     24  C   UNL     1      10.030  12.234  20.056  0.00  0.00    +0.000 A 
ATOM     25  C   UNL     1       9.822  11.256  19.068  0.00  0.00    +0.000 A 
ATOM     26  C   UNL     1      10.419  11.408  17.815  0.00  0.00    +0.000 A 
ATOM     27  C   UNL     1      11.209  12.529  17.545  0.00  0.00    +0.000 A 
ATOM     28  C   UNL     1      11.409  13.504  18.530  0.00  0.00    +0.000 A 
BRANCH  23  30
ATOM     29  C   UNL     1      10.192  15.439  20.815  0.00  0.00    +0.000 C 
ATOM     30  O   UNL     1      10.936  14.228  20.860  0.00  0.00    +0.000 OA
ENDBRANCH  23  30
BRANCH  28  31
ATOM     31  O   UNL     1      12.185  14.581  18.205  0.00  0.00    +0.000 OA
ATOM     32  H   UNL     1      12.633  14.913  19.000  0.00  0.00    +0.000 HD
ENDBRANCH  28  31
ENDBRANCH  21  25
ENDBRANCH   1  22
TORSDOF 6
ENDMDL
MODEL 6
REMARK VINA RESULT:      -8.6      1.539      2.115
REMARK  Name = 
REMARK  7 active torsions:
REMARK  status: ('A' for Active; 'I' for Inactive)
REMARK    1  A    between atoms: C_1  and  O_2
REMARK    2  A    between atoms: O_2  and  C_3
REMARK    3  A    between atoms: C_5  and  C_6
REMARK    4  A    between atoms: N_7  and  N_8
REMARK    5  A    between atoms: C_9  and  C_11
REMARK    6  A    between atoms: C_13  and  C_14
REMARK    7  A    between atoms: C_28  and  O_29
REMARK                            x       y       z     vdW  Elec       q    Type
REMARK                         _______ _______ _______ _____ _____    ______ ____
ROOT
ATOM      1  N   UNL     1       8.249   8.125  18.992  0.00  0.00    +0.000 N 
ATOM      2  C   UNL     1       7.888   7.390  17.853  0.00  0.00    +0.000 C 
ATOM      3  O   UNL     1       8.196   7.702  16.708  0.00  0.00    +0.000 OA
ATOM      4  H   UNL     1       8.032   7.755  19.913  0.00  0.00    +0.000 HD
ENDROOT
BRANCH   2   5
ATOM      5  C   UNL     1       7.111   6.158  18.136  0.00  0.00    +0.000 A 
ATOM      6  C   UNL     1       5.705   6.058  18.377  0.00  0.00    +0.000 A 
ATOM      7  C   UNL     1       5.428   4.707  18.531  0.00  0.00    +0.000 A 
ATOM      8  N   UNL     1       6.644   4.098  18.398  0.00  0.00    +0.000 N 
ATOM      9  N   UNL     1       7.676   4.935  18.173  0.00  0.00    +0.000 NA
ATOM     10  H   UNL     1       6.852   3.102  18.433  0.00  0.00    +0.000 HD
BRANCH   7  11
ATOM     11  C   UNL     1       4.114   3.990  18.771  0.00  0.00    +0.000 C 
ATOM     12  C   UNL     1       4.296   2.922  19.886  0.00  0.00    +0.000 C 
ATOM     13  C   UNL     1       3.002   2.117  20.096  0.00  0.00    +0.000 C 
ATOM     14  C   UNL     1       1.872   3.071  20.516  0.00  0.00    +0.000 C 
ATOM     15  C   UNL     1       1.650   4.131  19.425  0.00  0.00    +0.000 C 
ATOM     16  C   UNL     1       1.260   3.426  18.116  0.00  0.00    +0.000 C 
ATOM     17  C   UNL     1       2.383   2.474  17.680  0.00  0.00    +0.000 C 
ATOM     18  C   UNL     1       2.618   1.425  18.778  0.00  0.00    +0.000 C 
ATOM     19  C   UNL     1       3.674   3.277  17.464  0.00  0.00    +0.000 C 
ATOM     20  C   UNL     1       2.954   4.929  19.211  0.00  0.00    +0.000 C 
ENDBRANCH   7  11
ENDBRANCH   2   5
BRANCH   1  22
ATOM     21  C   UNL     1       9.215  10.022  19.853  0.00  0.00    +0.000 C 
ATOM     22  N   UNL     1       8.969   9.283  18.830  0.00  0.00    +0.000 NA
BRANCH  21  25
ATOM     23  C   UNL     1      11.574  12.688  18.452  0.00  0.00    +0.000 A 
ATOM     24  C   UNL     1      10.826  11.498  18.577  0.00  0.00    +0.000 A 
ATOM     25  C   UNL     1      10.006  11.277  19.696  0.00  0.00    +0.000 A 
ATOM     26  C   UNL     1       9.926  12.250  20.693  0.00  0.00    +0.000 A 
ATOM     27  C   UNL     1      10.665  13.431  20.581  0.00  0.00    +0.000 A 
ATOM     28  C   UNL     1      11.486  13.646  19.468  0.00  0.00    +0.000 A 
BRANCH  23  30
ATOM     29  C   UNL     1      11.743  13.380  16.165  0.00  0.00    +0.000 C 
ATOM     30  O   UNL     1      12.324  12.755  17.304  0.00  0.00    +0.000 OA
ENDBRANCH  23  30
BRANCH  28  31
ATOM     31  O   UNL     1      12.191  14.817  19.417  0.00  0.00    +0.000 OA
ATOM     32  H   UNL     1      13.142  14.625  19.387  0.00  0.00    +0.000 HD
ENDBRANCH  28  31
ENDBRANCH  21  25
ENDBRANCH   1  22
TORSDOF 6
ENDMDL
MODEL 7
REMARK VINA RESULT:      -8.5      7.686      9.665
REMARK  Name = 
REMARK  7 active torsions:
REMARK  status: ('A' for Active; 'I' for Inactive)
REMARK    1  A    between atoms: C_1  and  O_2
REMARK    2  A    between atoms: O_2  and  C_3
REMARK    3  A    between atoms: C_5  and  C_6
REMARK    4  A    between atoms: N_7  and  N_8
REMARK    5  A    between atoms: C_9  and  C_11
REMARK    6  A    between atoms: C_13  and  C_14
REMARK    7  A    between atoms: C_28  and  O_29
REMARK                            x       y       z     vdW  Elec       q    Type
REMARK                         _______ _______ _______ _____ _____    ______ ____
ROOT
ATOM      1  N   UNL     1       0.821  10.607  21.088  0.00  0.00    +0.000 N 
ATOM      2  C   UNL     1       0.671   9.212  21.063  0.00  0.00    +0.000 C 
ATOM      3  O   UNL     1      -0.063   8.587  21.821  0.00  0.00    +0.000 OA
ATOM      4  H   UNL     1       1.379  11.062  20.371  0.00  0.00    +0.000 HD
ENDROOT
BRANCH   2   5
ATOM      5  C   UNL     1       1.459   8.528  20.010  0.00  0.00    +0.000 A 
ATOM      6  C   UNL     1       2.131   7.270  20.111  0.00  0.00    +0.000 A 
ATOM      7  C   UNL     1       2.678   7.013  18.862  0.00  0.00    +0.000 A 
ATOM      8  N   UNL     1       2.331   8.104  18.115  0.00  0.00    +0.000 N 
ATOM      9  N   UNL     1       1.613   9.036  18.771  0.00  0.00    +0.000 NA
ATOM     10  H   UNL     1       2.537   8.281  17.134  0.00  0.00    +0.000 HD
BRANCH   7  11
ATOM     11  C   UNL     1       3.466   5.822  18.355  0.00  0.00    +0.000 C 
ATOM     12  C   UNL     1       4.239   5.165  19.534  0.00  0.00    +0.000 C 
ATOM     13  C   UNL     1       5.115   4.002  19.039  0.00  0.00    +0.000 C 
ATOM     14  C   UNL     1       4.224   2.934  18.387  0.00  0.00    +0.000 C 
ATOM     15  C   UNL     1       3.458   3.544  17.202  0.00  0.00    +0.000 C 
ATOM     16  C   UNL     1       4.471   4.062  16.167  0.00  0.00    +0.000 C 
ATOM     17  C   UNL     1       5.365   5.137  16.803  0.00  0.00    +0.000 C 
ATOM     18  C   UNL     1       6.117   4.532  17.999  0.00  0.00    +0.000 C 
ATOM     19  C   UNL     1       4.491   6.300  17.292  0.00  0.00    +0.000 C 
ATOM     20  C   UNL     1       2.587   4.716  17.701  0.00  0.00    +0.000 C 
ENDBRANCH   7  11
ENDBRANCH   2   5
BRANCH   1  22
ATOM     21  C   UNL     1      -0.988  11.876  21.715  0.00  0.00    +0.000 C 
ATOM     22  N   UNL     1       0.131  11.330  22.032  0.00  0.00    +0.000 NA
BRANCH  21  25
ATOM     23  C   UNL     1      -3.699  12.950  24.191  0.00  0.00    +0.000 A 
ATOM     24  C   UNL     1      -2.983  12.195  23.238  0.00  0.00    +0.000 A 
ATOM     25  C   UNL     1      -1.755  12.653  22.730  0.00  0.00    +0.000 A 
ATOM     26  C   UNL     1      -1.236  13.867  23.181  0.00  0.00    +0.000 A 
ATOM     27  C   UNL     1      -1.937  14.624  24.123  0.00  0.00    +0.000 A 
ATOM     28  C   UNL     1      -3.163  14.168  24.622  0.00  0.00    +0.000 A 
BRANCH  23  30
ATOM     29  C   UNL     1      -6.081  12.822  23.982  0.00  0.00    +0.000 C 
ATOM     30  O   UNL     1      -4.877  12.368  24.589  0.00  0.00    +0.000 OA
ENDBRANCH  23  30
BRANCH  28  31
ATOM     31  O   UNL     1      -3.807  14.956  25.535  0.00  0.00    +0.000 OA
ATOM     32  H   UNL     1      -4.750  15.012  25.311  0.00  0.00    +0.000 HD
ENDBRANCH  28  31
ENDBRANCH  21  25
ENDBRANCH   1  22
TORSDOF 6
ENDMDL
MODEL 8
REMARK VINA RESULT:      -8.5      7.745      9.647
REMARK  Name = 
REMARK  7 active torsions:
REMARK  status: ('A' for Active; 'I' for Inactive)
REMARK    1  A    between atoms: C_1  and  O_2
REMARK    2  A    between atoms: O_2  and  C_3
REMARK    3  A    between atoms: C_5  and  C_6
REMARK    4  A    between atoms: N_7  and  N_8
REMARK    5  A    between atoms: C_9  and  C_11
REMARK    6  A    between atoms: C_13  and  C_14
REMARK    7  A    between atoms: C_28  and  O_29
REMARK                            x       y       z     vdW  Elec       q    Type
REMARK                         _______ _______ _______ _____ _____    ______ ____
ROOT
ATOM      1  N   UNL     1      -0.402   9.601  21.396  0.00  0.00    +0.000 N 
ATOM      2  C   UNL     1       0.872   9.127  21.744  0.00  0.00    +0.000 C 
ATOM      3  O   UNL     1       1.439   9.392  22.799  0.00  0.00    +0.000 OA
ATOM      4  H   UNL     1      -0.843   9.267  20.545  0.00  0.00    +0.000 HD
ENDROOT
BRANCH   2   5
ATOM      5  C   UNL     1       1.493   8.235  20.735  0.00  0.00    +0.000 A 
ATOM      6  C   UNL     1       1.805   6.848  20.882  0.00  0.00    +0.000 A 
ATOM      7  C   UNL     1       2.314   6.427  19.662  0.00  0.00    +0.000 A 
ATOM      8  N   UNL     1       2.296   7.553  18.886  0.00  0.00    +0.000 N 
ATOM      9  N   UNL     1       1.823   8.656  19.498  0.00  0.00    +0.000 NA
ATOM     10  H   UNL     1       2.579   7.646  17.913  0.00  0.00    +0.000 HD
BRANCH   7  11
ATOM     11  C   UNL     1       2.780   5.059  19.205  0.00  0.00    +0.000 C 
ATOM     12  C   UNL     1       2.245   4.775  17.772  0.00  0.00    +0.000 C 
ATOM     13  C   UNL     1       2.630   3.360  17.309  0.00  0.00    +0.000 C 
ATOM     14  C   UNL     1       4.161   3.229  17.292  0.00  0.00    +0.000 C 
ATOM     15  C   UNL     1       4.724   3.484  18.700  0.00  0.00    +0.000 C 
ATOM     16  C   UNL     1       4.136   2.444  19.668  0.00  0.00    +0.000 C 
ATOM     17  C   UNL     1       2.606   2.567  19.702  0.00  0.00    +0.000 C 
ATOM     18  C   UNL     1       2.043   2.331  18.291  0.00  0.00    +0.000 C 
ATOM     19  C   UNL     1       2.221   3.979  20.168  0.00  0.00    +0.000 C 
ATOM     20  C   UNL     1       4.327   4.901  19.163  0.00  0.00    +0.000 C 
ENDBRANCH   7  11
ENDBRANCH   2   5
BRANCH   1  22
ATOM     21  C   UNL     1      -1.133  11.693  22.004  0.00  0.00    +0.000 C 
ATOM     22  N   UNL     1      -1.057  10.437  22.269  0.00  0.00    +0.000 NA
BRANCH  21  25
ATOM     23  C   UNL     1      -3.787  13.185  24.320  0.00  0.00    +0.000 A 
ATOM     24  C   UNL     1      -3.120  12.297  23.448  0.00  0.00    +0.000 A 
ATOM     25  C   UNL     1      -1.851  12.611  22.933  0.00  0.00    +0.000 A 
ATOM     26  C   UNL     1      -1.241  13.814  23.294  0.00  0.00    +0.000 A 
ATOM     27  C   UNL     1      -1.893  14.701  24.154  0.00  0.00    +0.000 A 
ATOM     28  C   UNL     1      -3.160  14.388  24.661  0.00  0.00    +0.000 A 
BRANCH  23  30
ATOM     29  C   UNL     1      -6.128  12.947  23.876  0.00  0.00    +0.000 C 
ATOM     30  O   UNL     1      -5.015  12.735  24.737  0.00  0.00    +0.000 OA
ENDBRANCH  23  30
BRANCH  28  31
ATOM     31  O   UNL     1      -3.753  15.299  25.491  0.00  0.00    +0.000 OA
ATOM     32  H   UNL     1      -4.542  14.906  25.897  0.00  0.00    +0.000 HD
ENDBRANCH  28  31
ENDBRANCH  21  25
ENDBRANCH   1  22
TORSDOF 6
ENDMDL
MODEL 9
REMARK VINA RESULT:      -8.4      7.652      9.563
REMARK  Name = 
REMARK  7 active torsions:
REMARK  status: ('A' for Active; 'I' for Inactive)
REMARK    1  A    between atoms: C_1  and  O_2
REMARK    2  A    between atoms: O_2  and  C_3
REMARK    3  A    between atoms: C_5  and  C_6
REMARK    4  A    between atoms: N_7  and  N_8
REMARK    5  A    between atoms: C_9  and  C_11
REMARK    6  A    between atoms: C_13  and  C_14
REMARK    7  A    between atoms: C_28  and  O_29
REMARK                            x       y       z     vdW  Elec       q    Type
REMARK                         _______ _______ _______ _____ _____    ______ ____
ROOT
ATOM      1  N   UNL     1       0.856  10.549  21.038  0.00  0.00    +0.000 N 
ATOM      2  C   UNL     1       0.687  10.505  19.646  0.00  0.00    +0.000 C 
ATOM      3  O   UNL     1      -0.012  11.289  19.014  0.00  0.00    +0.000 OA
ATOM      4  H   UNL     1       1.522   9.921  21.480  0.00  0.00    +0.000 HD
ENDROOT
BRANCH   2   5
ATOM      5  C   UNL     1       1.457   9.434  18.966  0.00  0.00    +0.000 A 
ATOM      6  C   UNL     1       1.753   8.129  19.469  0.00  0.00    +0.000 A 
ATOM      7  C   UNL     1       2.439   7.466  18.463  0.00  0.00    +0.000 A 
ATOM      8  N   UNL     1       2.529   8.386  17.456  0.00  0.00    +0.000 N 
ATOM      9  N   UNL     1       1.964   9.579  17.726  0.00  0.00    +0.000 NA
ATOM     10  H   UNL     1       2.952   8.270  16.538  0.00  0.00    +0.000 HD
BRANCH   7  11
ATOM     11  C   UNL     1       2.977   6.050  18.401  0.00  0.00    +0.000 C 
ATOM     12  C   UNL     1       1.911   5.112  17.767  0.00  0.00    +0.000 C 
ATOM     13  C   UNL     1       2.392   3.651  17.766  0.00  0.00    +0.000 C 
ATOM     14  C   UNL     1       3.686   3.542  16.944  0.00  0.00    +0.000 C 
ATOM     15  C   UNL     1       4.771   4.443  17.556  0.00  0.00    +0.000 C 
ATOM     16  C   UNL     1       5.045   3.986  18.998  0.00  0.00    +0.000 C 
ATOM     17  C   UNL     1       3.762   4.096  19.834  0.00  0.00    +0.000 C 
ATOM     18  C   UNL     1       2.670   3.210  19.213  0.00  0.00    +0.000 C 
ATOM     19  C   UNL     1       3.284   5.556  19.840  0.00  0.00    +0.000 C 
ATOM     20  C   UNL     1       4.280   5.906  17.563  0.00  0.00    +0.000 C 
ENDBRANCH   7  11
ENDBRANCH   2   5
BRANCH   1  22
ATOM     21  C   UNL     1      -0.986  11.241  22.222  0.00  0.00    +0.000 C 
ATOM     22  N   UNL     1       0.182  11.507  21.756  0.00  0.00    +0.000 NA
BRANCH  21  25
ATOM     23  C   UNL     1      -3.706  13.008  24.250  0.00  0.00    +0.000 A 
ATOM     24  C   UNL     1      -3.018  12.022  23.512  0.00  0.00    +0.000 A 
ATOM     25  C   UNL     1      -1.727  12.265  23.013  0.00  0.00    +0.000 A 
ATOM     26  C   UNL     1      -1.117  13.497  23.257  0.00  0.00    +0.000 A 
ATOM     27  C   UNL     1      -1.790  14.482  23.985  0.00  0.00    +0.000 A 
ATOM     28  C   UNL     1      -3.079  14.238  24.475  0.00  0.00    +0.000 A 
BRANCH  23  30
ATOM     29  C   UNL     1      -6.075  13.040  23.902  0.00  0.00    +0.000 C 
ATOM     30  O   UNL     1      -4.954  12.618  24.669  0.00  0.00    +0.000 OA
ENDBRANCH  23  30
BRANCH  28  31
ATOM     31  O   UNL     1      -3.691  15.242  25.173  0.00  0.00    +0.000 OA
ATOM     32  H   UNL     1      -4.587  15.382  24.827  0.00  0.00    +0.000 HD
ENDBRANCH  28  31
ENDBRANCH  21  25
ENDBRANCH   1  22
TORSDOF 6
ENDMDL
