MODEL 1
REMARK VINA RESULT:      -8.0      0.000      0.000
REMARK  Name = 
REMARK  16 active torsions:
REMARK  status: ('A' for Active; 'I' for Inactive)
REMARK    1  A    between atoms: C_1  and  O_2
REMARK    2  A    between atoms: O_2  and  C_3
REMARK    3  A    between atoms: C_6  and  C_7
REMARK    4  A    between atoms: C_8  and  C_9
REMARK    5  A    between atoms: C_11  and  O_12
REMARK    6  A    between atoms: O_12  and  C_13
REMARK    7  A    between atoms: C_15  and  O_16
REMARK    8  A    between atoms: O_16  and  C_17
REMARK    9  A    between atoms: C_18  and  C_19
REMARK   10  A    between atoms: C_20  and  C_21
REMARK   11  A    between atoms: C_21  and  C_23
REMARK   12  A    between atoms: C_24  and  C_25
REMARK   13  A    between atoms: C_29  and  O_30
REMARK   14  A    between atoms: O_30  and  C_31
REMARK   15  A    between atoms: C_32  and  O_33
REMARK   16  A    between atoms: O_33  and  C_34
REMARK                            x       y       z     vdW  Elec       q    Type
REMARK                         _______ _______ _______ _____ _____    ______ ____
ROOT
ATOM      1  C   UNL     1       3.275   6.082  17.808  0.00  0.00    +0.000 A 
ATOM      2  C   UNL     1       2.119   5.291  17.958  0.00  0.00    +0.000 A 
ATOM      3  C   UNL     1       2.129   3.934  17.673  0.00  0.00    +0.000 A 
ATOM      4  C   UNL     1       3.309   3.357  17.222  0.00  0.00    +0.000 A 
ATOM      5  C   UNL     1       4.476   4.125  17.028  0.00  0.00    +0.000 A 
ATOM      6  C   UNL     1       4.485   5.510  17.341  0.00  0.00    +0.000 A 
ENDROOT
BRANCH   1   8
ATOM      7  C   UNL     1       1.986   7.906  18.837  0.00  0.00    +0.000 C 
ATOM      8  C   UNL     1       3.077   7.498  18.166  0.00  0.00    +0.000 C 
BRANCH   7  12
ATOM      9  C   UNL     1       0.944  12.062  19.169  0.00  0.00    +0.000 A 
ATOM     10  C   UNL     1       1.864  11.619  18.221  0.00  0.00    +0.000 A 
ATOM     11  C   UNL     1       2.153  10.257  18.093  0.00  0.00    +0.000 A 
ATOM     12  C   UNL     1       1.548   9.311  18.933  0.00  0.00    +0.000 A 
ATOM     13  C   UNL     1       0.607   9.766  19.867  0.00  0.00    +0.000 A 
ATOM     14  C   UNL     1       0.314  11.131  19.993  0.00  0.00    +0.000 A 
BRANCH   9  16
ATOM     15  C   UNL     1       0.332  13.923  20.489  0.00  0.00    +0.000 C 
ATOM     16  O   UNL     1       0.780  13.418  19.237  0.00  0.00    +0.000 OA
ENDBRANCH   9  16
ENDBRANCH   7  12
ENDBRANCH   1   8
BRANCH   3  17
ATOM     17  O   UNL     1       0.939   3.293  17.871  0.00  0.00    +0.000 OA
ATOM     18  C   UNL     1       0.739   2.671  19.135  0.00  0.00    +0.000 C 
ENDBRANCH   3  17
BRANCH   5  19
ATOM     19  O   UNL     1       5.635   3.559  16.540  0.00  0.00    +0.000 OA
ATOM     20  C   UNL     1       5.856   3.666  15.134  0.00  0.00    +0.000 C 
ENDBRANCH   5  19
BRANCH   6  21
ATOM     21  C   UNL     1       5.645   6.412  17.096  0.00  0.00    +0.000 C 
ATOM     22  C   UNL     1       6.677   6.688  17.911  0.00  0.00    +0.000 C 
BRANCH  22  23
ATOM     23  C   UNL     1       7.746   7.622  17.442  0.00  0.00    +0.000 C 
ATOM     24  O   UNL     1       8.347   7.464  16.386  0.00  0.00    +0.000 OA
BRANCH  23  25
ATOM     25  C   UNL     1       8.077   8.736  18.372  0.00  0.00    +0.000 C 
ATOM     26  C   UNL     1       8.530   9.902  17.887  0.00  0.00    +0.000 C 
BRANCH  26  27
ATOM     27  C   UNL     1       9.040  10.965  18.765  0.00  0.00    +0.000 A 
ATOM     28  C   UNL     1       9.513  10.551  20.027  0.00  0.00    +0.000 A 
ATOM     29  C   UNL     1      10.012  11.471  20.944  0.00  0.00    +0.000 A 
ATOM     30  C   UNL     1      10.061  12.816  20.603  0.00  0.00    +0.000 A 
ATOM     31  C   UNL     1       9.585  13.268  19.364  0.00  0.00    +0.000 A 
ATOM     32  C   UNL     1       9.045  12.346  18.436  0.00  0.00    +0.000 A 
BRANCH  31  33
ATOM     33  O   UNL     1       9.724  14.630  19.241  0.00  0.00    +0.000 OA
ATOM     34  C   UNL     1      11.020  15.187  19.098  0.00  0.00    +0.000 C 
ENDBRANCH  31  33
BRANCH  32  35
ATOM     35  O   UNL     1       8.456  12.890  17.325  0.00  0.00    +0.000 OA
ATOM     36  C   UNL     1       7.276  13.666  17.443  0.00  0.00    +0.000 C 
ENDBRANCH  32  35
ENDBRANCH  26  27
ENDBRANCH  23  25
ENDBRANCH  22  23
ENDBRANCH   6  21
TORSDOF 11
ENDMDL
MODEL 2
REMARK VINA RESULT:      -7.9      5.138      9.352
REMARK  Name = 
REMARK  16 active torsions:
REMARK  status: ('A' for Active; 'I' for Inactive)
REMARK    1  A    between atoms: C_1  and  O_2
REMARK    2  A    between atoms: O_2  and  C_3
REMARK    3  A    between atoms: C_6  and  C_7
REMARK    4  A    between atoms: C_8  and  C_9
REMARK    5  A    between atoms: C_11  and  O_12
REMARK    6  A    between atoms: O_12  and  C_13
REMARK    7  A    between atoms: C_15  and  O_16
REMARK    8  A    between atoms: O_16  and  C_17
REMARK    9  A    between atoms: C_18  and  C_19
REMARK   10  A    between atoms: C_20  and  C_21
REMARK   11  A    between atoms: C_21  and  C_23
REMARK   12  A    between atoms: C_24  and  C_25
REMARK   13  A    between atoms: C_29  and  O_30
REMARK   14  A    between atoms: O_30  and  C_31
REMARK   15  A    between atoms: C_32  and  O_33
REMARK   16  A    between atoms: O_33  and  C_34
REMARK                            x       y       z     vdW  Elec       q    Type
REMARK                         _______ _______ _______ _____ _____    ______ ____
ROOT
ATOM      1  C   UNL     1      -1.969  11.909  20.365  0.00  0.00    +0.000 A 
ATOM      2  C   UNL     1      -2.807  12.713  21.160  0.00  0.00    +0.000 A 
ATOM      3  C   UNL     1      -2.587  12.863  22.521  0.00  0.00    +0.000 A 
ATOM      4  C   UNL     1      -1.517  12.194  23.101  0.00  0.00    +0.000 A 
ATOM      5  C   UNL     1      -0.677  11.354  22.340  0.00  0.00    +0.000 A 
ATOM      6  C   UNL     1      -0.877  11.212  20.941  0.00  0.00    +0.000 A 
ENDROOT
BRANCH   1   8
ATOM      7  C   UNL     1      -3.195  10.945  18.464  0.00  0.00    +0.000 C 
ATOM      8  C   UNL     1      -2.352  11.876  18.941  0.00  0.00    +0.000 C 
BRANCH   7  12
ATOM      9  C   UNL     1      -3.444  10.115  14.254  0.00  0.00    +0.000 A 
ATOM     10  C   UNL     1      -2.485   9.502  15.058  0.00  0.00    +0.000 A 
ATOM     11  C   UNL     1      -2.452   9.744  16.435  0.00  0.00    +0.000 A 
ATOM     12  C   UNL     1      -3.360  10.631  17.032  0.00  0.00    +0.000 A 
ATOM     13  C   UNL     1      -4.334  11.223  16.217  0.00  0.00    +0.000 A 
ATOM     14  C   UNL     1      -4.371  10.977  14.837  0.00  0.00    +0.000 A 
BRANCH   9  16
ATOM     15  C   UNL     1      -4.573   9.873  12.193  0.00  0.00    +0.000 C 
ATOM     16  O   UNL     1      -3.349   9.842  12.917  0.00  0.00    +0.000 OA
ENDBRANCH   9  16
ENDBRANCH   7  12
ENDBRANCH   1   8
BRANCH   3  17
ATOM     17  O   UNL     1      -3.476  13.677  23.165  0.00  0.00    +0.000 OA
ATOM     18  C   UNL     1      -4.763  13.140  23.446  0.00  0.00    +0.000 C 
ENDBRANCH   3  17
BRANCH   5  19
ATOM     19  O   UNL     1       0.359  10.656  22.924  0.00  0.00    +0.000 OA
ATOM     20  C   UNL     1       0.029   9.406  23.530  0.00  0.00    +0.000 C 
ENDBRANCH   5  19
BRANCH   6  21
ATOM     21  C   UNL     1      -0.090  10.290  20.076  0.00  0.00    +0.000 C 
ATOM     22  C   UNL     1       1.041  10.543  19.396  0.00  0.00    +0.000 C 
BRANCH  22  23
ATOM     23  C   UNL     1       1.670   9.448  18.596  0.00  0.00    +0.000 C 
ATOM     24  O   UNL     1       1.952   9.572  17.410  0.00  0.00    +0.000 OA
BRANCH  23  25
ATOM     25  C   UNL     1       1.883   8.166  19.320  0.00  0.00    +0.000 C 
ATOM     26  C   UNL     1       2.624   7.196  18.764  0.00  0.00    +0.000 C 
BRANCH  26  27
ATOM     27  C   UNL     1       2.717   5.851  19.351  0.00  0.00    +0.000 A 
ATOM     28  C   UNL     1       1.829   5.578  20.413  0.00  0.00    +0.000 A 
ATOM     29  C   UNL     1       1.832   4.342  21.050  0.00  0.00    +0.000 A 
ATOM     30  C   UNL     1       2.710   3.355  20.623  0.00  0.00    +0.000 A 
ATOM     31  C   UNL     1       3.617   3.594  19.581  0.00  0.00    +0.000 A 
ATOM     32  C   UNL     1       3.647   4.859  18.946  0.00  0.00    +0.000 A 
BRANCH  31  33
ATOM     33  O   UNL     1       4.391   2.488  19.327  0.00  0.00    +0.000 OA
ATOM     34  C   UNL     1       3.767   1.280  18.921  0.00  0.00    +0.000 C 
ENDBRANCH  31  33
BRANCH  32  35
ATOM     35  O   UNL     1       4.669   5.059  18.056  0.00  0.00    +0.000 OA
ATOM     36  C   UNL     1       4.570   4.579  16.726  0.00  0.00    +0.000 C 
ENDBRANCH  32  35
ENDBRANCH  26  27
ENDBRANCH  23  25
ENDBRANCH  22  23
ENDBRANCH   6  21
TORSDOF 11
ENDMDL
MODEL 3
REMARK VINA RESULT:      -7.7      0.852      1.218
REMARK  Name = 
REMARK  16 active torsions:
REMARK  status: ('A' for Active; 'I' for Inactive)
REMARK    1  A    between atoms: C_1  and  O_2
REMARK    2  A    between atoms: O_2  and  C_3
REMARK    3  A    between atoms: C_6  and  C_7
REMARK    4  A    between atoms: C_8  and  C_9
REMARK    5  A    between atoms: C_11  and  O_12
REMARK    6  A    between atoms: O_12  and  C_13
REMARK    7  A    between atoms: C_15  and  O_16
REMARK    8  A    between atoms: O_16  and  C_17
REMARK    9  A    between atoms: C_18  and  C_19
REMARK   10  A    between atoms: C_20  and  C_21
REMARK   11  A    between atoms: C_21  and  C_23
REMARK   12  A    between atoms: C_24  and  C_25
REMARK   13  A    between atoms: C_29  and  O_30
REMARK   14  A    between atoms: O_30  and  C_31
REMARK   15  A    between atoms: C_32  and  O_33
REMARK   16  A    between atoms: O_33  and  C_34
REMARK                            x       y       z     vdW  Elec       q    Type
REMARK                         _______ _______ _______ _____ _____    ______ ____
ROOT
ATOM      1  C   UNL     1       3.535   5.999  17.786  0.00  0.00    +0.000 A 
ATOM      2  C   UNL     1       2.431   5.135  17.918  0.00  0.00    +0.000 A 
ATOM      3  C   UNL     1       2.504   3.804  17.536  0.00  0.00    +0.000 A 
ATOM      4  C   UNL     1       3.696   3.328  17.005  0.00  0.00    +0.000 A 
ATOM      5  C   UNL     1       4.811   4.174  16.828  0.00  0.00    +0.000 A 
ATOM      6  C   UNL     1       4.756   5.532  17.238  0.00  0.00    +0.000 A 
ENDROOT
BRANCH   1   8
ATOM      7  C   UNL     1       2.153   7.684  18.926  0.00  0.00    +0.000 C 
ATOM      8  C   UNL     1       3.273   7.374  18.251  0.00  0.00    +0.000 C 
BRANCH   7  12
ATOM      9  C   UNL     1       0.475  11.599  19.501  0.00  0.00    +0.000 A 
ATOM     10  C   UNL     1       0.272  10.580  20.429  0.00  0.00    +0.000 A 
ATOM     11  C   UNL     1       0.868   9.327  20.252  0.00  0.00    +0.000 A 
ATOM     12  C   UNL     1       1.657   9.059  19.123  0.00  0.00    +0.000 A 
ATOM     13  C   UNL     1       1.873  10.098  18.209  0.00  0.00    +0.000 A 
ATOM     14  C   UNL     1       1.280  11.356  18.389  0.00  0.00    +0.000 A 
BRANCH   9  16
ATOM     15  C   UNL     1      -0.419  13.602  18.624  0.00  0.00    +0.000 C 
ATOM     16  O   UNL     1      -0.198  12.763  19.752  0.00  0.00    +0.000 OA
ENDBRANCH   9  16
ENDBRANCH   7  12
ENDBRANCH   1   8
BRANCH   3  17
ATOM     17  O   UNL     1       1.359   3.083  17.728  0.00  0.00    +0.000 OA
ATOM     18  C   UNL     1       0.890   2.953  19.064  0.00  0.00    +0.000 C 
ENDBRANCH   3  17
BRANCH   5  19
ATOM     19  O   UNL     1       5.980   3.711  16.262  0.00  0.00    +0.000 OA
ATOM     20  C   UNL     1       6.091   3.821  14.842  0.00  0.00    +0.000 C 
ENDBRANCH   5  19
BRANCH   6  21
ATOM     21  C   UNL     1       5.855   6.514  17.019  0.00  0.00    +0.000 C 
ATOM     22  C   UNL     1       6.749   6.980  17.907  0.00  0.00    +0.000 C 
BRANCH  22  23
ATOM     23  C   UNL     1       7.782   7.961  17.453  0.00  0.00    +0.000 C 
ATOM     24  O   UNL     1       8.505   7.760  16.484  0.00  0.00    +0.000 OA
BRANCH  23  25
ATOM     25  C   UNL     1       7.919   9.183  18.292  0.00  0.00    +0.000 C 
ATOM     26  C   UNL     1       9.051   9.902  18.249  0.00  0.00    +0.000 C 
BRANCH  26  27
ATOM     27  C   UNL     1       9.308  11.007  19.184  0.00  0.00    +0.000 A 
ATOM     28  C   UNL     1       9.125  10.715  20.552  0.00  0.00    +0.000 A 
ATOM     29  C   UNL     1       9.331  11.685  21.527  0.00  0.00    +0.000 A 
ATOM     30  C   UNL     1       9.741  12.956  21.149  0.00  0.00    +0.000 A 
ATOM     31  C   UNL     1       9.919  13.289  19.798  0.00  0.00    +0.000 A 
ATOM     32  C   UNL     1       9.680  12.319  18.794  0.00  0.00    +0.000 A 
BRANCH  31  33
ATOM     33  O   UNL     1      10.319  14.595  19.652  0.00  0.00    +0.000 OA
ATOM     34  C   UNL     1      11.674  14.939  19.894  0.00  0.00    +0.000 C 
ENDBRANCH  31  33
BRANCH  32  35
ATOM     35  O   UNL     1       9.717  12.774  17.503  0.00  0.00    +0.000 OA
ATOM     36  C   UNL     1      10.956  12.941  16.833  0.00  0.00    +0.000 C 
ENDBRANCH  32  35
ENDBRANCH  26  27
ENDBRANCH  23  25
ENDBRANCH  22  23
ENDBRANCH   6  21
TORSDOF 11
ENDMDL
MODEL 4
REMARK VINA RESULT:      -7.6      4.753      9.345
REMARK  Name = 
REMARK  16 active torsions:
REMARK  status: ('A' for Active; 'I' for Inactive)
REMARK    1  A    between atoms: C_1  and  O_2
REMARK    2  A    between atoms: O_2  and  C_3
REMARK    3  A    between atoms: C_6  and  C_7
REMARK    4  A    between atoms: C_8  and  C_9
REMARK    5  A    between atoms: C_11  and  O_12
REMARK    6  A    between atoms: O_12  and  C_13
REMARK    7  A    between atoms: C_15  and  O_16
REMARK    8  A    between atoms: O_16  and  C_17
REMARK    9  A    between atoms: C_18  and  C_19
REMARK   10  A    between atoms: C_20  and  C_21
REMARK   11  A    between atoms: C_21  and  C_23
REMARK   12  A    between atoms: C_24  and  C_25
REMARK   13  A    between atoms: C_29  and  O_30
REMARK   14  A    between atoms: O_30  and  C_31
REMARK   15  A    between atoms: C_32  and  O_33
REMARK   16  A    between atoms: O_33  and  C_34
REMARK                            x       y       z     vdW  Elec       q    Type
REMARK                         _______ _______ _______ _____ _____    ______ ____
ROOT
ATOM      1  C   UNL     1      -3.507  11.953  19.161  0.00  0.00    +0.000 A 
ATOM      2  C   UNL     1      -4.873  12.206  18.928  0.00  0.00    +0.000 A 
ATOM      3  C   UNL     1      -5.450  11.975  17.688  0.00  0.00    +0.000 A 
ATOM      4  C   UNL     1      -4.650  11.493  16.660  0.00  0.00    +0.000 A 
ATOM      5  C   UNL     1      -3.272  11.260  16.849  0.00  0.00    +0.000 A 
ATOM      6  C   UNL     1      -2.675  11.469  18.120  0.00  0.00    +0.000 A 
ENDROOT
BRANCH   1   8
ATOM      7  C   UNL     1      -3.537  13.321  21.204  0.00  0.00    +0.000 C 
ATOM      8  C   UNL     1      -3.074  12.249  20.539  0.00  0.00    +0.000 C 
BRANCH   7  12
ATOM      9  C   UNL     1      -1.922  15.084  24.776  0.00  0.00    +0.000 A 
ATOM     10  C   UNL     1      -3.151  14.428  24.783  0.00  0.00    +0.000 A 
ATOM     11  C   UNL     1      -3.637  13.815  23.624  0.00  0.00    +0.000 A 
ATOM     12  C   UNL     1      -2.915  13.874  22.422  0.00  0.00    +0.000 A 
ATOM     13  C   UNL     1      -1.670  14.516  22.433  0.00  0.00    +0.000 A 
ATOM     14  C   UNL     1      -1.180  15.126  23.596  0.00  0.00    +0.000 A 
BRANCH   9  16
ATOM     15  C   UNL     1      -0.473  16.586  25.881  0.00  0.00    +0.000 C 
ATOM     16  O   UNL     1      -1.573  15.687  25.952  0.00  0.00    +0.000 OA
ENDBRANCH   9  16
ENDBRANCH   7  12
ENDBRANCH   1   8
BRANCH   3  17
ATOM     17  O   UNL     1      -6.785  12.259  17.610  0.00  0.00    +0.000 OA
ATOM     18  C   UNL     1      -7.148  13.541  17.113  0.00  0.00    +0.000 C 
ENDBRANCH   3  17
BRANCH   5  19
ATOM     19  O   UNL     1      -2.470  10.822  15.817  0.00  0.00    +0.000 OA
ATOM     20  C   UNL     1      -3.134  10.254  14.687  0.00  0.00    +0.000 C 
ENDBRANCH   5  19
BRANCH   6  21
ATOM     21  C   UNL     1      -1.217  11.324  18.390  0.00  0.00    +0.000 C 
ATOM     22  C   UNL     1      -0.438  10.243  18.216  0.00  0.00    +0.000 C 
BRANCH  22  23
ATOM     23  C   UNL     1       1.018  10.335  18.545  0.00  0.00    +0.000 C 
ATOM     24  O   UNL     1       1.494  11.262  19.190  0.00  0.00    +0.000 OA
BRANCH  23  25
ATOM     25  C   UNL     1       1.872   9.251  17.986  0.00  0.00    +0.000 C 
ATOM     26  C   UNL     1       1.951   8.069  18.615  0.00  0.00    +0.000 C 
BRANCH  26  27
ATOM     27  C   UNL     1       2.913   7.034  18.208  0.00  0.00    +0.000 A 
ATOM     28  C   UNL     1       3.913   7.441  17.301  0.00  0.00    +0.000 A 
ATOM     29  C   UNL     1       4.872   6.545  16.841  0.00  0.00    +0.000 A 
ATOM     30  C   UNL     1       4.856   5.233  17.297  0.00  0.00    +0.000 A 
ATOM     31  C   UNL     1       3.868   4.788  18.188  0.00  0.00    +0.000 A 
ATOM     32  C   UNL     1       2.867   5.682  18.638  0.00  0.00    +0.000 A 
BRANCH  31  33
ATOM     33  O   UNL     1       4.038   3.461  18.501  0.00  0.00    +0.000 OA
ATOM     34  C   UNL     1       3.292   2.479  17.800  0.00  0.00    +0.000 C 
ENDBRANCH  31  33
BRANCH  32  35
ATOM     35  O   UNL     1       1.853   5.125  19.371  0.00  0.00    +0.000 OA
ATOM     36  C   UNL     1       1.957   5.021  20.781  0.00  0.00    +0.000 C 
ENDBRANCH  32  35
ENDBRANCH  26  27
ENDBRANCH  23  25
ENDBRANCH  22  23
ENDBRANCH   6  21
TORSDOF 11
ENDMDL
MODEL 5
REMARK VINA RESULT:      -7.5      4.580      9.004
REMARK  Name = 
REMARK  16 active torsions:
REMARK  status: ('A' for Active; 'I' for Inactive)
REMARK    1  A    between atoms: C_1  and  O_2
REMARK    2  A    between atoms: O_2  and  C_3
REMARK    3  A    between atoms: C_6  and  C_7
REMARK    4  A    between atoms: C_8  and  C_9
REMARK    5  A    between atoms: C_11  and  O_12
REMARK    6  A    between atoms: O_12  and  C_13
REMARK    7  A    between atoms: C_15  and  O_16
REMARK    8  A    between atoms: O_16  and  C_17
REMARK    9  A    between atoms: C_18  and  C_19
REMARK   10  A    between atoms: C_20  and  C_21
REMARK   11  A    between atoms: C_21  and  C_23
REMARK   12  A    between atoms: C_24  and  C_25
REMARK   13  A    between atoms: C_29  and  O_30
REMARK   14  A    between atoms: O_30  and  C_31
REMARK   15  A    between atoms: C_32  and  O_33
REMARK   16  A    between atoms: O_33  and  C_34
REMARK                            x       y       z     vdW  Elec       q    Type
REMARK                         _______ _______ _______ _____ _____    ______ ____
ROOT
ATOM      1  C   UNL     1       1.978   8.695  18.565  0.00  0.00    +0.000 A 
ATOM      2  C   UNL     1       2.842   8.147  17.597  0.00  0.00    +0.000 A 
ATOM      3  C   UNL     1       3.385   6.880  17.747  0.00  0.00    +0.000 A 
ATOM      4  C   UNL     1       3.068   6.150  18.886  0.00  0.00    +0.000 A 
ATOM      5  C   UNL     1       2.233   6.681  19.891  0.00  0.00    +0.000 A 
ATOM      6  C   UNL     1       1.651   7.967  19.737  0.00  0.00    +0.000 A 
ENDROOT
BRANCH   1   8
ATOM      7  C   UNL     1       2.216  11.143  18.520  0.00  0.00    +0.000 C 
ATOM      8  C   UNL     1       1.493  10.047  18.231  0.00  0.00    +0.000 C 
BRANCH   7  12
ATOM      9  C   UNL     1       0.772  15.183  18.775  0.00  0.00    +0.000 A 
ATOM     10  C   UNL     1       2.129  14.906  18.616  0.00  0.00    +0.000 A 
ATOM     11  C   UNL     1       2.575  13.588  18.483  0.00  0.00    +0.000 A 
ATOM     12  C   UNL     1       1.674  12.514  18.537  0.00  0.00    +0.000 A 
ATOM     13  C   UNL     1       0.310  12.806  18.674  0.00  0.00    +0.000 A 
ATOM     14  C   UNL     1      -0.138  14.128  18.802  0.00  0.00    +0.000 A 
BRANCH   9  16
ATOM     15  C   UNL     1      -0.537  17.018  18.070  0.00  0.00    +0.000 C 
ATOM     16  O   UNL     1       0.459  16.503  18.945  0.00  0.00    +0.000 OA
ENDBRANCH   9  16
ENDBRANCH   7  12
ENDBRANCH   1   8
BRANCH   3  17
ATOM     17  O   UNL     1       4.200   6.476  16.728  0.00  0.00    +0.000 OA
ATOM     18  C   UNL     1       4.945   5.280  16.928  0.00  0.00    +0.000 C 
ENDBRANCH   3  17
BRANCH   5  19
ATOM     19  O   UNL     1       1.953   5.973  21.040  0.00  0.00    +0.000 OA
ATOM     20  C   UNL     1       2.173   4.563  20.992  0.00  0.00    +0.000 C 
ENDBRANCH   5  19
BRANCH   6  21
ATOM     21  C   UNL     1       0.822   8.637  20.777  0.00  0.00    +0.000 C 
ATOM     22  C   UNL     1       1.230   9.354  21.838  0.00  0.00    +0.000 C 
BRANCH  22  23
ATOM     23  C   UNL     1       0.207   9.952  22.750  0.00  0.00    +0.000 C 
ATOM     24  O   UNL     1       0.101   9.630  23.927  0.00  0.00    +0.000 OA
BRANCH  23  25
ATOM     25  C   UNL     1      -0.721  10.930  22.119  0.00  0.00    +0.000 C 
ATOM     26  C   UNL     1      -1.661  11.536  22.860  0.00  0.00    +0.000 C 
BRANCH  26  27
ATOM     27  C   UNL     1      -2.712  12.368  22.256  0.00  0.00    +0.000 A 
ATOM     28  C   UNL     1      -2.683  12.477  20.850  0.00  0.00    +0.000 A 
ATOM     29  C   UNL     1      -3.624  13.243  20.170  0.00  0.00    +0.000 A 
ATOM     30  C   UNL     1      -4.618  13.897  20.886  0.00  0.00    +0.000 A 
ATOM     31  C   UNL     1      -4.670  13.824  22.286  0.00  0.00    +0.000 A 
ATOM     32  C   UNL     1      -3.699  13.074  22.991  0.00  0.00    +0.000 A 
BRANCH  31  33
ATOM     33  O   UNL     1      -5.727  14.547  22.785  0.00  0.00    +0.000 OA
ATOM     34  C   UNL     1      -5.563  15.932  23.042  0.00  0.00    +0.000 C 
ENDBRANCH  31  33
BRANCH  32  35
ATOM     35  O   UNL     1      -3.727  13.192  24.355  0.00  0.00    +0.000 OA
ATOM     36  C   UNL     1      -4.595  12.382  25.131  0.00  0.00    +0.000 C 
ENDBRANCH  32  35
ENDBRANCH  26  27
ENDBRANCH  23  25
ENDBRANCH  22  23
ENDBRANCH   6  21
TORSDOF 11
ENDMDL
MODEL 6
REMARK VINA RESULT:      -7.4      4.485      8.854
REMARK  Name = 
REMARK  16 active torsions:
REMARK  status: ('A' for Active; 'I' for Inactive)
REMARK    1  A    between atoms: C_1  and  O_2
REMARK    2  A    between atoms: O_2  and  C_3
REMARK    3  A    between atoms: C_6  and  C_7
REMARK    4  A    between atoms: C_8  and  C_9
REMARK    5  A    between atoms: C_11  and  O_12
REMARK    6  A    between atoms: O_12  and  C_13
REMARK    7  A    between atoms: C_15  and  O_16
REMARK    8  A    between atoms: O_16  and  C_17
REMARK    9  A    between atoms: C_18  and  C_19
REMARK   10  A    between atoms: C_20  and  C_21
REMARK   11  A    between atoms: C_21  and  C_23
REMARK   12  A    between atoms: C_24  and  C_25
REMARK   13  A    between atoms: C_29  and  O_30
REMARK   14  A    between atoms: O_30  and  C_31
REMARK   15  A    between atoms: C_32  and  O_33
REMARK   16  A    between atoms: O_33  and  C_34
REMARK                            x       y       z     vdW  Elec       q    Type
REMARK                         _______ _______ _______ _____ _____    ______ ____
ROOT
ATOM      1  C   UNL     1       2.019   8.617  18.580  0.00  0.00    +0.000 A 
ATOM      2  C   UNL     1       2.910   8.094  17.623  0.00  0.00    +0.000 A 
ATOM      3  C   UNL     1       3.462   6.829  17.764  0.00  0.00    +0.000 A 
ATOM      4  C   UNL     1       3.125   6.076  18.881  0.00  0.00    +0.000 A 
ATOM      5  C   UNL     1       2.261   6.581  19.875  0.00  0.00    +0.000 A 
ATOM      6  C   UNL     1       1.671   7.865  19.730  0.00  0.00    +0.000 A 
ENDROOT
BRANCH   1   8
ATOM      7  C   UNL     1       2.104  11.066  18.782  0.00  0.00    +0.000 C 
ATOM      8  C   UNL     1       1.529   9.970  18.258  0.00  0.00    +0.000 C 
BRANCH   7  12
ATOM      9  C   UNL     1       0.201  14.915  18.585  0.00  0.00    +0.000 A 
ATOM     10  C   UNL     1      -0.542  13.736  18.548  0.00  0.00    +0.000 A 
ATOM     11  C   UNL     1       0.090  12.494  18.665  0.00  0.00    +0.000 A 
ATOM     12  C   UNL     1       1.484  12.404  18.791  0.00  0.00    +0.000 A 
ATOM     13  C   UNL     1       2.218  13.597  18.851  0.00  0.00    +0.000 A 
ATOM     14  C   UNL     1       1.584  14.842  18.739  0.00  0.00    +0.000 A 
BRANCH   9  16
ATOM     15  C   UNL     1      -0.012  17.214  19.081  0.00  0.00    +0.000 C 
ATOM     16  O   UNL     1      -0.518  16.065  18.412  0.00  0.00    +0.000 OA
ENDBRANCH   9  16
ENDBRANCH   7  12
ENDBRANCH   1   8
BRANCH   3  17
ATOM     17  O   UNL     1       4.305   6.450  16.757  0.00  0.00    +0.000 OA
ATOM     18  C   UNL     1       5.697   6.661  16.962  0.00  0.00    +0.000 C 
ENDBRANCH   3  17
BRANCH   5  19
ATOM     19  O   UNL     1       1.961   5.850  21.004  0.00  0.00    +0.000 OA
ATOM     20  C   UNL     1       2.234   4.450  20.952  0.00  0.00    +0.000 C 
ENDBRANCH   5  19
BRANCH   6  21
ATOM     21  C   UNL     1       0.811   8.508  20.762  0.00  0.00    +0.000 C 
ATOM     22  C   UNL     1       1.183   9.283  21.796  0.00  0.00    +0.000 C 
BRANCH  22  23
ATOM     23  C   UNL     1       0.132   9.837  22.704  0.00  0.00    +0.000 C 
ATOM     24  O   UNL     1      -0.236   9.260  23.720  0.00  0.00    +0.000 OA
BRANCH  23  25
ATOM     25  C   UNL     1      -0.484  11.118  22.265  0.00  0.00    +0.000 C 
ATOM     26  C   UNL     1      -1.348  11.758  23.068  0.00  0.00    +0.000 C 
BRANCH  26  27
ATOM     27  C   UNL     1      -2.118  12.924  22.613  0.00  0.00    +0.000 A 
ATOM     28  C   UNL     1      -1.369  13.983  22.060  0.00  0.00    +0.000 A 
ATOM     29  C   UNL     1      -1.992  15.140  21.602  0.00  0.00    +0.000 A 
ATOM     30  C   UNL     1      -3.374  15.246  21.675  0.00  0.00    +0.000 A 
ATOM     31  C   UNL     1      -4.151  14.220  22.232  0.00  0.00    +0.000 A 
ATOM     32  C   UNL     1      -3.527  13.052  22.731  0.00  0.00    +0.000 A 
BRANCH  31  33
ATOM     33  O   UNL     1      -5.489  14.536  22.209  0.00  0.00    +0.000 OA
ATOM     34  C   UNL     1      -6.304  14.031  21.164  0.00  0.00    +0.000 C 
ENDBRANCH  31  33
BRANCH  32  35
ATOM     35  O   UNL     1      -4.341  12.179  23.404  0.00  0.00    +0.000 OA
ATOM     36  C   UNL     1      -4.589  12.348  24.789  0.00  0.00    +0.000 C 
ENDBRANCH  32  35
ENDBRANCH  26  27
ENDBRANCH  23  25
ENDBRANCH  22  23
ENDBRANCH   6  21
TORSDOF 11
ENDMDL
MODEL 7
REMARK VINA RESULT:      -7.4      3.839      5.320
REMARK  Name = 
REMARK  16 active torsions:
REMARK  status: ('A' for Active; 'I' for Inactive)
REMARK    1  A    between atoms: C_1  and  O_2
REMARK    2  A    between atoms: O_2  and  C_3
REMARK    3  A    between atoms: C_6  and  C_7
REMARK    4  A    between atoms: C_8  and  C_9
REMARK    5  A    between atoms: C_11  and  O_12
REMARK    6  A    between atoms: O_12  and  C_13
REMARK    7  A    between atoms: C_15  and  O_16
REMARK    8  A    between atoms: O_16  and  C_17
REMARK    9  A    between atoms: C_18  and  C_19
REMARK   10  A    between atoms: C_20  and  C_21
REMARK   11  A    between atoms: C_21  and  C_23
REMARK   12  A    between atoms: C_24  and  C_25
REMARK   13  A    between atoms: C_29  and  O_30
REMARK   14  A    between atoms: O_30  and  C_31
REMARK   15  A    between atoms: C_32  and  O_33
REMARK   16  A    between atoms: O_33  and  C_34
REMARK                            x       y       z     vdW  Elec       q    Type
REMARK                         _______ _______ _______ _____ _____    ______ ____
ROOT
ATOM      1  C   UNL     1       5.911   3.952  15.100  0.00  0.00    +0.000 A 
ATOM      2  C   UNL     1       5.400   3.312  13.955  0.00  0.00    +0.000 A 
ATOM      3  C   UNL     1       5.969   3.502  12.705  0.00  0.00    +0.000 A 
ATOM      4  C   UNL     1       7.063   4.351  12.593  0.00  0.00    +0.000 A 
ATOM      5  C   UNL     1       7.580   5.034  13.714  0.00  0.00    +0.000 A 
ATOM      6  C   UNL     1       7.021   4.828  15.003  0.00  0.00    +0.000 A 
ENDROOT
BRANCH   1   8
ATOM      7  C   UNL     1       3.889   3.949  16.500  0.00  0.00    +0.000 C 
ATOM      8  C   UNL     1       5.183   3.624  16.340  0.00  0.00    +0.000 C 
BRANCH   7  12
ATOM      9  C   UNL     1       2.066   3.911  20.392  0.00  0.00    +0.000 A 
ATOM     10  C   UNL     1       3.230   4.634  20.144  0.00  0.00    +0.000 A 
ATOM     11  C   UNL     1       3.781   4.678  18.859  0.00  0.00    +0.000 A 
ATOM     12  C   UNL     1       3.193   3.971  17.800  0.00  0.00    +0.000 A 
ATOM     13  C   UNL     1       2.009   3.265  18.056  0.00  0.00    +0.000 A 
ATOM     14  C   UNL     1       1.454   3.226  19.343  0.00  0.00    +0.000 A 
BRANCH   9  16
ATOM     15  C   UNL     1       1.299   2.625  22.218  0.00  0.00    +0.000 C 
ATOM     16  O   UNL     1       1.648   3.900  21.694  0.00  0.00    +0.000 OA
ENDBRANCH   9  16
ENDBRANCH   7  12
ENDBRANCH   1   8
BRANCH   3  17
ATOM     17  O   UNL     1       5.373   2.813  11.686  0.00  0.00    +0.000 OA
ATOM     18  C   UNL     1       4.049   3.192  11.334  0.00  0.00    +0.000 C 
ENDBRANCH   3  17
BRANCH   5  19
ATOM     19  O   UNL     1       8.639   5.909  13.595  0.00  0.00    +0.000 OA
ATOM     20  C   UNL     1       8.935   6.380  12.280  0.00  0.00    +0.000 C 
ENDBRANCH   5  19
BRANCH   6  21
ATOM     21  C   UNL     1       7.452   5.563  16.225  0.00  0.00    +0.000 C 
ATOM     22  C   UNL     1       7.113   6.802  16.619  0.00  0.00    +0.000 C 
BRANCH  22  23
ATOM     23  C   UNL     1       7.661   7.333  17.905  0.00  0.00    +0.000 C 
ATOM     24  O   UNL     1       7.695   6.668  18.934  0.00  0.00    +0.000 OA
BRANCH  23  25
ATOM     25  C   UNL     1       8.115   8.749  17.873  0.00  0.00    +0.000 C 
ATOM     26  C   UNL     1       8.982   9.197  18.794  0.00  0.00    +0.000 C 
BRANCH  26  27
ATOM     27  C   UNL     1       9.321  10.622  18.916  0.00  0.00    +0.000 A 
ATOM     28  C   UNL     1       9.710  11.270  17.726  0.00  0.00    +0.000 A 
ATOM     29  C   UNL     1      10.060  12.616  17.722  0.00  0.00    +0.000 A 
ATOM     30  C   UNL     1      10.009  13.338  18.908  0.00  0.00    +0.000 A 
ATOM     31  C   UNL     1       9.642  12.725  20.114  0.00  0.00    +0.000 A 
ATOM     32  C   UNL     1       9.315  11.348  20.136  0.00  0.00    +0.000 A 
BRANCH  31  33
ATOM     33  O   UNL     1       9.664  13.619  21.157  0.00  0.00    +0.000 OA
ATOM     34  C   UNL     1      10.552  14.723  21.108  0.00  0.00    +0.000 C 
ENDBRANCH  31  33
BRANCH  32  35
ATOM     35  O   UNL     1       9.130  10.796  21.376  0.00  0.00    +0.000 OA
ATOM     36  C   UNL     1       8.279  11.421  22.323  0.00  0.00    +0.000 C 
ENDBRANCH  32  35
ENDBRANCH  26  27
ENDBRANCH  23  25
ENDBRANCH  22  23
ENDBRANCH   6  21
TORSDOF 11
ENDMDL
MODEL 8
REMARK VINA RESULT:      -7.4      4.303      8.582
REMARK  Name = 
REMARK  16 active torsions:
REMARK  status: ('A' for Active; 'I' for Inactive)
REMARK    1  A    between atoms: C_1  and  O_2
REMARK    2  A    between atoms: O_2  and  C_3
REMARK    3  A    between atoms: C_6  and  C_7
REMARK    4  A    between atoms: C_8  and  C_9
REMARK    5  A    between atoms: C_11  and  O_12
REMARK    6  A    between atoms: O_12  and  C_13
REMARK    7  A    between atoms: C_15  and  O_16
REMARK    8  A    between atoms: O_16  and  C_17
REMARK    9  A    between atoms: C_18  and  C_19
REMARK   10  A    between atoms: C_20  and  C_21
REMARK   11  A    between atoms: C_21  and  C_23
REMARK   12  A    between atoms: C_24  and  C_25
REMARK   13  A    between atoms: C_29  and  O_30
REMARK   14  A    between atoms: O_30  and  C_31
REMARK   15  A    between atoms: C_32  and  O_33
REMARK   16  A    between atoms: O_33  and  C_34
REMARK                            x       y       z     vdW  Elec       q    Type
REMARK                         _______ _______ _______ _____ _____    ______ ____
ROOT
ATOM      1  C   UNL     1       1.969   8.652  18.816  0.00  0.00    +0.000 A 
ATOM      2  C   UNL     1       2.798   8.224  17.761  0.00  0.00    +0.000 A 
ATOM      3  C   UNL     1       3.387   6.969  17.767  0.00  0.00    +0.000 A 
ATOM      4  C   UNL     1       3.152   6.128  18.848  0.00  0.00    +0.000 A 
ATOM      5  C   UNL     1       2.354   6.537  19.937  0.00  0.00    +0.000 A 
ATOM      6  C   UNL     1       1.726   7.810  19.931  0.00  0.00    +0.000 A 
ENDROOT
BRANCH   1   8
ATOM      7  C   UNL     1       2.209  11.032  18.248  0.00  0.00    +0.000 C 
ATOM      8  C   UNL     1       1.426  10.010  18.632  0.00  0.00    +0.000 C 
BRANCH   7  12
ATOM      9  C   UNL     1       1.278  15.192  18.799  0.00  0.00    +0.000 A 
ATOM     10  C   UNL     1       2.578  14.770  18.530  0.00  0.00    +0.000 A 
ATOM     11  C   UNL     1       2.854  13.418  18.302  0.00  0.00    +0.000 A 
ATOM     12  C   UNL     1       1.837  12.454  18.370  0.00  0.00    +0.000 A 
ATOM     13  C   UNL     1       0.530  12.893  18.619  0.00  0.00    +0.000 A 
ATOM     14  C   UNL     1       0.252  14.249  18.843  0.00  0.00    +0.000 A 
BRANCH   9  16
ATOM     15  C   UNL     1       2.076  17.084  19.966  0.00  0.00    +0.000 C 
ATOM     16  O   UNL     1       1.136  16.528  19.054  0.00  0.00    +0.000 OA
ENDBRANCH   9  16
ENDBRANCH   7  12
ENDBRANCH   1   8
BRANCH   3  17
ATOM     17  O   UNL     1       4.160   6.686  16.676  0.00  0.00    +0.000 OA
ATOM     18  C   UNL     1       5.570   6.689  16.862  0.00  0.00    +0.000 C 
ENDBRANCH   3  17
BRANCH   5  19
ATOM     19  O   UNL     1       2.157   5.718  21.029  0.00  0.00    +0.000 OA
ATOM     20  C   UNL     1       2.303   4.315  20.812  0.00  0.00    +0.000 C 
ENDBRANCH   5  19
BRANCH   6  21
ATOM     21  C   UNL     1       0.932   8.354  21.068  0.00  0.00    +0.000 C 
ATOM     22  C   UNL     1       1.314   9.233  22.009  0.00  0.00    +0.000 C 
BRANCH  22  23
ATOM     23  C   UNL     1       0.331   9.651  23.056  0.00  0.00    +0.000 C 
ATOM     24  O   UNL     1       0.485   9.399  24.245  0.00  0.00    +0.000 OA
BRANCH  23  25
ATOM     25  C   UNL     1      -0.884  10.348  22.554  0.00  0.00    +0.000 C 
ATOM     26  C   UNL     1      -0.791  11.599  22.079  0.00  0.00    +0.000 C 
BRANCH  26  27
ATOM     27  C   UNL     1      -1.980  12.394  21.742  0.00  0.00    +0.000 A 
ATOM     28  C   UNL     1      -2.495  12.215  20.441  0.00  0.00    +0.000 A 
ATOM     29  C   UNL     1      -3.613  12.921  20.008  0.00  0.00    +0.000 A 
ATOM     30  C   UNL     1      -4.243  13.802  20.877  0.00  0.00    +0.000 A 
ATOM     31  C   UNL     1      -3.752  14.017  22.173  0.00  0.00    +0.000 A 
ATOM     32  C   UNL     1      -2.595  13.330  22.614  0.00  0.00    +0.000 A 
BRANCH  31  33
ATOM     33  O   UNL     1      -4.521  14.929  22.855  0.00  0.00    +0.000 OA
ATOM     34  C   UNL     1      -5.639  14.476  23.601  0.00  0.00    +0.000 C 
ENDBRANCH  31  33
BRANCH  32  35
ATOM     35  O   UNL     1      -2.092  13.722  23.826  0.00  0.00    +0.000 OA
ATOM     36  C   UNL     1      -1.181  14.805  23.911  0.00  0.00    +0.000 C 
ENDBRANCH  32  35
ENDBRANCH  26  27
ENDBRANCH  23  25
ENDBRANCH  22  23
ENDBRANCH   6  21
TORSDOF 11
ENDMDL
MODEL 9
REMARK VINA RESULT:      -7.3      4.550      9.167
REMARK  Name = 
REMARK  16 active torsions:
REMARK  status: ('A' for Active; 'I' for Inactive)
REMARK    1  A    between atoms: C_1  and  O_2
REMARK    2  A    between atoms: O_2  and  C_3
REMARK    3  A    between atoms: C_6  and  C_7
REMARK    4  A    between atoms: C_8  and  C_9
REMARK    5  A    between atoms: C_11  and  O_12
REMARK    6  A    between atoms: O_12  and  C_13
REMARK    7  A    between atoms: C_15  and  O_16
REMARK    8  A    between atoms: O_16  and  C_17
REMARK    9  A    between atoms: C_18  and  C_19
REMARK   10  A    between atoms: C_20  and  C_21
REMARK   11  A    between atoms: C_21  and  C_23
REMARK   12  A    between atoms: C_24  and  C_25
REMARK   13  A    between atoms: C_29  and  O_30
REMARK   14  A    between atoms: O_30  and  C_31
REMARK   15  A    between atoms: C_32  and  O_33
REMARK   16  A    between atoms: O_33  and  C_34
REMARK                            x       y       z     vdW  Elec       q    Type
REMARK                         _______ _______ _______ _____ _____    ______ ____
ROOT
ATOM      1  C   UNL     1       1.930   8.749  18.680  0.00  0.00    +0.000 A 
ATOM      2  C   UNL     1       2.809   8.278  17.686  0.00  0.00    +0.000 A 
ATOM      3  C   UNL     1       3.414   7.035  17.785  0.00  0.00    +0.000 A 
ATOM      4  C   UNL     1       3.143   6.249  18.898  0.00  0.00    +0.000 A 
ATOM      5  C   UNL     1       2.294   6.703  19.929  0.00  0.00    +0.000 A 
ATOM      6  C   UNL     1       1.650   7.964  19.827  0.00  0.00    +0.000 A 
ENDROOT
BRANCH   1   8
ATOM      7  C   UNL     1       2.095  11.202  18.622  0.00  0.00    +0.000 C 
ATOM      8  C   UNL     1       1.378  10.087  18.400  0.00  0.00    +0.000 C 
BRANCH   7  12
ATOM      9  C   UNL     1       0.289  15.103  18.632  0.00  0.00    +0.000 A 
ATOM     10  C   UNL     1      -0.483  13.946  18.712  0.00  0.00    +0.000 A 
ATOM     11  C   UNL     1       0.123  12.687  18.759  0.00  0.00    +0.000 A 
ATOM     12  C   UNL     1       1.519  12.558  18.697  0.00  0.00    +0.000 A 
ATOM     13  C   UNL     1       2.286  13.729  18.641  0.00  0.00    +0.000 A 
ATOM     14  C   UNL     1       1.679  14.991  18.598  0.00  0.00    +0.000 A 
BRANCH   9  16
ATOM     15  C   UNL     1      -1.030  16.715  19.745  0.00  0.00    +0.000 C 
ATOM     16  O   UNL     1      -0.414  16.272  18.541  0.00  0.00    +0.000 OA
ENDBRANCH   9  16
ENDBRANCH   7  12
ENDBRANCH   1   8
BRANCH   3  17
ATOM     17  O   UNL     1       4.237   6.707  16.744  0.00  0.00    +0.000 OA
ATOM     18  C   UNL     1       5.473   6.081  17.067  0.00  0.00    +0.000 C 
ENDBRANCH   3  17
BRANCH   5  19
ATOM     19  O   UNL     1       2.060   5.940  21.054  0.00  0.00    +0.000 OA
ATOM     20  C   UNL     1       1.849   4.543  20.848  0.00  0.00    +0.000 C 
ENDBRANCH   5  19
BRANCH   6  21
ATOM     21  C   UNL     1       0.800   8.555  20.899  0.00  0.00    +0.000 C 
ATOM     22  C   UNL     1       1.102   9.548  21.752  0.00  0.00    +0.000 C 
BRANCH  22  23
ATOM     23  C   UNL     1       0.075   9.991  22.745  0.00  0.00    +0.000 C 
ATOM     24  O   UNL     1       0.115   9.671  23.926  0.00  0.00    +0.000 OA
BRANCH  23  25
ATOM     25  C   UNL     1      -1.041  10.807  22.193  0.00  0.00    +0.000 C 
ATOM     26  C   UNL     1      -1.583  11.788  22.931  0.00  0.00    +0.000 C 
BRANCH  26  27
ATOM     27  C   UNL     1      -2.798  12.500  22.508  0.00  0.00    +0.000 A 
ATOM     28  C   UNL     1      -3.044  12.532  21.120  0.00  0.00    +0.000 A 
ATOM     29  C   UNL     1      -4.160  13.183  20.603  0.00  0.00    +0.000 A 
ATOM     30  C   UNL     1      -5.054  13.796  21.471  0.00  0.00    +0.000 A 
ATOM     31  C   UNL     1      -4.835  13.798  22.856  0.00  0.00    +0.000 A 
ATOM     32  C   UNL     1      -3.687  13.167  23.390  0.00  0.00    +0.000 A 
BRANCH  31  33
ATOM     33  O   UNL     1      -5.837  14.463  23.520  0.00  0.00    +0.000 OA
ATOM     34  C   UNL     1      -6.958  14.940  22.793  0.00  0.00    +0.000 C 
ENDBRANCH  31  33
BRANCH  32  35
ATOM     35  O   UNL     1      -3.467  13.358  24.729  0.00  0.00    +0.000 OA
ATOM     36  C   UNL     1      -2.878  14.560  25.197  0.00  0.00    +0.000 C 
ENDBRANCH  32  35
ENDBRANCH  26  27
ENDBRANCH  23  25
ENDBRANCH  22  23
ENDBRANCH   6  21
TORSDOF 11
ENDMDL
