MODEL 1
REMARK VINA RESULT:      -6.7      0.000      0.000
REMARK  Name = 
REMARK  6 active torsions:
REMARK  status: ('A' for Active; 'I' for Inactive)
REMARK    1  A    between atoms: C_1  and  O_2
REMARK    2  A    between atoms: O_2  and  C_3
REMARK    3  A    between atoms: C_3  and  C_4
REMARK    4  A    between atoms: C_4  and  N_5
REMARK    5  A    between atoms: C_14  and  C_16
REMARK    6  A    between atoms: C_16  and  C_17
REMARK                            x       y       z     vdW  Elec       q    Type
REMARK                         _______ _______ _______ _____ _____    ______ ____
ROOT
ATOM      1  N   UNL     1       4.287   3.542  17.573  0.00  0.00    +0.000 N 
ATOM      2  C   UNL     1       4.726   3.609  18.890  0.00  0.00    +0.000 C 
ATOM      3  O   UNL     1       5.883   3.850  19.219  0.00  0.00    +0.000 OA
ATOM      4  C   UNL     1       3.607   3.472  19.906  0.00  0.00    +0.000 C 
ATOM      5  C   UNL     1       2.713   2.257  19.627  0.00  0.00    +0.000 C 
ATOM      6  C   UNL     1       2.490   2.006  18.141  0.00  0.00    +0.000 C 
ATOM      7  C   UNL     1       2.879   3.227  17.306  0.00  0.00    +0.000 C 
ATOM      8  C   UNL     1       1.934   4.415  17.599  0.00  0.00    +0.000 C 
ATOM      9  N   UNL     1       2.406   5.349  18.631  0.00  0.00    +0.000 N 
ATOM     10  C   UNL     1       2.174   6.707  18.391  0.00  0.00    +0.000 C 
ATOM     11  O   UNL     1       1.606   7.081  17.358  0.00  0.00    +0.000 OA
ATOM     12  C   UNL     1       2.839   4.806  19.928  0.00  0.00    +0.000 C 
ENDROOT
BRANCH   1  13
ATOM     13  C   UNL     1       5.132   4.061  16.503  0.00  0.00    +0.000 C 
BRANCH  13  14
ATOM     14  C   UNL     1       5.180   5.586  16.466  0.00  0.00    +0.000 C 
BRANCH  14  16
ATOM     15  C   UNL     1       6.920   4.894  15.035  0.00  0.00    +0.000 C 
ATOM     16  O   UNL     1       6.321   5.993  15.709  0.00  0.00    +0.000 OA
ENDBRANCH  14  16
ENDBRANCH  13  14
ENDBRANCH   1  13
BRANCH  10  17
ATOM     17  C   UNL     1       2.668   7.752  19.388  0.00  0.00    +0.000 C 
BRANCH  17  18
ATOM     18  C   UNL     1       1.576   8.609  19.980  0.00  0.00    +0.000 A 
ATOM     19  C   UNL     1       0.881   8.142  21.106  0.00  0.00    +0.000 A 
ATOM     20  F   UNL     1       1.158   6.935  21.613  0.00  0.00    +0.000 F 
ATOM     21  C   UNL     1      -0.130   8.881  21.716  0.00  0.00    +0.000 A 
ATOM     22  C   UNL     1      -0.485  10.121  21.199  0.00  0.00    +0.000 A 
ATOM     23  C   UNL     1       0.160  10.595  20.059  0.00  0.00    +0.000 A 
ATOM     24  C   UNL     1       1.171   9.842  19.445  0.00  0.00    +0.000 A 
ATOM     25 CL   UNL     1       1.842  10.493  17.993  0.00  0.00    +0.000 Cl
ENDBRANCH  17  18
ENDBRANCH  10  17
TORSDOF 5
ENDMDL
MODEL 2
REMARK VINA RESULT:      -6.4      2.511      3.676
REMARK  Name = 
REMARK  6 active torsions:
REMARK  status: ('A' for Active; 'I' for Inactive)
REMARK    1  A    between atoms: C_1  and  O_2
REMARK    2  A    between atoms: O_2  and  C_3
REMARK    3  A    between atoms: C_3  and  C_4
REMARK    4  A    between atoms: C_4  and  N_5
REMARK    5  A    between atoms: C_14  and  C_16
REMARK    6  A    between atoms: C_16  and  C_17
REMARK                            x       y       z     vdW  Elec       q    Type
REMARK                         _______ _______ _______ _____ _____    ______ ____
ROOT
ATOM      1  N   UNL     1       3.188   2.630  19.963  0.00  0.00    +0.000 N 
ATOM      2  C   UNL     1       2.318   3.002  20.981  0.00  0.00    +0.000 C 
ATOM      3  O   UNL     1       2.612   3.004  22.171  0.00  0.00    +0.000 OA
ATOM      4  C   UNL     1       0.987   3.527  20.474  0.00  0.00    +0.000 C 
ATOM      5  C   UNL     1       0.346   2.589  19.444  0.00  0.00    +0.000 C 
ATOM      6  C   UNL     1       1.362   1.935  18.516  0.00  0.00    +0.000 C 
ATOM      7  C   UNL     1       2.711   2.652  18.575  0.00  0.00    +0.000 C 
ATOM      8  C   UNL     1       2.597   4.083  18.003  0.00  0.00    +0.000 C 
ATOM      9  N   UNL     1       2.337   5.134  18.999  0.00  0.00    +0.000 N 
ATOM     10  C   UNL     1       3.014   6.344  18.812  0.00  0.00    +0.000 C 
ATOM     11  O   UNL     1       3.786   6.500  17.859  0.00  0.00    +0.000 OA
ATOM     12  C   UNL     1       1.225   4.951  19.943  0.00  0.00    +0.000 C 
ENDROOT
BRANCH   1  13
ATOM     13  C   UNL     1       4.614   2.509  20.241  0.00  0.00    +0.000 C 
BRANCH  13  14
ATOM     14  C   UNL     1       5.026   1.097  20.649  0.00  0.00    +0.000 C 
BRANCH  14  16
ATOM     15  C   UNL     1       6.308  -0.106  22.218  0.00  0.00    +0.000 C 
ATOM     16  O   UNL     1       5.823   1.173  21.831  0.00  0.00    +0.000 OA
ENDBRANCH  14  16
ENDBRANCH  13  14
ENDBRANCH   1  13
BRANCH  10  17
ATOM     17  C   UNL     1       2.839   7.477  19.820  0.00  0.00    +0.000 C 
BRANCH  17  18
ATOM     18  C   UNL     1       1.726   8.440  19.484  0.00  0.00    +0.000 A 
ATOM     19  C   UNL     1       1.602   8.902  18.165  0.00  0.00    +0.000 A 
ATOM     20  F   UNL     1       2.487   8.523  17.235  0.00  0.00    +0.000 F 
ATOM     21  C   UNL     1       0.595   9.782  17.776  0.00  0.00    +0.000 A 
ATOM     22  C   UNL     1      -0.322  10.238  18.715  0.00  0.00    +0.000 A 
ATOM     23  C   UNL     1      -0.201   9.830  20.041  0.00  0.00    +0.000 A 
ATOM     24  C   UNL     1       0.821   8.951  20.427  0.00  0.00    +0.000 A 
ATOM     25 CL   UNL     1       0.919   8.577  22.111  0.00  0.00    +0.000 Cl
ENDBRANCH  17  18
ENDBRANCH  10  17
TORSDOF 5
ENDMDL
MODEL 3
REMARK VINA RESULT:      -6.3      1.651      1.981
REMARK  Name = 
REMARK  6 active torsions:
REMARK  status: ('A' for Active; 'I' for Inactive)
REMARK    1  A    between atoms: C_1  and  O_2
REMARK    2  A    between atoms: O_2  and  C_3
REMARK    3  A    between atoms: C_3  and  C_4
REMARK    4  A    between atoms: C_4  and  N_5
REMARK    5  A    between atoms: C_14  and  C_16
REMARK    6  A    between atoms: C_16  and  C_17
REMARK                            x       y       z     vdW  Elec       q    Type
REMARK                         _______ _______ _______ _____ _____    ______ ____
ROOT
ATOM      1  N   UNL     1       4.553   3.926  17.582  0.00  0.00    +0.000 N 
ATOM      2  C   UNL     1       4.962   3.995  18.909  0.00  0.00    +0.000 C 
ATOM      3  O   UNL     1       6.072   4.374  19.268  0.00  0.00    +0.000 OA
ATOM      4  C   UNL     1       3.858   3.669  19.897  0.00  0.00    +0.000 C 
ATOM      5  C   UNL     1       3.139   2.358  19.555  0.00  0.00    +0.000 C 
ATOM      6  C   UNL     1       2.970   2.142  18.055  0.00  0.00    +0.000 C 
ATOM      7  C   UNL     1       3.203   3.438  17.277  0.00  0.00    +0.000 C 
ATOM      8  C   UNL     1       2.104   4.476  17.599  0.00  0.00    +0.000 C 
ATOM      9  N   UNL     1       2.434   5.420  18.677  0.00  0.00    +0.000 N 
ATOM     10  C   UNL     1       2.025   6.744  18.486  0.00  0.00    +0.000 C 
ATOM     11  O   UNL     1       1.426   7.082  17.460  0.00  0.00    +0.000 OA
ATOM     12  C   UNL     1       2.919   4.886  19.958  0.00  0.00    +0.000 C 
ENDROOT
BRANCH   1  13
ATOM     13  C   UNL     1       5.335   4.597  16.550  0.00  0.00    +0.000 C 
BRANCH  13  14
ATOM     14  C   UNL     1       5.342   6.116  16.699  0.00  0.00    +0.000 C 
BRANCH  14  16
ATOM     15  C   UNL     1       7.262   7.218  17.508  0.00  0.00    +0.000 C 
ATOM     16  O   UNL     1       6.648   6.603  16.383  0.00  0.00    +0.000 OA
ENDBRANCH  14  16
ENDBRANCH  13  14
ENDBRANCH   1  13
BRANCH  10  17
ATOM     17  C   UNL     1       2.363   7.803  19.533  0.00  0.00    +0.000 C 
BRANCH  17  18
ATOM     18  C   UNL     1       1.423   8.984  19.546  0.00  0.00    +0.000 A 
ATOM     19  C   UNL     1       1.604  10.009  18.604  0.00  0.00    +0.000 A 
ATOM     20  F   UNL     1       2.625   9.952  17.740  0.00  0.00    +0.000 F 
ATOM     21  C   UNL     1       0.770  11.122  18.546  0.00  0.00    +0.000 A 
ATOM     22  C   UNL     1      -0.277  11.248  19.451  0.00  0.00    +0.000 A 
ATOM     23  C   UNL     1      -0.459  10.267  20.423  0.00  0.00    +0.000 A 
ATOM     24  C   UNL     1       0.390   9.152  20.482  0.00  0.00    +0.000 A 
ATOM     25 CL   UNL     1       0.117   8.044  21.778  0.00  0.00    +0.000 Cl
ENDBRANCH  17  18
ENDBRANCH  10  17
TORSDOF 5
ENDMDL
MODEL 4
REMARK VINA RESULT:      -6.3      1.740      2.085
REMARK  Name = 
REMARK  6 active torsions:
REMARK  status: ('A' for Active; 'I' for Inactive)
REMARK    1  A    between atoms: C_1  and  O_2
REMARK    2  A    between atoms: O_2  and  C_3
REMARK    3  A    between atoms: C_3  and  C_4
REMARK    4  A    between atoms: C_4  and  N_5
REMARK    5  A    between atoms: C_14  and  C_16
REMARK    6  A    between atoms: C_16  and  C_17
REMARK                            x       y       z     vdW  Elec       q    Type
REMARK                         _______ _______ _______ _____ _____    ______ ____
ROOT
ATOM      1  N   UNL     1       5.010   4.671  17.853  0.00  0.00    +0.000 N 
ATOM      2  C   UNL     1       5.232   4.665  19.225  0.00  0.00    +0.000 C 
ATOM      3  O   UNL     1       6.236   5.121  19.763  0.00  0.00    +0.000 OA
ATOM      4  C   UNL     1       4.052   4.142  20.024  0.00  0.00    +0.000 C 
ATOM      5  C   UNL     1       3.535   2.802  19.489  0.00  0.00    +0.000 C 
ATOM      6  C   UNL     1       3.589   2.702  17.969  0.00  0.00    +0.000 C 
ATOM      7  C   UNL     1       3.775   4.078  17.328  0.00  0.00    +0.000 C 
ATOM      8  C   UNL     1       2.534   4.967  17.569  0.00  0.00    +0.000 C 
ATOM      9  N   UNL     1       2.612   5.842  18.748  0.00  0.00    +0.000 N 
ATOM     10  C   UNL     1       2.086   7.129  18.600  0.00  0.00    +0.000 C 
ATOM     11  O   UNL     1       1.592   7.494  17.527  0.00  0.00    +0.000 OA
ATOM     12  C   UNL     1       2.982   5.249  20.042  0.00  0.00    +0.000 C 
ENDROOT
BRANCH   1  13
ATOM     13  C   UNL     1       5.840   5.506  16.992  0.00  0.00    +0.000 C 
BRANCH  13  14
ATOM     14  C   UNL     1       6.979   4.734  16.329  0.00  0.00    +0.000 C 
BRANCH  14  16
ATOM     15  C   UNL     1       7.014   4.792  13.973  0.00  0.00    +0.000 C 
ATOM     16  O   UNL     1       7.406   5.451  15.170  0.00  0.00    +0.000 OA
ENDBRANCH  14  16
ENDBRANCH  13  14
ENDBRANCH   1  13
BRANCH  10  17
ATOM     17  C   UNL     1       2.163   8.121  19.758  0.00  0.00    +0.000 C 
BRANCH  17  18
ATOM     18  C   UNL     1       1.194   9.274  19.653  0.00  0.00    +0.000 A 
ATOM     19  C   UNL     1       1.462  10.306  18.741  0.00  0.00    +0.000 A 
ATOM     20  F   UNL     1       2.584  10.282  18.011  0.00  0.00    +0.000 F 
ATOM     21  C   UNL     1       0.610  11.395  18.578  0.00  0.00    +0.000 A 
ATOM     22  C   UNL     1      -0.545  11.487  19.344  0.00  0.00    +0.000 A 
ATOM     23  C   UNL     1      -0.819  10.499  20.287  0.00  0.00    +0.000 A 
ATOM     24  C   UNL     1       0.048   9.409  20.452  0.00  0.00    +0.000 A 
ATOM     25 CL   UNL     1      -0.352   8.289  21.704  0.00  0.00    +0.000 Cl
ENDBRANCH  17  18
ENDBRANCH  10  17
TORSDOF 5
ENDMDL
MODEL 5
REMARK VINA RESULT:      -6.2      3.591      5.291
REMARK  Name = 
REMARK  6 active torsions:
REMARK  status: ('A' for Active; 'I' for Inactive)
REMARK    1  A    between atoms: C_1  and  O_2
REMARK    2  A    between atoms: O_2  and  C_3
REMARK    3  A    between atoms: C_3  and  C_4
REMARK    4  A    between atoms: C_4  and  N_5
REMARK    5  A    between atoms: C_14  and  C_16
REMARK    6  A    between atoms: C_16  and  C_17
REMARK                            x       y       z     vdW  Elec       q    Type
REMARK                         _______ _______ _______ _____ _____    ______ ____
ROOT
ATOM      1  N   UNL     1       7.173   6.173  17.083  0.00  0.00    +0.000 N 
ATOM      2  C   UNL     1       7.276   4.787  17.132  0.00  0.00    +0.000 C 
ATOM      3  O   UNL     1       8.159   4.183  17.732  0.00  0.00    +0.000 OA
ATOM      4  C   UNL     1       6.115   4.073  16.465  0.00  0.00    +0.000 C 
ATOM      5  C   UNL     1       5.834   4.609  15.056  0.00  0.00    +0.000 C 
ATOM      6  C   UNL     1       6.030   6.116  14.938  0.00  0.00    +0.000 C 
ATOM      7  C   UNL     1       6.080   6.779  16.314  0.00  0.00    +0.000 C 
ATOM      8  C   UNL     1       4.713   6.666  17.027  0.00  0.00    +0.000 C 
ATOM      9  N   UNL     1       4.570   5.511  17.925  0.00  0.00    +0.000 N 
ATOM     10  C   UNL     1       3.888   5.739  19.124  0.00  0.00    +0.000 C 
ATOM     11  O   UNL     1       3.441   6.859  19.398  0.00  0.00    +0.000 OA
ATOM     12  C   UNL     1       4.906   4.174  17.412  0.00  0.00    +0.000 C 
ENDROOT
BRANCH   1  13
ATOM     13  C   UNL     1       7.951   6.987  18.009  0.00  0.00    +0.000 C 
BRANCH  13  14
ATOM     14  C   UNL     1       7.823   8.484  17.742  0.00  0.00    +0.000 C 
BRANCH  14  16
ATOM     15  C   UNL     1       9.023  10.462  18.194  0.00  0.00    +0.000 C 
ATOM     16  O   UNL     1       8.623   9.191  18.690  0.00  0.00    +0.000 OA
ENDBRANCH  14  16
ENDBRANCH  13  14
ENDBRANCH   1  13
BRANCH  10  17
ATOM     17  C   UNL     1       3.730   4.608  20.138  0.00  0.00    +0.000 C 
BRANCH  17  18
ATOM     18  C   UNL     1       2.616   3.641  19.818  0.00  0.00    +0.000 A 
ATOM     19  C   UNL     1       1.285   4.062  19.967  0.00  0.00    +0.000 A 
ATOM     20  F   UNL     1       1.018   5.291  20.427  0.00  0.00    +0.000 F 
ATOM     21  C   UNL     1       0.205   3.232  19.680  0.00  0.00    +0.000 A 
ATOM     22  C   UNL     1       0.431   1.933  19.241  0.00  0.00    +0.000 A 
ATOM     23  C   UNL     1       1.739   1.472  19.122  0.00  0.00    +0.000 A 
ATOM     24  C   UNL     1       2.823   2.310  19.420  0.00  0.00    +0.000 A 
ATOM     25 CL   UNL     1       4.396   1.605  19.312  0.00  0.00    +0.000 Cl
ENDBRANCH  17  18
ENDBRANCH  10  17
TORSDOF 5
ENDMDL
MODEL 6
REMARK VINA RESULT:      -6.2      2.877      5.477
REMARK  Name = 
REMARK  6 active torsions:
REMARK  status: ('A' for Active; 'I' for Inactive)
REMARK    1  A    between atoms: C_1  and  O_2
REMARK    2  A    between atoms: O_2  and  C_3
REMARK    3  A    between atoms: C_3  and  C_4
REMARK    4  A    between atoms: C_4  and  N_5
REMARK    5  A    between atoms: C_14  and  C_16
REMARK    6  A    between atoms: C_16  and  C_17
REMARK                            x       y       z     vdW  Elec       q    Type
REMARK                         _______ _______ _______ _____ _____    ______ ____
ROOT
ATOM      1  N   UNL     1       1.691   4.499  19.526  0.00  0.00    +0.000 N 
ATOM      2  C   UNL     1       1.619   4.203  18.170  0.00  0.00    +0.000 C 
ATOM      3  O   UNL     1       1.230   4.990  17.313  0.00  0.00    +0.000 OA
ATOM      4  C   UNL     1       2.184   2.839  17.819  0.00  0.00    +0.000 C 
ATOM      5  C   UNL     1       1.617   1.728  18.710  0.00  0.00    +0.000 C 
ATOM      6  C   UNL     1       1.405   2.168  20.154  0.00  0.00    +0.000 C 
ATOM      7  C   UNL     1       2.156   3.464  20.457  0.00  0.00    +0.000 C 
ATOM      8  C   UNL     1       3.684   3.241  20.388  0.00  0.00    +0.000 C 
ATOM      9  N   UNL     1       4.302   3.543  19.088  0.00  0.00    +0.000 N 
ATOM     10  C   UNL     1       5.548   4.175  19.127  0.00  0.00    +0.000 C 
ATOM     11  O   UNL     1       6.083   4.460  20.204  0.00  0.00    +0.000 OA
ATOM     12  C   UNL     1       3.719   2.948  17.876  0.00  0.00    +0.000 C 
ENDROOT
BRANCH   1  13
ATOM     13  C   UNL     1       1.589   5.884  19.969  0.00  0.00    +0.000 C 
BRANCH  13  14
ATOM     14  C   UNL     1       2.580   6.810  19.269  0.00  0.00    +0.000 C 
BRANCH  14  16
ATOM     15  C   UNL     1       2.261   8.744  17.961  0.00  0.00    +0.000 C 
ATOM     16  O   UNL     1       2.026   8.125  19.218  0.00  0.00    +0.000 OA
ENDBRANCH  14  16
ENDBRANCH  13  14
ENDBRANCH   1  13
BRANCH  10  17
ATOM     17  C   UNL     1       6.244   4.566  17.825  0.00  0.00    +0.000 C 
BRANCH  17  18
ATOM     18  C   UNL     1       6.756   5.985  17.798  0.00  0.00    +0.000 A 
ATOM     19  C   UNL     1       7.895   6.312  18.549  0.00  0.00    +0.000 A 
ATOM     20  F   UNL     1       8.487   5.383  19.310  0.00  0.00    +0.000 F 
ATOM     21  C   UNL     1       8.434   7.597  18.564  0.00  0.00    +0.000 A 
ATOM     22  C   UNL     1       7.829   8.606  17.825  0.00  0.00    +0.000 A 
ATOM     23  C   UNL     1       6.674   8.323  17.101  0.00  0.00    +0.000 A 
ATOM     24  C   UNL     1       6.132   7.030  17.097  0.00  0.00    +0.000 A 
ATOM     25 CL   UNL     1       4.655   6.817  16.228  0.00  0.00    +0.000 Cl
ENDBRANCH  17  18
ENDBRANCH  10  17
TORSDOF 5
ENDMDL
MODEL 7
REMARK VINA RESULT:      -6.2      2.051      2.637
REMARK  Name = 
REMARK  6 active torsions:
REMARK  status: ('A' for Active; 'I' for Inactive)
REMARK    1  A    between atoms: C_1  and  O_2
REMARK    2  A    between atoms: O_2  and  C_3
REMARK    3  A    between atoms: C_3  and  C_4
REMARK    4  A    between atoms: C_4  and  N_5
REMARK    5  A    between atoms: C_14  and  C_16
REMARK    6  A    between atoms: C_16  and  C_17
REMARK                            x       y       z     vdW  Elec       q    Type
REMARK                         _______ _______ _______ _____ _____    ______ ____
ROOT
ATOM      1  N   UNL     1       3.215   2.965  19.627  0.00  0.00    +0.000 N 
ATOM      2  C   UNL     1       2.490   3.140  20.800  0.00  0.00    +0.000 C 
ATOM      3  O   UNL     1       2.977   3.094  21.925  0.00  0.00    +0.000 OA
ATOM      4  C   UNL     1       1.039   3.518  20.561  0.00  0.00    +0.000 C 
ATOM      5  C   UNL     1       0.352   2.582  19.560  0.00  0.00    +0.000 C 
ATOM      6  C   UNL     1       1.270   2.140  18.425  0.00  0.00    +0.000 C 
ATOM      7  C   UNL     1       2.513   3.025  18.340  0.00  0.00    +0.000 C 
ATOM      8  C   UNL     1       2.134   4.467  17.932  0.00  0.00    +0.000 C 
ATOM      9  N   UNL     1       1.920   5.397  19.051  0.00  0.00    +0.000 N 
ATOM     10  C   UNL     1       2.405   6.697  18.876  0.00  0.00    +0.000 C 
ATOM     11  O   UNL     1       2.982   7.025  17.833  0.00  0.00    +0.000 OA
ATOM     12  C   UNL     1       1.012   4.997  20.136  0.00  0.00    +0.000 C 
ENDROOT
BRANCH   1  13
ATOM     13  C   UNL     1       4.672   3.016  19.666  0.00  0.00    +0.000 C 
BRANCH  13  14
ATOM     14  C   UNL     1       5.227   4.417  19.422  0.00  0.00    +0.000 C 
BRANCH  14  16
ATOM     15  C   UNL     1       6.203   4.582  17.282  0.00  0.00    +0.000 C 
ATOM     16  O   UNL     1       6.430   4.308  18.659  0.00  0.00    +0.000 OA
ENDBRANCH  14  16
ENDBRANCH  13  14
ENDBRANCH   1  13
BRANCH  10  17
ATOM     17  C   UNL     1       2.267   7.718  20.003  0.00  0.00    +0.000 C 
BRANCH  17  18
ATOM     18  C   UNL     1       1.293   8.834  19.712  0.00  0.00    +0.000 A 
ATOM     19  C   UNL     1       1.583   9.738  18.679  0.00  0.00    +0.000 A 
ATOM     20  F   UNL     1       2.730   9.632  17.996  0.00  0.00    +0.000 F 
ATOM     21  C   UNL     1       0.728  10.785  18.344  0.00  0.00    +0.000 A 
ATOM     22  C   UNL     1      -0.454  10.964  19.052  0.00  0.00    +0.000 A 
ATOM     23  C   UNL     1      -0.751  10.108  20.109  0.00  0.00    +0.000 A 
ATOM     24  C   UNL     1       0.119   9.061  20.447  0.00  0.00    +0.000 A 
ATOM     25 CL   UNL     1      -0.315   8.114  21.825  0.00  0.00    +0.000 Cl
ENDBRANCH  17  18
ENDBRANCH  10  17
TORSDOF 5
ENDMDL
MODEL 8
REMARK VINA RESULT:      -6.2      2.812      5.969
REMARK  Name = 
REMARK  6 active torsions:
REMARK  status: ('A' for Active; 'I' for Inactive)
REMARK    1  A    between atoms: C_1  and  O_2
REMARK    2  A    between atoms: O_2  and  C_3
REMARK    3  A    between atoms: C_3  and  C_4
REMARK    4  A    between atoms: C_4  and  N_5
REMARK    5  A    between atoms: C_14  and  C_16
REMARK    6  A    between atoms: C_16  and  C_17
REMARK                            x       y       z     vdW  Elec       q    Type
REMARK                         _______ _______ _______ _____ _____    ______ ____
ROOT
ATOM      1  N   UNL     1       1.963   5.704  19.543  0.00  0.00    +0.000 N 
ATOM      2  C   UNL     1       1.883   5.638  18.157  0.00  0.00    +0.000 C 
ATOM      3  O   UNL     1       1.821   6.619  17.424  0.00  0.00    +0.000 OA
ATOM      4  C   UNL     1       2.001   4.226  17.613  0.00  0.00    +0.000 C 
ATOM      5  C   UNL     1       1.054   3.249  18.319  0.00  0.00    +0.000 C 
ATOM      6  C   UNL     1       0.906   3.530  19.810  0.00  0.00    +0.000 C 
ATOM      7  C   UNL     1       2.014   4.455  20.314  0.00  0.00    +0.000 C 
ATOM      8  C   UNL     1       3.391   3.758  20.232  0.00  0.00    +0.000 C 
ATOM      9  N   UNL     1       4.150   4.018  19.000  0.00  0.00    +0.000 N 
ATOM     10  C   UNL     1       5.529   4.197  19.150  0.00  0.00    +0.000 C 
ATOM     11  O   UNL     1       6.060   4.140  20.265  0.00  0.00    +0.000 OA
ATOM     12  C   UNL     1       3.483   3.820  17.705  0.00  0.00    +0.000 C 
ENDROOT
BRANCH   1  13
ATOM     13  C   UNL     1       2.284   6.971  20.189  0.00  0.00    +0.000 C 
BRANCH  13  14
ATOM     14  C   UNL     1       1.157   7.492  21.076  0.00  0.00    +0.000 C 
BRANCH  14  16
ATOM     15  C   UNL     1      -0.072   9.447  21.552  0.00  0.00    +0.000 C 
ATOM     16  O   UNL     1       1.117   8.917  20.981  0.00  0.00    +0.000 OA
ENDBRANCH  14  16
ENDBRANCH  13  14
ENDBRANCH   1  13
BRANCH  10  17
ATOM     17  C   UNL     1       6.392   4.515  17.931  0.00  0.00    +0.000 C 
BRANCH  17  18
ATOM     18  C   UNL     1       6.882   5.942  17.874  0.00  0.00    +0.000 A 
ATOM     19  C   UNL     1       7.951   6.327  18.697  0.00  0.00    +0.000 A 
ATOM     20  F   UNL     1       8.493   5.448  19.549  0.00  0.00    +0.000 F 
ATOM     21  C   UNL     1       8.466   7.621  18.691  0.00  0.00    +0.000 A 
ATOM     22  C   UNL     1       7.908   8.581  17.856  0.00  0.00    +0.000 A 
ATOM     23  C   UNL     1       6.821   8.241  17.056  0.00  0.00    +0.000 A 
ATOM     24  C   UNL     1       6.301   6.938  17.073  0.00  0.00    +0.000 A 
ATOM     25 CL   UNL     1       4.903   6.654  16.100  0.00  0.00    +0.000 Cl
ENDBRANCH  17  18
ENDBRANCH  10  17
TORSDOF 5
ENDMDL
MODEL 9
REMARK VINA RESULT:      -6.0      1.640      2.095
REMARK  Name = 
REMARK  6 active torsions:
REMARK  status: ('A' for Active; 'I' for Inactive)
REMARK    1  A    between atoms: C_1  and  O_2
REMARK    2  A    between atoms: O_2  and  C_3
REMARK    3  A    between atoms: C_3  and  C_4
REMARK    4  A    between atoms: C_4  and  N_5
REMARK    5  A    between atoms: C_14  and  C_16
REMARK    6  A    between atoms: C_16  and  C_17
REMARK                            x       y       z     vdW  Elec       q    Type
REMARK                         _______ _______ _______ _____ _____    ______ ____
ROOT
ATOM      1  N   UNL     1       3.177   2.874  19.596  0.00  0.00    +0.000 N 
ATOM      2  C   UNL     1       2.523   3.036  20.812  0.00  0.00    +0.000 C 
ATOM      3  O   UNL     1       3.071   2.947  21.906  0.00  0.00    +0.000 OA
ATOM      4  C   UNL     1       1.072   3.455  20.665  0.00  0.00    +0.000 C 
ATOM      5  C   UNL     1       0.306   2.564  19.681  0.00  0.00    +0.000 C 
ATOM      6  C   UNL     1       1.147   2.130  18.486  0.00  0.00    +0.000 C 
ATOM      7  C   UNL     1       2.407   2.985  18.353  0.00  0.00    +0.000 C 
ATOM      8  C   UNL     1       2.043   4.447  18.003  0.00  0.00    +0.000 C 
ATOM      9  N   UNL     1       1.917   5.351  19.156  0.00  0.00    +0.000 N 
ATOM     10  C   UNL     1       2.425   6.643  18.987  0.00  0.00    +0.000 C 
ATOM     11  O   UNL     1       2.952   6.985  17.922  0.00  0.00    +0.000 OA
ATOM     12  C   UNL     1       1.061   4.945  20.280  0.00  0.00    +0.000 C 
ENDROOT
BRANCH   1  13
ATOM     13  C   UNL     1       4.635   2.887  19.554  0.00  0.00    +0.000 C 
BRANCH  13  14
ATOM     14  C   UNL     1       5.199   4.064  18.762  0.00  0.00    +0.000 C 
BRANCH  14  16
ATOM     15  C   UNL     1       7.213   5.268  18.539  0.00  0.00    +0.000 C 
ATOM     16  O   UNL     1       6.367   4.549  19.426  0.00  0.00    +0.000 OA
ENDBRANCH  14  16
ENDBRANCH  13  14
ENDBRANCH   1  13
BRANCH  10  17
ATOM     17  C   UNL     1       2.377   7.637  20.145  0.00  0.00    +0.000 C 
BRANCH  17  18
ATOM     18  C   UNL     1       1.300   8.687  20.017  0.00  0.00    +0.000 A 
ATOM     19  C   UNL     1       0.238   8.687  20.934  0.00  0.00    +0.000 A 
ATOM     20  F   UNL     1       0.168   7.741  21.879  0.00  0.00    +0.000 F 
ATOM     21  C   UNL     1      -0.786   9.630  20.888  0.00  0.00    +0.000 A 
ATOM     22  C   UNL     1      -0.780  10.606  19.899  0.00  0.00    +0.000 A 
ATOM     23  C   UNL     1       0.238  10.608  18.949  0.00  0.00    +0.000 A 
ATOM     24  C   UNL     1       1.262   9.650  18.996  0.00  0.00    +0.000 A 
ATOM     25 CL   UNL     1       2.425   9.702  17.720  0.00  0.00    +0.000 Cl
ENDBRANCH  17  18
ENDBRANCH  10  17
TORSDOF 5
ENDMDL
