MODEL 1
REMARK VINA RESULT:      -7.2      0.000      0.000
REMARK  Name = 
REMARK  9 active torsions:
REMARK  status: ('A' for Active; 'I' for Inactive)
REMARK    1  A    between atoms: C_1  and  C_2
REMARK    2  A    between atoms: C_2  and  O_4
REMARK    3  A    between atoms: O_4  and  C_5
REMARK    4  A    between atoms: C_5  and  C_6
REMARK    5  A    between atoms: C_6  and  C_8
REMARK    6  A    between atoms: C_8  and  O_9
REMARK    7  A    between atoms: C_22  and  C_23
REMARK    8  A    between atoms: C_25  and  O_26
REMARK    9  A    between atoms: C_28  and  C_29
REMARK                            x       y       z     vdW  Elec       q    Type
REMARK                         _______ _______ _______ _____ _____    ______ ____
ROOT
ATOM      1  C   UNL     1       7.079   4.941  16.832  0.00  0.00    +0.000 C 
ATOM      2  C   UNL     1       7.552   6.397  17.036  0.00  0.00    +0.000 C 
ATOM      3  C   UNL     1       6.246   7.167  16.868  0.00  0.00    +0.000 C 
ATOM      4  C   UNL     1       5.364   6.384  17.814  0.00  0.00    +0.000 C 
ATOM      5  C   UNL     1       3.887   6.649  17.940  0.00  0.00    +0.000 C 
ATOM      6  C   UNL     1       3.575   8.103  17.624  0.00  0.00    +0.000 C 
ATOM      7  C   UNL     1       2.082   8.250  17.510  0.00  0.00    +0.000 C 
ATOM      8  C   UNL     1       1.407   7.880  18.794  0.00  0.00    +0.000 C 
ATOM      9  C   UNL     1       0.487   8.769  19.235  0.00  0.00    +0.000 C 
ATOM     10  C   UNL     1       1.048   9.440  20.453  0.00  0.00    +0.000 C 
ATOM     11  O   UNL     1       1.030  10.652  20.593  0.00  0.00    +0.000 OA
ATOM     12  C   UNL     1       1.542   8.511  21.498  0.00  0.00    +0.000 C 
ATOM     13  C   UNL     1       1.899   7.256  21.162  0.00  0.00    +0.000 C 
ATOM     14  C   UNL     1       1.960   6.740  19.710  0.00  0.00    +0.000 C 
ATOM     15  C   UNL     1       0.958   5.581  19.564  0.00  0.00    +0.000 C 
ATOM     16  C   UNL     1       3.493   6.329  19.408  0.00  0.00    +0.000 C 
ATOM     17  C   UNL     1       4.099   4.913  19.840  0.00  0.00    +0.000 C 
ATOM     18  C   UNL     1       5.570   4.510  19.242  0.00  0.00    +0.000 C 
ATOM     19  C   UNL     1       5.717   4.875  17.707  0.00  0.00    +0.000 C 
ATOM     20  C   UNL     1       4.829   3.832  17.017  0.00  0.00    +0.000 C 
ENDROOT
BRANCH   1  21
ATOM     21  C   UNL     1       6.969   4.810  15.213  0.00  0.00    +0.000 C 
ATOM     22  O   UNL     1       7.570   5.579  14.448  0.00  0.00    +0.000 OA
BRANCH  21  23
ATOM     23  C   UNL     1       6.115   3.700  14.582  0.00  0.00    +0.000 C 
BRANCH  23  24
ATOM     24  O   UNL     1       5.310   4.072  13.458  0.00  0.00    +0.000 OA
BRANCH  24  26
ATOM     25  C   UNL     1       4.400   3.197  11.487  0.00  0.00    +0.000 C 
ATOM     26  C   UNL     1       5.640   3.474  12.285  0.00  0.00    +0.000 C 
ATOM     27  O   UNL     1       6.765   3.120  11.974  0.00  0.00    +0.000 OA
ENDBRANCH  24  26
ENDBRANCH  23  24
ENDBRANCH  21  23
ENDBRANCH   1  21
BRANCH   1  28
ATOM     28  O   UNL     1       8.053   4.035  17.333  0.00  0.00    +0.000 OA
ATOM     29  H   UNL     1       8.218   4.278  18.260  0.00  0.00    +0.000 HD
ENDBRANCH   1  28
BRANCH  17  30
ATOM     30  O   UNL     1       3.183   3.856  19.566  0.00  0.00    +0.000 OA
ATOM     31  H   UNL     1       2.924   3.442  20.405  0.00  0.00    +0.000 HD
ENDBRANCH  17  30
TORSDOF 6
ENDMDL
MODEL 2
REMARK VINA RESULT:      -6.7      7.510     10.142
REMARK  Name = 
REMARK  9 active torsions:
REMARK  status: ('A' for Active; 'I' for Inactive)
REMARK    1  A    between atoms: C_1  and  C_2
REMARK    2  A    between atoms: C_2  and  O_4
REMARK    3  A    between atoms: O_4  and  C_5
REMARK    4  A    between atoms: C_5  and  C_6
REMARK    5  A    between atoms: C_6  and  C_8
REMARK    6  A    between atoms: C_8  and  O_9
REMARK    7  A    between atoms: C_22  and  C_23
REMARK    8  A    between atoms: C_25  and  O_26
REMARK    9  A    between atoms: C_28  and  C_29
REMARK                            x       y       z     vdW  Elec       q    Type
REMARK                         _______ _______ _______ _____ _____    ______ ____
ROOT
ATOM      1  C   UNL     1       0.741  11.581  19.062  0.00  0.00    +0.000 C 
ATOM      2  C   UNL     1       0.541  10.986  20.473  0.00  0.00    +0.000 C 
ATOM      3  C   UNL     1      -0.675  11.766  20.963  0.00  0.00    +0.000 C 
ATOM      4  C   UNL     1      -1.598  11.569  19.782  0.00  0.00    +0.000 C 
ATOM      5  C   UNL     1      -2.932  12.260  19.680  0.00  0.00    +0.000 C 
ATOM      6  C   UNL     1      -3.501  12.531  21.064  0.00  0.00    +0.000 C 
ATOM      7  C   UNL     1      -4.689  13.442  20.914  0.00  0.00    +0.000 C 
ATOM      8  C   UNL     1      -5.751  12.804  20.073  0.00  0.00    +0.000 C 
ATOM      9  C   UNL     1      -7.000  12.855  20.590  0.00  0.00    +0.000 C 
ATOM     10  C   UNL     1      -7.379  11.466  21.007  0.00  0.00    +0.000 C 
ATOM     11  O   UNL     1      -7.861  11.225  22.102  0.00  0.00    +0.000 OA
ATOM     12  C   UNL     1      -7.200  10.435  19.956  0.00  0.00    +0.000 C 
ATOM     13  C   UNL     1      -6.334  10.653  18.946  0.00  0.00    +0.000 C 
ATOM     14  C   UNL     1      -5.392  11.870  18.872  0.00  0.00    +0.000 C 
ATOM     15  C   UNL     1      -5.741  12.679  17.610  0.00  0.00    +0.000 C 
ATOM     16  C   UNL     1      -3.876  11.309  18.895  0.00  0.00    +0.000 C 
ATOM     17  C   UNL     1      -3.143  10.774  17.578  0.00  0.00    +0.000 C 
ATOM     18  C   UNL     1      -1.531  10.490  17.678  0.00  0.00    +0.000 C 
ATOM     19  C   UNL     1      -0.767  11.629  18.471  0.00  0.00    +0.000 C 
ATOM     20  C   UNL     1      -0.793  12.809  17.491  0.00  0.00    +0.000 C 
ENDROOT
BRANCH   1  21
ATOM     21  C   UNL     1       1.504  12.988  19.357  0.00  0.00    +0.000 C 
ATOM     22  O   UNL     1       1.143  13.756  20.262  0.00  0.00    +0.000 OA
BRANCH  21  23
ATOM     23  C   UNL     1       2.722  13.400  18.517  0.00  0.00    +0.000 C 
BRANCH  23  24
ATOM     24  O   UNL     1       3.551  14.436  19.056  0.00  0.00    +0.000 OA
BRANCH  24  26
ATOM     25  C   UNL     1       5.534  14.707  17.841  0.00  0.00    +0.000 C 
ATOM     26  C   UNL     1       4.159  15.229  18.136  0.00  0.00    +0.000 C 
ATOM     27  O   UNL     1       3.696  16.268  17.695  0.00  0.00    +0.000 OA
ENDBRANCH  24  26
ENDBRANCH  23  24
ENDBRANCH  21  23
ENDBRANCH   1  21
BRANCH   1  28
ATOM     28  O   UNL     1       1.568  10.727  18.284  0.00  0.00    +0.000 OA
ATOM     29  H   UNL     1       1.179   9.837  18.326  0.00  0.00    +0.000 HD
ENDBRANCH   1  28
BRANCH  17  30
ATOM     30  O   UNL     1      -3.393  11.629  16.467  0.00  0.00    +0.000 OA
ATOM     31  H   UNL     1      -4.090  11.233  15.918  0.00  0.00    +0.000 HD
ENDBRANCH  17  30
TORSDOF 6
ENDMDL
MODEL 3
REMARK VINA RESULT:      -6.6      2.810      5.130
REMARK  Name = 
REMARK  9 active torsions:
REMARK  status: ('A' for Active; 'I' for Inactive)
REMARK    1  A    between atoms: C_1  and  C_2
REMARK    2  A    between atoms: C_2  and  O_4
REMARK    3  A    between atoms: O_4  and  C_5
REMARK    4  A    between atoms: C_5  and  C_6
REMARK    5  A    between atoms: C_6  and  C_8
REMARK    6  A    between atoms: C_8  and  O_9
REMARK    7  A    between atoms: C_22  and  C_23
REMARK    8  A    between atoms: C_25  and  O_26
REMARK    9  A    between atoms: C_28  and  C_29
REMARK                            x       y       z     vdW  Elec       q    Type
REMARK                         _______ _______ _______ _____ _____    ______ ____
ROOT
ATOM      1  C   UNL     1       2.912   5.029  18.574  0.00  0.00    +0.000 C 
ATOM      2  C   UNL     1       1.773   4.540  19.495  0.00  0.00    +0.000 C 
ATOM      3  C   UNL     1       1.728   5.652  20.538  0.00  0.00    +0.000 C 
ATOM      4  C   UNL     1       1.671   6.856  19.626  0.00  0.00    +0.000 C 
ATOM      5  C   UNL     1       1.743   8.266  20.151  0.00  0.00    +0.000 C 
ATOM      6  C   UNL     1       1.178   8.342  21.561  0.00  0.00    +0.000 C 
ATOM      7  C   UNL     1       1.509   9.695  22.128  0.00  0.00    +0.000 C 
ATOM      8  C   UNL     1       0.898  10.786  21.305  0.00  0.00    +0.000 C 
ATOM      9  C   UNL     1       0.229  11.728  22.007  0.00  0.00    +0.000 C 
ATOM     10  C   UNL     1      -1.234  11.556  21.725  0.00  0.00    +0.000 C 
ATOM     11  O   UNL     1      -2.068  11.526  22.615  0.00  0.00    +0.000 OA
ATOM     12  C   UNL     1      -1.584  11.511  20.285  0.00  0.00    +0.000 C 
ATOM     13  C   UNL     1      -0.650  11.160  19.380  0.00  0.00    +0.000 C 
ATOM     14  C   UNL     1       0.760  10.659  19.752  0.00  0.00    +0.000 C 
ATOM     15  C   UNL     1       1.793  11.641  19.173  0.00  0.00    +0.000 C 
ATOM     16  C   UNL     1       0.899   9.150  19.193  0.00  0.00    +0.000 C 
ATOM     17  C   UNL     1       1.287   8.834  17.674  0.00  0.00    +0.000 C 
ATOM     18  C   UNL     1       1.661   7.283  17.300  0.00  0.00    +0.000 C 
ATOM     19  C   UNL     1       2.584   6.606  18.395  0.00  0.00    +0.000 C 
ATOM     20  C   UNL     1       3.939   7.291  18.177  0.00  0.00    +0.000 C 
ENDROOT
BRANCH   1  21
ATOM     21  C   UNL     1       4.257   4.603  19.388  0.00  0.00    +0.000 C 
ATOM     22  O   UNL     1       4.314   3.568  20.069  0.00  0.00    +0.000 OA
BRANCH  21  23
ATOM     23  C   UNL     1       5.515   5.480  19.318  0.00  0.00    +0.000 C 
BRANCH  23  24
ATOM     24  O   UNL     1       6.762   4.799  19.143  0.00  0.00    +0.000 OA
BRANCH  24  26
ATOM     25  C   UNL     1       7.637   6.698  18.090  0.00  0.00    +0.000 C 
ATOM     26  C   UNL     1       7.500   5.204  18.077  0.00  0.00    +0.000 C 
ATOM     27  O   UNL     1       7.901   4.472  17.187  0.00  0.00    +0.000 OA
ENDBRANCH  24  26
ENDBRANCH  23  24
ENDBRANCH  21  23
ENDBRANCH   1  21
BRANCH   1  28
ATOM     28  O   UNL     1       2.858   4.351  17.326  0.00  0.00    +0.000 OA
ATOM     29  H   UNL     1       3.706   4.511  16.878  0.00  0.00    +0.000 HD
ENDBRANCH   1  28
BRANCH  17  30
ATOM     30  O   UNL     1       2.338   9.684  17.223  0.00  0.00    +0.000 OA
ATOM     31  H   UNL     1       2.092  10.054  16.360  0.00  0.00    +0.000 HD
ENDBRANCH  17  30
TORSDOF 6
ENDMDL
MODEL 4
REMARK VINA RESULT:      -6.5      7.369     10.545
REMARK  Name = 
REMARK  9 active torsions:
REMARK  status: ('A' for Active; 'I' for Inactive)
REMARK    1  A    between atoms: C_1  and  C_2
REMARK    2  A    between atoms: C_2  and  O_4
REMARK    3  A    between atoms: O_4  and  C_5
REMARK    4  A    between atoms: C_5  and  C_6
REMARK    5  A    between atoms: C_6  and  C_8
REMARK    6  A    between atoms: C_8  and  O_9
REMARK    7  A    between atoms: C_22  and  C_23
REMARK    8  A    between atoms: C_25  and  O_26
REMARK    9  A    between atoms: C_28  and  C_29
REMARK                            x       y       z     vdW  Elec       q    Type
REMARK                         _______ _______ _______ _____ _____    ______ ____
ROOT
ATOM      1  C   UNL     1       0.615  11.301  18.885  0.00  0.00    +0.000 C 
ATOM      2  C   UNL     1       0.459  10.665  20.284  0.00  0.00    +0.000 C 
ATOM      3  C   UNL     1      -0.647  11.525  20.887  0.00  0.00    +0.000 C 
ATOM      4  C   UNL     1      -1.661  11.459  19.769  0.00  0.00    +0.000 C 
ATOM      5  C   UNL     1      -2.933  12.266  19.787  0.00  0.00    +0.000 C 
ATOM      6  C   UNL     1      -3.381  12.525  21.218  0.00  0.00    +0.000 C 
ATOM      7  C   UNL     1      -4.491  13.541  21.186  0.00  0.00    +0.000 C 
ATOM      8  C   UNL     1      -5.659  13.034  20.400  0.00  0.00    +0.000 C 
ATOM      9  C   UNL     1      -6.861  13.170  21.006  0.00  0.00    +0.000 C 
ATOM     10  C   UNL     1      -7.332  11.801  21.397  0.00  0.00    +0.000 C 
ATOM     11  O   UNL     1      -7.759  11.556  22.514  0.00  0.00    +0.000 OA
ATOM     12  C   UNL     1      -7.318  10.805  20.298  0.00  0.00    +0.000 C 
ATOM     13  C   UNL     1      -6.506  10.991  19.239  0.00  0.00    +0.000 C 
ATOM     14  C   UNL     1      -5.466  12.124  19.142  0.00  0.00    +0.000 C 
ATOM     15  C   UNL     1      -5.827  13.014  17.940  0.00  0.00    +0.000 C 
ATOM     16  C   UNL     1      -4.009  11.435  19.037  0.00  0.00    +0.000 C 
ATOM     17  C   UNL     1      -3.416  10.896  17.653  0.00  0.00    +0.000 C 
ATOM     18  C   UNL     1      -1.833  10.470  17.627  0.00  0.00    +0.000 C 
ATOM     19  C   UNL     1      -0.919  11.504  18.405  0.00  0.00    +0.000 C 
ATOM     20  C   UNL     1      -0.906  12.723  17.474  0.00  0.00    +0.000 C 
ENDROOT
BRANCH   1  21
ATOM     21  C   UNL     1       1.519  12.623  19.177  0.00  0.00    +0.000 C 
ATOM     22  O   UNL     1       2.458  12.955  18.439  0.00  0.00    +0.000 OA
BRANCH  21  23
ATOM     23  C   UNL     1       1.214  13.518  20.387  0.00  0.00    +0.000 C 
BRANCH  23  24
ATOM     24  O   UNL     1       1.075  14.920  20.129  0.00  0.00    +0.000 OA
BRANCH  24  26
ATOM     25  C   UNL     1      -0.266  16.166  18.670  0.00  0.00    +0.000 C 
ATOM     26  C   UNL     1      -0.197  15.349  19.927  0.00  0.00    +0.000 C 
ATOM     27  O   UNL     1      -1.122  15.183  20.704  0.00  0.00    +0.000 OA
ENDBRANCH  24  26
ENDBRANCH  23  24
ENDBRANCH  21  23
ENDBRANCH   1  21
BRANCH   1  28
ATOM     28  O   UNL     1       1.309  10.414  18.019  0.00  0.00    +0.000 OA
ATOM     29  H   UNL     1       0.749  10.285  17.234  0.00  0.00    +0.000 HD
ENDBRANCH   1  28
BRANCH  17  30
ATOM     30  O   UNL     1      -3.664  11.817  16.594  0.00  0.00    +0.000 OA
ATOM     31  H   UNL     1      -4.305  12.479  16.900  0.00  0.00    +0.000 HD
ENDBRANCH  17  30
TORSDOF 6
ENDMDL
MODEL 5
REMARK VINA RESULT:      -6.5      0.986      1.065
REMARK  Name = 
REMARK  9 active torsions:
REMARK  status: ('A' for Active; 'I' for Inactive)
REMARK    1  A    between atoms: C_1  and  C_2
REMARK    2  A    between atoms: C_2  and  O_4
REMARK    3  A    between atoms: O_4  and  C_5
REMARK    4  A    between atoms: C_5  and  C_6
REMARK    5  A    between atoms: C_6  and  C_8
REMARK    6  A    between atoms: C_8  and  O_9
REMARK    7  A    between atoms: C_22  and  C_23
REMARK    8  A    between atoms: C_25  and  O_26
REMARK    9  A    between atoms: C_28  and  C_29
REMARK                            x       y       z     vdW  Elec       q    Type
REMARK                         _______ _______ _______ _____ _____    ______ ____
ROOT
ATOM      1  C   UNL     1       6.180   5.053  16.679  0.00  0.00    +0.000 C 
ATOM      2  C   UNL     1       6.806   6.458  16.825  0.00  0.00    +0.000 C 
ATOM      3  C   UNL     1       5.566   7.346  16.812  0.00  0.00    +0.000 C 
ATOM      4  C   UNL     1       4.733   6.637  17.855  0.00  0.00    +0.000 C 
ATOM      5  C   UNL     1       3.311   7.035  18.154  0.00  0.00    +0.000 C 
ATOM      6  C   UNL     1       3.100   8.515  17.876  0.00  0.00    +0.000 C 
ATOM      7  C   UNL     1       1.624   8.799  17.938  0.00  0.00    +0.000 C 
ATOM      8  C   UNL     1       1.072   8.480  19.293  0.00  0.00    +0.000 C 
ATOM      9  C   UNL     1       0.297   9.444  19.838  0.00  0.00    +0.000 C 
ATOM     10  C   UNL     1       1.056  10.049  20.981  0.00  0.00    +0.000 C 
ATOM     11  O   UNL     1       1.166  11.256  21.122  0.00  0.00    +0.000 OA
ATOM     12  C   UNL     1       1.581   9.067  21.961  0.00  0.00    +0.000 C 
ATOM     13  C   UNL     1       1.779   7.788  21.586  0.00  0.00    +0.000 C 
ATOM     14  C   UNL     1       1.621   7.285  20.138  0.00  0.00    +0.000 C 
ATOM     15  C   UNL     1       0.507   6.224  20.110  0.00  0.00    +0.000 C 
ATOM     16  C   UNL     1       3.064   6.737  19.657  0.00  0.00    +0.000 C 
ATOM     17  C   UNL     1       3.583   5.267  20.016  0.00  0.00    +0.000 C 
ATOM     18  C   UNL     1       4.930   4.737  19.249  0.00  0.00    +0.000 C 
ATOM     19  C   UNL     1       4.929   5.104  17.708  0.00  0.00    +0.000 C 
ATOM     20  C   UNL     1       3.874   4.154  17.127  0.00  0.00    +0.000 C 
ENDROOT
BRANCH   1  21
ATOM     21  C   UNL     1       5.870   4.950  15.084  0.00  0.00    +0.000 C 
ATOM     22  O   UNL     1       5.367   5.889  14.449  0.00  0.00    +0.000 OA
BRANCH  21  23
ATOM     23  C   UNL     1       6.211   3.669  14.310  0.00  0.00    +0.000 C 
BRANCH  23  24
ATOM     24  O   UNL     1       6.460   3.814  12.907  0.00  0.00    +0.000 OA
BRANCH  24  26
ATOM     25  C   UNL     1       6.330   1.960  11.485  0.00  0.00    +0.000 C 
ATOM     26  C   UNL     1       5.615   3.129  12.094  0.00  0.00    +0.000 C 
ATOM     27  O   UNL     1       4.477   3.474  11.820  0.00  0.00    +0.000 OA
ENDBRANCH  24  26
ENDBRANCH  23  24
ENDBRANCH  21  23
ENDBRANCH   1  21
BRANCH   1  28
ATOM     28  O   UNL     1       7.118   4.057  17.062  0.00  0.00    +0.000 OA
ATOM     29  H   UNL     1       7.955   4.512  17.256  0.00  0.00    +0.000 HD
ENDBRANCH   1  28
BRANCH  17  30
ATOM     30  O   UNL     1       2.547   4.302  19.851  0.00  0.00    +0.000 OA
ATOM     31  H   UNL     1       2.951   3.443  19.646  0.00  0.00    +0.000 HD
ENDBRANCH  17  30
TORSDOF 6
ENDMDL
MODEL 6
REMARK VINA RESULT:      -6.4      5.525      9.558
REMARK  Name = 
REMARK  9 active torsions:
REMARK  status: ('A' for Active; 'I' for Inactive)
REMARK    1  A    between atoms: C_1  and  C_2
REMARK    2  A    between atoms: C_2  and  O_4
REMARK    3  A    between atoms: O_4  and  C_5
REMARK    4  A    between atoms: C_5  and  C_6
REMARK    5  A    between atoms: C_6  and  C_8
REMARK    6  A    between atoms: C_8  and  O_9
REMARK    7  A    between atoms: C_22  and  C_23
REMARK    8  A    between atoms: C_25  and  O_26
REMARK    9  A    between atoms: C_28  and  C_29
REMARK                            x       y       z     vdW  Elec       q    Type
REMARK                         _______ _______ _______ _____ _____    ______ ____
ROOT
ATOM      1  C   UNL     1       0.278  11.608  19.008  0.00  0.00    +0.000 C 
ATOM      2  C   UNL     1      -0.333  12.711  18.117  0.00  0.00    +0.000 C 
ATOM      3  C   UNL     1      -1.811  12.610  18.476  0.00  0.00    +0.000 C 
ATOM      4  C   UNL     1      -1.711  12.647  19.984  0.00  0.00    +0.000 C 
ATOM      5  C   UNL     1      -2.909  12.443  20.875  0.00  0.00    +0.000 C 
ATOM      6  C   UNL     1      -4.179  12.904  20.176  0.00  0.00    +0.000 C 
ATOM      7  C   UNL     1      -5.357  12.443  20.991  0.00  0.00    +0.000 C 
ATOM      8  C   UNL     1      -5.322  13.034  22.366  0.00  0.00    +0.000 C 
ATOM      9  C   UNL     1      -6.484  13.587  22.782  0.00  0.00    +0.000 C 
ATOM     10  C   UNL     1      -6.293  15.074  22.820  0.00  0.00    +0.000 C 
ATOM     11  O   UNL     1      -7.098  15.845  22.324  0.00  0.00    +0.000 OA
ATOM     12  C   UNL     1      -5.102  15.525  23.579  0.00  0.00    +0.000 C 
ATOM     13  C   UNL     1      -4.068  14.681  23.763  0.00  0.00    +0.000 C 
ATOM     14  C   UNL     1      -3.972  13.287  23.113  0.00  0.00    +0.000 C 
ATOM     15  C   UNL     1      -3.924  12.231  24.232  0.00  0.00    +0.000 C 
ATOM     16  C   UNL     1      -2.671  13.289  22.155  0.00  0.00    +0.000 C 
ATOM     17  C   UNL     1      -1.196  13.030  22.715  0.00  0.00    +0.000 C 
ATOM     18  C   UNL     1      -0.005  12.788  21.615  0.00  0.00    +0.000 C 
ATOM     19  C   UNL     1      -0.462  11.840  20.431  0.00  0.00    +0.000 C 
ATOM     20  C   UNL     1      -0.524  10.460  21.098  0.00  0.00    +0.000 C 
ENDROOT
BRANCH   1  21
ATOM     21  C   UNL     1      -0.042  10.243  18.180  0.00  0.00    +0.000 C 
ATOM     22  O   UNL     1      -1.165  10.005  17.712  0.00  0.00    +0.000 OA
BRANCH  21  23
ATOM     23  C   UNL     1       1.064   9.205  17.942  0.00  0.00    +0.000 C 
BRANCH  23  24
ATOM     24  O   UNL     1       1.965   8.967  19.030  0.00  0.00    +0.000 OA
BRANCH  24  26
ATOM     25  C   UNL     1       2.934   7.034  18.133  0.00  0.00    +0.000 C 
ATOM     26  C   UNL     1       2.222   7.660  19.296  0.00  0.00    +0.000 C 
ATOM     27  O   UNL     1       1.838   7.061  20.286  0.00  0.00    +0.000 OA
ENDBRANCH  24  26
ENDBRANCH  23  24
ENDBRANCH  21  23
ENDBRANCH   1  21
BRANCH   1  28
ATOM     28  O   UNL     1       1.681  11.794  19.126  0.00  0.00    +0.000 OA
ATOM     29  H   UNL     1       1.927  12.509  18.514  0.00  0.00    +0.000 HD
ENDBRANCH   1  28
BRANCH  17  30
ATOM     30  O   UNL     1      -1.183  11.957  23.653  0.00  0.00    +0.000 OA
ATOM     31  H   UNL     1      -1.324  11.123  23.175  0.00  0.00    +0.000 HD
ENDBRANCH  17  30
TORSDOF 6
ENDMDL
MODEL 7
REMARK VINA RESULT:      -6.4      5.763     10.122
REMARK  Name = 
REMARK  9 active torsions:
REMARK  status: ('A' for Active; 'I' for Inactive)
REMARK    1  A    between atoms: C_1  and  C_2
REMARK    2  A    between atoms: C_2  and  O_4
REMARK    3  A    between atoms: O_4  and  C_5
REMARK    4  A    between atoms: C_5  and  C_6
REMARK    5  A    between atoms: C_6  and  C_8
REMARK    6  A    between atoms: C_8  and  O_9
REMARK    7  A    between atoms: C_22  and  C_23
REMARK    8  A    between atoms: C_25  and  O_26
REMARK    9  A    between atoms: C_28  and  C_29
REMARK                            x       y       z     vdW  Elec       q    Type
REMARK                         _______ _______ _______ _____ _____    ______ ____
ROOT
ATOM      1  C   UNL     1       0.384  12.180  20.942  0.00  0.00    +0.000 C 
ATOM      2  C   UNL     1       0.507  12.434  19.424  0.00  0.00    +0.000 C 
ATOM      3  C   UNL     1      -0.809  11.860  18.911  0.00  0.00    +0.000 C 
ATOM      4  C   UNL     1      -1.773  12.553  19.847  0.00  0.00    +0.000 C 
ATOM      5  C   UNL     1      -3.245  12.237  19.864  0.00  0.00    +0.000 C 
ATOM      6  C   UNL     1      -3.708  11.769  18.492  0.00  0.00    +0.000 C 
ATOM      7  C   UNL     1      -5.104  11.224  18.627  0.00  0.00    +0.000 C 
ATOM      8  C   UNL     1      -6.046  12.279  19.119  0.00  0.00    +0.000 C 
ATOM      9  C   UNL     1      -7.197  12.391  18.419  0.00  0.00    +0.000 C 
ATOM     10  C   UNL     1      -7.145  13.682  17.657  0.00  0.00    +0.000 C 
ATOM     11  O   UNL     1      -7.420  13.747  16.471  0.00  0.00    +0.000 OA
ATOM     12  C   UNL     1      -6.818  14.871  18.480  0.00  0.00    +0.000 C 
ATOM     13  C   UNL     1      -6.160  14.718  19.646  0.00  0.00    +0.000 C 
ATOM     14  C   UNL     1      -5.588  13.374  20.138  0.00  0.00    +0.000 C 
ATOM     15  C   UNL     1      -6.278  13.008  21.463  0.00  0.00    +0.000 C 
ATOM     16  C   UNL     1      -3.985  13.545  20.255  0.00  0.00    +0.000 C 
ATOM     17  C   UNL     1      -3.288  14.206  21.533  0.00  0.00    +0.000 C 
ATOM     18  C   UNL     1      -1.658  14.076  21.653  0.00  0.00    +0.000 C 
ATOM     19  C   UNL     1      -1.140  12.630  21.263  0.00  0.00    +0.000 C 
ATOM     20  C   UNL     1      -1.586  11.771  22.452  0.00  0.00    +0.000 C 
ENDROOT
BRANCH   1  21
ATOM     21  C   UNL     1       0.775  10.606  21.088  0.00  0.00    +0.000 C 
ATOM     22  O   UNL     1       1.130  10.114  22.169  0.00  0.00    +0.000 OA
BRANCH  21  23
ATOM     23  C   UNL     1       0.696   9.672  19.872  0.00  0.00    +0.000 C 
BRANCH  23  24
ATOM     24  O   UNL     1       1.507   8.493  19.916  0.00  0.00    +0.000 OA
BRANCH  24  26
ATOM     25  C   UNL     1       1.945   9.279  17.755  0.00  0.00    +0.000 C 
ATOM     26  C   UNL     1       2.129   8.173  18.752  0.00  0.00    +0.000 C 
ATOM     27  O   UNL     1       2.667   7.103  18.518  0.00  0.00    +0.000 OA
ENDBRANCH  24  26
ENDBRANCH  23  24
ENDBRANCH  21  23
ENDBRANCH   1  21
BRANCH   1  28
ATOM     28  O   UNL     1       1.315  12.985  21.651  0.00  0.00    +0.000 OA
ATOM     29  H   UNL     1       1.395  12.609  22.545  0.00  0.00    +0.000 HD
ENDBRANCH   1  28
BRANCH  17  30
ATOM     30  O   UNL     1      -3.879  13.736  22.742  0.00  0.00    +0.000 OA
ATOM     31  H   UNL     1      -3.820  12.767  22.763  0.00  0.00    +0.000 HD
ENDBRANCH  17  30
TORSDOF 6
ENDMDL
MODEL 8
REMARK VINA RESULT:      -6.3      7.242     10.138
REMARK  Name = 
REMARK  9 active torsions:
REMARK  status: ('A' for Active; 'I' for Inactive)
REMARK    1  A    between atoms: C_1  and  C_2
REMARK    2  A    between atoms: C_2  and  O_4
REMARK    3  A    between atoms: O_4  and  C_5
REMARK    4  A    between atoms: C_5  and  C_6
REMARK    5  A    between atoms: C_6  and  C_8
REMARK    6  A    between atoms: C_8  and  O_9
REMARK    7  A    between atoms: C_22  and  C_23
REMARK    8  A    between atoms: C_25  and  O_26
REMARK    9  A    between atoms: C_28  and  C_29
REMARK                            x       y       z     vdW  Elec       q    Type
REMARK                         _______ _______ _______ _____ _____    ______ ____
ROOT
ATOM      1  C   UNL     1       0.075  11.719  19.058  0.00  0.00    +0.000 C 
ATOM      2  C   UNL     1      -0.561  12.819  18.181  0.00  0.00    +0.000 C 
ATOM      3  C   UNL     1      -2.029  12.719  18.583  0.00  0.00    +0.000 C 
ATOM      4  C   UNL     1      -1.885  12.762  20.087  0.00  0.00    +0.000 C 
ATOM      5  C   UNL     1      -3.057  12.562  21.012  0.00  0.00    +0.000 C 
ATOM      6  C   UNL     1      -4.347  13.020  20.349  0.00  0.00    +0.000 C 
ATOM      7  C   UNL     1      -5.500  12.563  21.199  0.00  0.00    +0.000 C 
ATOM      8  C   UNL     1      -5.426  13.160  22.571  0.00  0.00    +0.000 C 
ATOM      9  C   UNL     1      -6.575  13.715  23.018  0.00  0.00    +0.000 C 
ATOM     10  C   UNL     1      -6.383  15.202  23.044  0.00  0.00    +0.000 C 
ATOM     11  O   UNL     1      -7.202  15.971  22.568  0.00  0.00    +0.000 OA
ATOM     12  C   UNL     1      -5.170  15.656  23.767  0.00  0.00    +0.000 C 
ATOM     13  C   UNL     1      -4.131  14.812  23.924  0.00  0.00    +0.000 C 
ATOM     14  C   UNL     1      -4.054  13.415  23.277  0.00  0.00    +0.000 C 
ATOM     15  C   UNL     1      -3.975  12.364  24.399  0.00  0.00    +0.000 C 
ATOM     16  C   UNL     1      -2.782  13.413  22.282  0.00  0.00    +0.000 C 
ATOM     17  C   UNL     1      -1.291  13.156  22.801  0.00  0.00    +0.000 C 
ATOM     18  C   UNL     1      -0.132  12.909  21.668  0.00  0.00    +0.000 C 
ATOM     19  C   UNL     1      -0.624  11.956  20.501  0.00  0.00    +0.000 C 
ATOM     20  C   UNL     1      -0.667  10.579  21.175  0.00  0.00    +0.000 C 
ENDROOT
BRANCH   1  21
ATOM     21  C   UNL     1      -0.269  10.351  18.246  0.00  0.00    +0.000 C 
ATOM     22  O   UNL     1       0.615   9.557  17.891  0.00  0.00    +0.000 OA
BRANCH  21  23
ATOM     23  C   UNL     1      -1.724   9.996  17.907  0.00  0.00    +0.000 C 
BRANCH  23  24
ATOM     24  O   UNL     1      -1.991   9.614  16.552  0.00  0.00    +0.000 OA
BRANCH  24  26
ATOM     25  C   UNL     1      -3.038  10.085  14.512  0.00  0.00    +0.000 C 
ATOM     26  C   UNL     1      -3.114  10.152  16.009  0.00  0.00    +0.000 C 
ATOM     27  O   UNL     1      -4.001  10.701  16.641  0.00  0.00    +0.000 OA
ENDBRANCH  24  26
ENDBRANCH  23  24
ENDBRANCH  21  23
ENDBRANCH   1  21
BRANCH   1  28
ATOM     28  O   UNL     1       1.481  11.905  19.135  0.00  0.00    +0.000 OA
ATOM     29  H   UNL     1       1.863  11.534  18.321  0.00  0.00    +0.000 HD
ENDBRANCH   1  28
BRANCH  17  30
ATOM     30  O   UNL     1      -1.252  12.086  23.742  0.00  0.00    +0.000 OA
ATOM     31  H   UNL     1      -0.946  11.283  23.289  0.00  0.00    +0.000 HD
ENDBRANCH  17  30
TORSDOF 6
ENDMDL
MODEL 9
REMARK VINA RESULT:      -6.3      1.590      2.549
REMARK  Name = 
REMARK  9 active torsions:
REMARK  status: ('A' for Active; 'I' for Inactive)
REMARK    1  A    between atoms: C_1  and  C_2
REMARK    2  A    between atoms: C_2  and  O_4
REMARK    3  A    between atoms: O_4  and  C_5
REMARK    4  A    between atoms: C_5  and  C_6
REMARK    5  A    between atoms: C_6  and  C_8
REMARK    6  A    between atoms: C_8  and  O_9
REMARK    7  A    between atoms: C_22  and  C_23
REMARK    8  A    between atoms: C_25  and  O_26
REMARK    9  A    between atoms: C_28  and  C_29
REMARK                            x       y       z     vdW  Elec       q    Type
REMARK                         _______ _______ _______ _____ _____    ______ ____
ROOT
ATOM      1  C   UNL     1       4.604   4.305  18.161  0.00  0.00    +0.000 C 
ATOM      2  C   UNL     1       5.610   5.467  18.009  0.00  0.00    +0.000 C 
ATOM      3  C   UNL     1       4.691   6.615  17.606  0.00  0.00    +0.000 C 
ATOM      4  C   UNL     1       3.640   6.492  18.685  0.00  0.00    +0.000 C 
ATOM      5  C   UNL     1       2.388   7.329  18.688  0.00  0.00    +0.000 C 
ATOM      6  C   UNL     1       2.636   8.665  18.004  0.00  0.00    +0.000 C 
ATOM      7  C   UNL     1       1.309   9.344  17.803  0.00  0.00    +0.000 C 
ATOM      8  C   UNL     1       0.629   9.592  19.114  0.00  0.00    +0.000 C 
ATOM      9  C   UNL     1       0.150  10.846  19.283  0.00  0.00    +0.000 C 
ATOM     10  C   UNL     1       1.003  11.525  20.312  0.00  0.00    +0.000 C 
ATOM     11  O   UNL     1       1.459  12.644  20.142  0.00  0.00    +0.000 OA
ATOM     12  C   UNL     1       1.171  10.765  21.575  0.00  0.00    +0.000 C 
ATOM     13  C   UNL     1       0.998   9.429  21.578  0.00  0.00    +0.000 C 
ATOM     14  C   UNL     1       0.762   8.590  20.307  0.00  0.00    +0.000 C 
ATOM     15  C   UNL     1      -0.614   7.911  20.421  0.00  0.00    +0.000 C 
ATOM     16  C   UNL     1       1.998   7.558  20.173  0.00  0.00    +0.000 C 
ATOM     17  C   UNL     1       2.043   6.171  20.970  0.00  0.00    +0.000 C 
ATOM     18  C   UNL     1       3.206   5.097  20.545  0.00  0.00    +0.000 C 
ATOM     19  C   UNL     1       3.380   4.988  18.975  0.00  0.00    +0.000 C 
ATOM     20  C   UNL     1       2.118   4.235  18.538  0.00  0.00    +0.000 C 
ENDROOT
BRANCH   1  21
ATOM     21  C   UNL     1       4.347   3.833  16.624  0.00  0.00    +0.000 C 
ATOM     22  O   UNL     1       3.210   3.591  16.192  0.00  0.00    +0.000 OA
BRANCH  21  23
ATOM     23  C   UNL     1       5.525   3.689  15.651  0.00  0.00    +0.000 C 
BRANCH  23  24
ATOM     24  O   UNL     1       5.514   4.542  14.500  0.00  0.00    +0.000 OA
BRANCH  24  26
ATOM     25  C   UNL     1       6.703   3.895  12.591  0.00  0.00    +0.000 C 
ATOM     26  C   UNL     1       6.708   4.680  13.869  0.00  0.00    +0.000 C 
ATOM     27  O   UNL     1       7.674   5.270  14.324  0.00  0.00    +0.000 OA
ENDBRANCH  24  26
ENDBRANCH  23  24
ENDBRANCH  21  23
ENDBRANCH   1  21
BRANCH   1  28
ATOM     28  O   UNL     1       5.187   3.247  18.909  0.00  0.00    +0.000 OA
ATOM     29  H   UNL     1       4.633   3.115  19.697  0.00  0.00    +0.000 HD
ENDBRANCH   1  28
BRANCH  17  30
ATOM     30  O   UNL     1       0.777   5.518  20.937  0.00  0.00    +0.000 OA
ATOM     31  H   UNL     1       0.501   5.417  20.011  0.00  0.00    +0.000 HD
ENDBRANCH  17  30
TORSDOF 6
ENDMDL
