MODEL 1
REMARK VINA RESULT:      -8.5      0.000      0.000
REMARK  Name = 
REMARK  7 active torsions:
REMARK  status: ('A' for Active; 'I' for Inactive)
REMARK    1  A    between atoms: C_1  and  O_2
REMARK    2  A    between atoms: O_2  and  C_3
REMARK    3  A    between atoms: C_6  and  S_7
REMARK    4  A    between atoms: S_7  and  N_10
REMARK    5  A    between atoms: C_13  and  C_14
REMARK    6  A    between atoms: N_16  and  C_17
REMARK    7  A    between atoms: C_17  and  C_18
REMARK                            x       y       z     vdW  Elec       q    Type
REMARK                         _______ _______ _______ _____ _____    ______ ____
ROOT
ATOM      1  N   UNL     1       5.296   4.569  18.407  0.00  0.00    +0.000 NA
ATOM      2  C   UNL     1       5.913   4.707  17.065  0.00  0.00    +0.000 C 
ATOM      3  C   UNL     1       7.437   4.793  17.131  0.00  0.00    +0.000 C 
ATOM      4  C   UNL     1       7.915   5.840  18.138  0.00  0.00    +0.000 C 
ATOM      5  C   UNL     1       7.366   5.450  19.509  0.00  0.00    +0.000 C 
ATOM      6  C   UNL     1       5.845   5.391  19.512  0.00  0.00    +0.000 C 
ENDROOT
BRANCH   4   7
ATOM      7  C   UNL     1       7.532   7.262  17.711  0.00  0.00    +0.000 C 
ATOM      8  O   UNL     1       6.650   7.495  16.888  0.00  0.00    +0.000 OA
ATOM      9  N   UNL     1       8.283   8.255  18.290  0.00  0.00    +0.000 N 
ATOM     10  H   UNL     1       9.061   8.017  18.889  0.00  0.00    +0.000 HD
BRANCH   9  11
ATOM     11  C   UNL     1       8.124   9.649  17.931  0.00  0.00    +0.000 C 
BRANCH  11  12
ATOM     12  C   UNL     1       9.188  10.501  18.565  0.00  0.00    +0.000 A 
ATOM     13  C   UNL     1       9.245  10.661  19.952  0.00  0.00    +0.000 A 
ATOM     14  C   UNL     1      10.254  11.446  20.490  0.00  0.00    +0.000 A 
ATOM     15  N   UNL     1      11.189  12.077  19.752  0.00  0.00    +0.000 NA
ATOM     16  C   UNL     1      11.114  11.919  18.413  0.00  0.00    +0.000 A 
ATOM     17  C   UNL     1      10.143  11.157  17.781  0.00  0.00    +0.000 A 
ENDBRANCH  11  12
ENDBRANCH   9  11
ENDBRANCH   4   7
BRANCH   1  18
ATOM     18  S   UNL     1       3.582   4.424  18.408  0.00  0.00    +0.000 S 
ATOM     19  O   UNL     1       3.208   3.689  19.600  0.00  0.00    +0.000 OA
ATOM     20  O   UNL     1       3.149   3.992  17.096  0.00  0.00    +0.000 OA
BRANCH  18  24
ATOM     21  C   UNL     1       1.955   8.687  18.943  0.00  0.00    +0.000 A 
ATOM     22  C   UNL     1       2.623   8.321  17.768  0.00  0.00    +0.000 A 
ATOM     23  C   UNL     1       3.124   7.026  17.605  0.00  0.00    +0.000 A 
ATOM     24  C   UNL     1       2.995   6.099  18.638  0.00  0.00    +0.000 A 
ATOM     25  C   UNL     1       2.326   6.445  19.818  0.00  0.00    +0.000 A 
ATOM     26  C   UNL     1       1.811   7.737  19.967  0.00  0.00    +0.000 A 
ATOM     27 CL   UNL     1       0.960   8.109  21.425  0.00  0.00    +0.000 Cl
BRANCH  21  29
ATOM     28  C   UNL     1       0.286  10.280  18.434  0.00  0.00    +0.000 C 
ATOM     29  O   UNL     1       1.467   9.950  19.162  0.00  0.00    +0.000 OA
ENDBRANCH  21  29
ENDBRANCH  18  24
ENDBRANCH   1  18
TORSDOF 6
ENDMDL
MODEL 2
REMARK VINA RESULT:      -8.3      1.234      1.775
REMARK  Name = 
REMARK  7 active torsions:
REMARK  status: ('A' for Active; 'I' for Inactive)
REMARK    1  A    between atoms: C_1  and  O_2
REMARK    2  A    between atoms: O_2  and  C_3
REMARK    3  A    between atoms: C_6  and  S_7
REMARK    4  A    between atoms: S_7  and  N_10
REMARK    5  A    between atoms: C_13  and  C_14
REMARK    6  A    between atoms: N_16  and  C_17
REMARK    7  A    between atoms: C_17  and  C_18
REMARK                            x       y       z     vdW  Elec       q    Type
REMARK                         _______ _______ _______ _____ _____    ______ ____
ROOT
ATOM      1  N   UNL     1       5.275   4.310  18.314  0.00  0.00    +0.000 NA
ATOM      2  C   UNL     1       6.024   4.392  17.036  0.00  0.00    +0.000 C 
ATOM      3  C   UNL     1       7.522   4.598  17.252  0.00  0.00    +0.000 C 
ATOM      4  C   UNL     1       7.816   5.751  18.212  0.00  0.00    +0.000 C 
ATOM      5  C   UNL     1       7.148   5.425  19.547  0.00  0.00    +0.000 C 
ATOM      6  C   UNL     1       5.644   5.251  19.397  0.00  0.00    +0.000 C 
ENDROOT
BRANCH   4   7
ATOM      7  C   UNL     1       7.387   7.104  17.631  0.00  0.00    +0.000 C 
ATOM      8  O   UNL     1       6.474   7.219  16.818  0.00  0.00    +0.000 OA
ATOM      9  N   UNL     1       8.133   8.174  18.061  0.00  0.00    +0.000 N 
ATOM     10  H   UNL     1       8.935   8.024  18.657  0.00  0.00    +0.000 HD
BRANCH   9  11
ATOM     11  C   UNL     1       7.932   9.510  17.543  0.00  0.00    +0.000 C 
BRANCH  11  12
ATOM     12  C   UNL     1       8.713  10.525  18.330  0.00  0.00    +0.000 A 
ATOM     13  C   UNL     1       8.885  11.827  17.850  0.00  0.00    +0.000 A 
ATOM     14  C   UNL     1       9.602  12.730  18.620  0.00  0.00    +0.000 A 
ATOM     15  N   UNL     1      10.156  12.428  19.811  0.00  0.00    +0.000 NA
ATOM     16  C   UNL     1       9.988  11.165  20.256  0.00  0.00    +0.000 A 
ATOM     17  C   UNL     1       9.291  10.190  19.559  0.00  0.00    +0.000 A 
ENDBRANCH  11  12
ENDBRANCH   9  11
ENDBRANCH   4   7
BRANCH   1  18
ATOM     18  S   UNL     1       3.585   4.036  18.150  0.00  0.00    +0.000 S 
ATOM     19  O   UNL     1       3.236   2.928  19.018  0.00  0.00    +0.000 OA
ATOM     20  O   UNL     1       3.249   4.017  16.742  0.00  0.00    +0.000 OA
BRANCH  18  24
ATOM     21  C   UNL     1       1.764   7.818  20.019  0.00  0.00    +0.000 A 
ATOM     22  C   UNL     1       1.793   6.612  20.732  0.00  0.00    +0.000 A 
ATOM     23  C   UNL     1       2.341   5.459  20.164  0.00  0.00    +0.000 A 
ATOM     24  C   UNL     1       2.828   5.495  18.858  0.00  0.00    +0.000 A 
ATOM     25  C   UNL     1       2.812   6.692  18.132  0.00  0.00    +0.000 A 
ATOM     26  C   UNL     1       2.279   7.847  18.713  0.00  0.00    +0.000 A 
ATOM     27 CL   UNL     1       2.314   9.310  17.793  0.00  0.00    +0.000 Cl
BRANCH  21  29
ATOM     28  C   UNL     1       0.963   8.960  21.926  0.00  0.00    +0.000 C 
ATOM     29  O   UNL     1       1.215   8.970  20.522  0.00  0.00    +0.000 OA
ENDBRANCH  21  29
ENDBRANCH  18  24
ENDBRANCH   1  18
TORSDOF 6
ENDMDL
MODEL 3
REMARK VINA RESULT:      -7.5      5.040      7.493
REMARK  Name = 
REMARK  7 active torsions:
REMARK  status: ('A' for Active; 'I' for Inactive)
REMARK    1  A    between atoms: C_1  and  O_2
REMARK    2  A    between atoms: O_2  and  C_3
REMARK    3  A    between atoms: C_6  and  S_7
REMARK    4  A    between atoms: S_7  and  N_10
REMARK    5  A    between atoms: C_13  and  C_14
REMARK    6  A    between atoms: N_16  and  C_17
REMARK    7  A    between atoms: C_17  and  C_18
REMARK                            x       y       z     vdW  Elec       q    Type
REMARK                         _______ _______ _______ _____ _____    ______ ____
ROOT
ATOM      1  N   UNL     1       4.538   4.231  17.919  0.00  0.00    +0.000 NA
ATOM      2  C   UNL     1       4.552   3.454  19.183  0.00  0.00    +0.000 C 
ATOM      3  C   UNL     1       3.226   2.742  19.444  0.00  0.00    +0.000 C 
ATOM      4  C   UNL     1       2.028   3.682  19.314  0.00  0.00    +0.000 C 
ATOM      5  C   UNL     1       2.033   4.248  17.895  0.00  0.00    +0.000 C 
ATOM      6  C   UNL     1       3.317   5.007  17.595  0.00  0.00    +0.000 C 
ENDROOT
BRANCH   4   7
ATOM      7  C   UNL     1       2.030   4.765  20.401  0.00  0.00    +0.000 C 
ATOM      8  O   UNL     1       2.199   4.512  21.591  0.00  0.00    +0.000 OA
ATOM      9  N   UNL     1       1.786   6.036  19.942  0.00  0.00    +0.000 N 
ATOM     10  H   UNL     1       1.558   6.188  18.970  0.00  0.00    +0.000 HD
BRANCH   9  11
ATOM     11  C   UNL     1       1.655   7.165  20.838  0.00  0.00    +0.000 C 
BRANCH  11  12
ATOM     12  C   UNL     1       1.466   8.448  20.077  0.00  0.00    +0.000 A 
ATOM     13  C   UNL     1       0.870   9.558  20.682  0.00  0.00    +0.000 A 
ATOM     14  C   UNL     1       0.731  10.723  19.943  0.00  0.00    +0.000 A 
ATOM     15  N   UNL     1       1.133  10.853  18.662  0.00  0.00    +0.000 NA
ATOM     16  C   UNL     1       1.700   9.768  18.091  0.00  0.00    +0.000 A 
ATOM     17  C   UNL     1       1.880   8.559  18.746  0.00  0.00    +0.000 A 
ENDBRANCH  11  12
ENDBRANCH   9  11
ENDBRANCH   4   7
BRANCH   1  18
ATOM     18  S   UNL     1       6.013   5.027  17.537  0.00  0.00    +0.000 S 
ATOM     19  O   UNL     1       7.066   4.379  18.294  0.00  0.00    +0.000 OA
ATOM     20  O   UNL     1       5.806   6.458  17.619  0.00  0.00    +0.000 OA
BRANCH  18  24
ATOM     21  C   UNL     1       6.669   4.102  13.085  0.00  0.00    +0.000 A 
ATOM     22  C   UNL     1       5.657   3.455  13.807  0.00  0.00    +0.000 A 
ATOM     23  C   UNL     1       5.459   3.732  15.163  0.00  0.00    +0.000 A 
ATOM     24  C   UNL     1       6.302   4.628  15.817  0.00  0.00    +0.000 A 
ATOM     25  C   UNL     1       7.316   5.287  15.112  0.00  0.00    +0.000 A 
ATOM     26  C   UNL     1       7.497   5.021  13.751  0.00  0.00    +0.000 A 
ATOM     27 CL   UNL     1       8.736   5.885  12.911  0.00  0.00    +0.000 Cl
BRANCH  21  29
ATOM     28  C   UNL     1       7.006   2.468  11.412  0.00  0.00    +0.000 C 
ATOM     29  O   UNL     1       6.920   3.848  11.761  0.00  0.00    +0.000 OA
ENDBRANCH  21  29
ENDBRANCH  18  24
ENDBRANCH   1  18
TORSDOF 6
ENDMDL
MODEL 4
REMARK VINA RESULT:      -7.3      4.203      7.382
REMARK  Name = 
REMARK  7 active torsions:
REMARK  status: ('A' for Active; 'I' for Inactive)
REMARK    1  A    between atoms: C_1  and  O_2
REMARK    2  A    between atoms: O_2  and  C_3
REMARK    3  A    between atoms: C_6  and  S_7
REMARK    4  A    between atoms: S_7  and  N_10
REMARK    5  A    between atoms: C_13  and  C_14
REMARK    6  A    between atoms: N_16  and  C_17
REMARK    7  A    between atoms: C_17  and  C_18
REMARK                            x       y       z     vdW  Elec       q    Type
REMARK                         _______ _______ _______ _____ _____    ______ ____
ROOT
ATOM      1  N   UNL     1       2.809   2.571  19.636  0.00  0.00    +0.000 NA
ATOM      2  C   UNL     1       2.927   3.066  21.030  0.00  0.00    +0.000 C 
ATOM      3  C   UNL     1       1.587   3.533  21.597  0.00  0.00    +0.000 C 
ATOM      4  C   UNL     1       0.867   4.502  20.659  0.00  0.00    +0.000 C 
ATOM      5  C   UNL     1       0.637   3.780  19.333  0.00  0.00    +0.000 C 
ATOM      6  C   UNL     1       1.945   3.329  18.701  0.00  0.00    +0.000 C 
ENDROOT
BRANCH   4   7
ATOM      7  C   UNL     1       1.629   5.824  20.507  0.00  0.00    +0.000 C 
ATOM      8  O   UNL     1       2.766   5.888  20.047  0.00  0.00    +0.000 OA
ATOM      9  N   UNL     1       0.955   6.929  20.966  0.00  0.00    +0.000 N 
ATOM     10  H   UNL     1       0.060   6.822  21.424  0.00  0.00    +0.000 HD
BRANCH   9  11
ATOM     11  C   UNL     1       1.559   8.244  20.991  0.00  0.00    +0.000 C 
BRANCH  11  12
ATOM     12  C   UNL     1       0.581   9.287  21.457  0.00  0.00    +0.000 A 
ATOM     13  C   UNL     1       0.125  10.282  20.588  0.00  0.00    +0.000 A 
ATOM     14  C   UNL     1      -0.787  11.212  21.062  0.00  0.00    +0.000 A 
ATOM     15  N   UNL     1      -1.262  11.222  22.323  0.00  0.00    +0.000 NA
ATOM     16  C   UNL     1      -0.806  10.259  23.152  0.00  0.00    +0.000 A 
ATOM     17  C   UNL     1       0.108   9.287  22.773  0.00  0.00    +0.000 A 
ENDBRANCH  11  12
ENDBRANCH   9  11
ENDBRANCH   4   7
BRANCH   1  18
ATOM     18  S   UNL     1       4.272   1.989  18.946  0.00  0.00    +0.000 S 
ATOM     19  O   UNL     1       3.918   1.124  17.838  0.00  0.00    +0.000 OA
ATOM     20  O   UNL     1       5.138   1.524  20.009  0.00  0.00    +0.000 OA
BRANCH  18  24
ATOM     21  C   UNL     1       6.349   5.648  17.102  0.00  0.00    +0.000 A 
ATOM     22  C   UNL     1       6.362   5.443  18.488  0.00  0.00    +0.000 A 
ATOM     23  C   UNL     1       5.727   4.334  19.052  0.00  0.00    +0.000 A 
ATOM     24  C   UNL     1       5.036   3.442  18.233  0.00  0.00    +0.000 A 
ATOM     25  C   UNL     1       5.016   3.627  16.846  0.00  0.00    +0.000 A 
ATOM     26  C   UNL     1       5.670   4.729  16.286  0.00  0.00    +0.000 A 
ATOM     27 CL   UNL     1       5.651   4.898  14.565  0.00  0.00    +0.000 Cl
BRANCH  21  29
ATOM     28  C   UNL     1       7.573   7.649  17.392  0.00  0.00    +0.000 C 
ATOM     29  O   UNL     1       6.936   6.733  16.502  0.00  0.00    +0.000 OA
ENDBRANCH  21  29
ENDBRANCH  18  24
ENDBRANCH   1  18
TORSDOF 6
ENDMDL
MODEL 5
REMARK VINA RESULT:      -7.1      3.361      5.297
REMARK  Name = 
REMARK  7 active torsions:
REMARK  status: ('A' for Active; 'I' for Inactive)
REMARK    1  A    between atoms: C_1  and  O_2
REMARK    2  A    between atoms: O_2  and  C_3
REMARK    3  A    between atoms: C_6  and  S_7
REMARK    4  A    between atoms: S_7  and  N_10
REMARK    5  A    between atoms: C_13  and  C_14
REMARK    6  A    between atoms: N_16  and  C_17
REMARK    7  A    between atoms: C_17  and  C_18
REMARK                            x       y       z     vdW  Elec       q    Type
REMARK                         _______ _______ _______ _____ _____    ______ ____
ROOT
ATOM      1  N   UNL     1       4.596   6.266  18.855  0.00  0.00    +0.000 NA
ATOM      2  C   UNL     1       5.520   5.326  19.536  0.00  0.00    +0.000 C 
ATOM      3  C   UNL     1       6.983   5.742  19.393  0.00  0.00    +0.000 C 
ATOM      4  C   UNL     1       7.364   6.035  17.942  0.00  0.00    +0.000 C 
ATOM      5  C   UNL     1       6.462   7.162  17.444  0.00  0.00    +0.000 C 
ATOM      6  C   UNL     1       4.990   6.784  17.523  0.00  0.00    +0.000 C 
ENDROOT
BRANCH   4   7
ATOM      7  C   UNL     1       7.302   4.775  17.069  0.00  0.00    +0.000 C 
ATOM      8  O   UNL     1       8.216   3.957  17.016  0.00  0.00    +0.000 OA
ATOM      9  N   UNL     1       6.159   4.656  16.317  0.00  0.00    +0.000 N 
ATOM     10  H   UNL     1       5.474   5.399  16.318  0.00  0.00    +0.000 HD
BRANCH   9  11
ATOM     11  C   UNL     1       5.974   3.582  15.364  0.00  0.00    +0.000 C 
BRANCH  11  12
ATOM     12  C   UNL     1       6.486   3.964  14.003  0.00  0.00    +0.000 A 
ATOM     13  C   UNL     1       6.089   3.257  12.864  0.00  0.00    +0.000 A 
ATOM     14  C   UNL     1       6.578   3.656  11.630  0.00  0.00    +0.000 A 
ATOM     15  N   UNL     1       7.427   4.690  11.457  0.00  0.00    +0.000 NA
ATOM     16  C   UNL     1       7.806   5.357  12.568  0.00  0.00    +0.000 A 
ATOM     17  C   UNL     1       7.374   5.032  13.845  0.00  0.00    +0.000 A 
ENDBRANCH  11  12
ENDBRANCH   9  11
ENDBRANCH   4   7
BRANCH   1  18
ATOM     18  S   UNL     1       2.927   5.884  19.008  0.00  0.00    +0.000 S 
ATOM     19  O   UNL     1       2.764   5.121  20.230  0.00  0.00    +0.000 OA
ATOM     20  O   UNL     1       2.445   5.377  17.741  0.00  0.00    +0.000 OA
BRANCH  18  24
ATOM     21  C   UNL     1       0.768   9.882  19.691  0.00  0.00    +0.000 A 
ATOM     22  C   UNL     1       1.270   9.548  18.426  0.00  0.00    +0.000 A 
ATOM     23  C   UNL     1       1.931   8.335  18.217  0.00  0.00    +0.000 A 
ATOM     24  C   UNL     1       2.133   7.464  19.286  0.00  0.00    +0.000 A 
ATOM     25  C   UNL     1       1.636   7.778  20.556  0.00  0.00    +0.000 A 
ATOM     26  C   UNL     1       0.958   8.985  20.755  0.00  0.00    +0.000 A 
ATOM     27 CL   UNL     1       0.328   9.314  22.331  0.00  0.00    +0.000 Cl
BRANCH  21  29
ATOM     28  C   UNL     1      -1.191  11.178  19.436  0.00  0.00    +0.000 C 
ATOM     29  O   UNL     1       0.134  11.069  19.953  0.00  0.00    +0.000 OA
ENDBRANCH  21  29
ENDBRANCH  18  24
ENDBRANCH   1  18
TORSDOF 6
ENDMDL
MODEL 6
REMARK VINA RESULT:      -7.1      5.510     10.348
REMARK  Name = 
REMARK  7 active torsions:
REMARK  status: ('A' for Active; 'I' for Inactive)
REMARK    1  A    between atoms: C_1  and  O_2
REMARK    2  A    between atoms: O_2  and  C_3
REMARK    3  A    between atoms: C_6  and  S_7
REMARK    4  A    between atoms: S_7  and  N_10
REMARK    5  A    between atoms: C_13  and  C_14
REMARK    6  A    between atoms: N_16  and  C_17
REMARK    7  A    between atoms: C_17  and  C_18
REMARK                            x       y       z     vdW  Elec       q    Type
REMARK                         _______ _______ _______ _____ _____    ______ ____
ROOT
ATOM      1  N   UNL     1       0.500  10.094  20.018  0.00  0.00    +0.000 NA
ATOM      2  C   UNL     1      -0.833  10.068  19.369  0.00  0.00    +0.000 C 
ATOM      3  C   UNL     1      -0.965  11.118  18.267  0.00  0.00    +0.000 C 
ATOM      4  C   UNL     1      -0.538  12.508  18.738  0.00  0.00    +0.000 C 
ATOM      5  C   UNL     1       0.919  12.419  19.186  0.00  0.00    +0.000 C 
ATOM      6  C   UNL     1       1.102  11.415  20.316  0.00  0.00    +0.000 C 
ENDROOT
BRANCH   4   7
ATOM      7  C   UNL     1      -1.475  13.059  19.819  0.00  0.00    +0.000 C 
ATOM      8  O   UNL     1      -1.067  13.656  20.812  0.00  0.00    +0.000 OA
ATOM      9  N   UNL     1      -2.807  12.796  19.610  0.00  0.00    +0.000 N 
ATOM     10  H   UNL     1      -3.092  12.221  18.830  0.00  0.00    +0.000 HD
BRANCH   9  11
ATOM     11  C   UNL     1      -3.823  13.156  20.576  0.00  0.00    +0.000 C 
BRANCH  11  12
ATOM     12  C   UNL     1      -5.120  12.449  20.295  0.00  0.00    +0.000 A 
ATOM     13  C   UNL     1      -6.141  12.420  21.249  0.00  0.00    +0.000 A 
ATOM     14  C   UNL     1      -7.324  11.767  20.937  0.00  0.00    +0.000 A 
ATOM     15  N   UNL     1      -7.551  11.145  19.763  0.00  0.00    +0.000 NA
ATOM     16  C   UNL     1      -6.551  11.175  18.856  0.00  0.00    +0.000 A 
ATOM     17  C   UNL     1      -5.332  11.800  19.075  0.00  0.00    +0.000 A 
ENDBRANCH  11  12
ENDBRANCH   9  11
ENDBRANCH   4   7
BRANCH   1  18
ATOM     18  S   UNL     1       0.736   8.909  21.242  0.00  0.00    +0.000 S 
ATOM     19  O   UNL     1      -0.572   8.434  21.647  0.00  0.00    +0.000 OA
ATOM     20  O   UNL     1       1.678   9.423  22.214  0.00  0.00    +0.000 OA
BRANCH  18  24
ATOM     21  C   UNL     1       2.898   5.444  19.139  0.00  0.00    +0.000 A 
ATOM     22  C   UNL     1       2.897   6.729  18.580  0.00  0.00    +0.000 A 
ATOM     23  C   UNL     1       2.236   7.783  19.216  0.00  0.00    +0.000 A 
ATOM     24  C   UNL     1       1.533   7.549  20.396  0.00  0.00    +0.000 A 
ATOM     25  C   UNL     1       1.527   6.273  20.972  0.00  0.00    +0.000 A 
ATOM     26  C   UNL     1       2.206   5.226  20.342  0.00  0.00    +0.000 A 
ATOM     27 CL   UNL     1       2.203   3.676  21.108  0.00  0.00    +0.000 Cl
BRANCH  21  29
ATOM     28  C   UNL     1       2.764   3.747  17.500  0.00  0.00    +0.000 C 
ATOM     29  O   UNL     1       3.510   4.371  18.544  0.00  0.00    +0.000 OA
ENDBRANCH  21  29
ENDBRANCH  18  24
ENDBRANCH   1  18
TORSDOF 6
ENDMDL
MODEL 7
REMARK VINA RESULT:      -7.1      5.385     10.416
REMARK  Name = 
REMARK  7 active torsions:
REMARK  status: ('A' for Active; 'I' for Inactive)
REMARK    1  A    between atoms: C_1  and  O_2
REMARK    2  A    between atoms: O_2  and  C_3
REMARK    3  A    between atoms: C_6  and  S_7
REMARK    4  A    between atoms: S_7  and  N_10
REMARK    5  A    between atoms: C_13  and  C_14
REMARK    6  A    between atoms: N_16  and  C_17
REMARK    7  A    between atoms: C_17  and  C_18
REMARK                            x       y       z     vdW  Elec       q    Type
REMARK                         _______ _______ _______ _____ _____    ______ ____
ROOT
ATOM      1  N   UNL     1       0.504  10.027  20.267  0.00  0.00    +0.000 NA
ATOM      2  C   UNL     1      -0.758   9.997  19.487  0.00  0.00    +0.000 C 
ATOM      3  C   UNL     1      -0.822  11.109  18.441  0.00  0.00    +0.000 C 
ATOM      4  C   UNL     1      -0.497  12.481  19.032  0.00  0.00    +0.000 C 
ATOM      5  C   UNL     1       0.911  12.412  19.618  0.00  0.00    +0.000 C 
ATOM      6  C   UNL     1       1.021  11.347  20.700  0.00  0.00    +0.000 C 
ENDROOT
BRANCH   4   7
ATOM      7  C   UNL     1      -1.557  12.933  20.044  0.00  0.00    +0.000 C 
ATOM      8  O   UNL     1      -1.286  13.224  21.206  0.00  0.00    +0.000 OA
ATOM      9  N   UNL     1      -2.842  12.945  19.560  0.00  0.00    +0.000 N 
ATOM     10  H   UNL     1      -3.034  12.608  18.627  0.00  0.00    +0.000 HD
BRANCH   9  11
ATOM     11  C   UNL     1      -3.979  13.252  20.402  0.00  0.00    +0.000 C 
BRANCH  11  12
ATOM     12  C   UNL     1      -5.148  12.360  20.088  0.00  0.00    +0.000 A 
ATOM     13  C   UNL     1      -5.222  11.678  18.871  0.00  0.00    +0.000 A 
ATOM     14  C   UNL     1      -6.313  10.857  18.634  0.00  0.00    +0.000 A 
ATOM     15  N   UNL     1      -7.323  10.678  19.510  0.00  0.00    +0.000 NA
ATOM     16  C   UNL     1      -7.239  11.350  20.678  0.00  0.00    +0.000 A 
ATOM     17  C   UNL     1      -6.191  12.196  21.006  0.00  0.00    +0.000 A 
ENDBRANCH  11  12
ENDBRANCH   9  11
ENDBRANCH   4   7
BRANCH   1  18
ATOM     18  S   UNL     1       0.665   8.778  21.438  0.00  0.00    +0.000 S 
ATOM     19  O   UNL     1      -0.664   8.270  21.719  0.00  0.00    +0.000 OA
ATOM     20  O   UNL     1       1.527   9.244  22.503  0.00  0.00    +0.000 OA
BRANCH  18  24
ATOM     21  C   UNL     1       2.794   5.410  19.152  0.00  0.00    +0.000 A 
ATOM     22  C   UNL     1       2.043   5.129  20.300  0.00  0.00    +0.000 A 
ATOM     23  C   UNL     1       1.398   6.152  21.000  0.00  0.00    +0.000 A 
ATOM     24  C   UNL     1       1.537   7.473  20.578  0.00  0.00    +0.000 A 
ATOM     25  C   UNL     1       2.280   7.774  19.431  0.00  0.00    +0.000 A 
ATOM     26  C   UNL     1       2.907   6.743  18.723  0.00  0.00    +0.000 A 
ATOM     27 CL   UNL     1       3.783   7.155  17.291  0.00  0.00    +0.000 Cl
BRANCH  21  29
ATOM     28  C   UNL     1       4.668   3.974  19.049  0.00  0.00    +0.000 C 
ATOM     29  O   UNL     1       3.466   4.446  18.444  0.00  0.00    +0.000 OA
ENDBRANCH  21  29
ENDBRANCH  18  24
ENDBRANCH   1  18
TORSDOF 6
ENDMDL
MODEL 8
REMARK VINA RESULT:      -7.0      5.680      9.026
REMARK  Name = 
REMARK  7 active torsions:
REMARK  status: ('A' for Active; 'I' for Inactive)
REMARK    1  A    between atoms: C_1  and  O_2
REMARK    2  A    between atoms: O_2  and  C_3
REMARK    3  A    between atoms: C_6  and  S_7
REMARK    4  A    between atoms: S_7  and  N_10
REMARK    5  A    between atoms: C_13  and  C_14
REMARK    6  A    between atoms: N_16  and  C_17
REMARK    7  A    between atoms: C_17  and  C_18
REMARK                            x       y       z     vdW  Elec       q    Type
REMARK                         _______ _______ _______ _____ _____    ______ ____
ROOT
ATOM      1  N   UNL     1       0.023  11.463  20.260  0.00  0.00    +0.000 NA
ATOM      2  C   UNL     1       1.430  11.543  19.795  0.00  0.00    +0.000 C 
ATOM      3  C   UNL     1       1.599  11.038  18.363  0.00  0.00    +0.000 C 
ATOM      4  C   UNL     1       0.960   9.665  18.153  0.00  0.00    +0.000 C 
ATOM      5  C   UNL     1      -0.527   9.791  18.477  0.00  0.00    +0.000 C 
ATOM      6  C   UNL     1      -0.756  10.251  19.910  0.00  0.00    +0.000 C 
ENDROOT
BRANCH   4   7
ATOM      7  C   UNL     1       1.670   8.574  18.964  0.00  0.00    +0.000 C 
ATOM      8  O   UNL     1       1.673   8.553  20.192  0.00  0.00    +0.000 OA
ATOM      9  N   UNL     1       2.337   7.642  18.207  0.00  0.00    +0.000 N 
ATOM     10  H   UNL     1       2.388   7.748  17.204  0.00  0.00    +0.000 HD
BRANCH   9  11
ATOM     11  C   UNL     1       3.140   6.597  18.806  0.00  0.00    +0.000 C 
BRANCH  11  12
ATOM     12  C   UNL     1       2.331   5.351  19.039  0.00  0.00    +0.000 A 
ATOM     13  C   UNL     1       1.850   5.038  20.314  0.00  0.00    +0.000 A 
ATOM     14  C   UNL     1       1.097   3.885  20.476  0.00  0.00    +0.000 A 
ATOM     15  N   UNL     1       0.802   3.034  19.472  0.00  0.00    +0.000 NA
ATOM     16  C   UNL     1       1.281   3.348  18.249  0.00  0.00    +0.000 A 
ATOM     17  C   UNL     1       2.045   4.475  17.988  0.00  0.00    +0.000 A 
ENDBRANCH  11  12
ENDBRANCH   9  11
ENDBRANCH   4   7
BRANCH   1  18
ATOM     18  S   UNL     1      -0.252  12.053  21.851  0.00  0.00    +0.000 S 
ATOM     19  O   UNL     1       0.462  13.308  21.980  0.00  0.00    +0.000 OA
ATOM     20  O   UNL     1      -0.042  10.974  22.793  0.00  0.00    +0.000 OA
BRANCH  18  24
ATOM     21  C   UNL     1      -4.757  12.953  21.901  0.00  0.00    +0.000 A 
ATOM     22  C   UNL     1      -4.021  13.059  20.713  0.00  0.00    +0.000 A 
ATOM     23  C   UNL     1      -2.650  12.790  20.697  0.00  0.00    +0.000 A 
ATOM     24  C   UNL     1      -1.996  12.455  21.881  0.00  0.00    +0.000 A 
ATOM     25  C   UNL     1      -2.715  12.340  23.076  0.00  0.00    +0.000 A 
ATOM     26  C   UNL     1      -4.091  12.591  23.083  0.00  0.00    +0.000 A 
ATOM     27 CL   UNL     1      -4.945  12.400  24.573  0.00  0.00    +0.000 Cl
BRANCH  21  29
ATOM     28  C   UNL     1      -6.956  12.223  21.438  0.00  0.00    +0.000 C 
ATOM     29  O   UNL     1      -6.099  13.228  21.975  0.00  0.00    +0.000 OA
ENDBRANCH  21  29
ENDBRANCH  18  24
ENDBRANCH   1  18
TORSDOF 6
ENDMDL
MODEL 9
REMARK VINA RESULT:      -6.9      1.362      1.720
REMARK  Name = 
REMARK  7 active torsions:
REMARK  status: ('A' for Active; 'I' for Inactive)
REMARK    1  A    between atoms: C_1  and  O_2
REMARK    2  A    between atoms: O_2  and  C_3
REMARK    3  A    between atoms: C_6  and  S_7
REMARK    4  A    between atoms: S_7  and  N_10
REMARK    5  A    between atoms: C_13  and  C_14
REMARK    6  A    between atoms: N_16  and  C_17
REMARK    7  A    between atoms: C_17  and  C_18
REMARK                            x       y       z     vdW  Elec       q    Type
REMARK                         _______ _______ _______ _____ _____    ______ ____
ROOT
ATOM      1  N   UNL     1       4.470   5.409  17.634  0.00  0.00    +0.000 NA
ATOM      2  C   UNL     1       4.691   6.812  17.207  0.00  0.00    +0.000 C 
ATOM      3  C   UNL     1       5.830   6.941  16.197  0.00  0.00    +0.000 C 
ATOM      4  C   UNL     1       7.102   6.234  16.665  0.00  0.00    +0.000 C 
ATOM      5  C   UNL     1       6.765   4.758  16.869  0.00  0.00    +0.000 C 
ATOM      6  C   UNL     1       5.662   4.568  17.900  0.00  0.00    +0.000 C 
ENDROOT
BRANCH   4   7
ATOM      7  C   UNL     1       7.701   6.899  17.910  0.00  0.00    +0.000 C 
ATOM      8  O   UNL     1       7.812   6.318  18.987  0.00  0.00    +0.000 OA
ATOM      9  N   UNL     1       8.067   8.211  17.738  0.00  0.00    +0.000 N 
ATOM     10  H   UNL     1       7.872   8.680  16.864  0.00  0.00    +0.000 HD
BRANCH   9  11
ATOM     11  C   UNL     1       8.559   9.023  18.831  0.00  0.00    +0.000 C 
BRANCH  11  12
ATOM     12  C   UNL     1       8.949  10.396  18.360  0.00  0.00    +0.000 A 
ATOM     13  C   UNL     1       7.999  11.261  17.809  0.00  0.00    +0.000 A 
ATOM     14  C   UNL     1       8.405  12.523  17.402  0.00  0.00    +0.000 A 
ATOM     15  N   UNL     1       9.673  12.971  17.498  0.00  0.00    +0.000 NA
ATOM     16  C   UNL     1      10.579  12.120  18.025  0.00  0.00    +0.000 A 
ATOM     17  C   UNL     1      10.272  10.839  18.458  0.00  0.00    +0.000 A 
ENDBRANCH  11  12
ENDBRANCH   9  11
ENDBRANCH   4   7
BRANCH   1  18
ATOM     18  S   UNL     1       3.174   5.181  18.741  0.00  0.00    +0.000 S 
ATOM     19  O   UNL     1       3.751   4.804  20.017  0.00  0.00    +0.000 OA
ATOM     20  O   UNL     1       2.159   4.365  18.110  0.00  0.00    +0.000 OA
BRANCH  18  24
ATOM     21  C   UNL     1       1.274   9.329  19.282  0.00  0.00    +0.000 A 
ATOM     22  C   UNL     1       1.665   8.883  18.013  0.00  0.00    +0.000 A 
ATOM     23  C   UNL     1       2.248   7.624  17.846  0.00  0.00    +0.000 A 
ATOM     24  C   UNL     1       2.483   6.817  18.959  0.00  0.00    +0.000 A 
ATOM     25  C   UNL     1       2.095   7.244  20.234  0.00  0.00    +0.000 A 
ATOM     26  C   UNL     1       1.495   8.497  20.392  0.00  0.00    +0.000 A 
ATOM     27 CL   UNL     1       0.999   8.967  21.980  0.00  0.00    +0.000 Cl
BRANCH  21  29
ATOM     28  C   UNL     1      -0.337  10.923  18.616  0.00  0.00    +0.000 C 
ATOM     29  O   UNL     1       0.721  10.565  19.502  0.00  0.00    +0.000 OA
ENDBRANCH  21  29
ENDBRANCH  18  24
ENDBRANCH   1  18
TORSDOF 6
ENDMDL
