MODEL 1
REMARK VINA RESULT:      -8.8      0.000      0.000
REMARK  Name = 
REMARK  3 active torsions:
REMARK  status: ('A' for Active; 'I' for Inactive)
REMARK    1  A    between atoms: C_2  and  C_3
REMARK    2  A    between atoms: C_3  and  N_4
REMARK    3  A    between atoms: N_18  and  C_19
REMARK                            x       y       z     vdW  Elec       q    Type
REMARK                         _______ _______ _______ _____ _____    ______ ____
ROOT
ATOM      1  N   UNL     1       4.541   4.098  19.504  0.00  0.00    +0.000 N 
ATOM      2  C   UNL     1       4.753   3.862  18.166  0.00  0.00    +0.000 C 
ATOM      3  O   UNL     1       3.912   3.231  17.529  0.00  0.00    +0.000 OA
ATOM      4  N   UNL     1       5.926   4.398  17.635  0.00  0.00    +0.000 N 
ATOM      5  C   UNL     1       6.989   5.030  18.437  0.00  0.00    +0.000 C 
ATOM      6  C   UNL     1       7.500   6.337  17.849  0.00  0.00    +0.000 C 
ATOM      7  O   UNL     1       8.026   7.217  18.528  0.00  0.00    +0.000 OA
ATOM      8  N   UNL     1       7.531   6.399  16.481  0.00  0.00    +0.000 N 
ATOM      9  C   UNL     1       6.997   5.390  15.666  0.00  0.00    +0.000 A 
ATOM     10  C   UNL     1       7.233   5.458  14.291  0.00  0.00    +0.000 A 
ATOM     11  C   UNL     1       6.719   4.473  13.453  0.00  0.00    +0.000 A 
ATOM     12  C   UNL     1       5.964   3.432  13.988  0.00  0.00    +0.000 A 
ATOM     13  C   UNL     1       5.702   3.384  15.362  0.00  0.00    +0.000 A 
ATOM     14  C   UNL     1       6.206   4.364  16.223  0.00  0.00    +0.000 A 
ATOM     15  H   UNL     1       4.876   4.979  19.875  0.00  0.00    +0.000 HD
ATOM     16  H   UNL     1       7.988   7.202  16.075  0.00  0.00    +0.000 HD
ENDROOT
BRANCH   1  17
ATOM     17  C   UNL     1       3.297   3.673  20.134  0.00  0.00    +0.000 C 
BRANCH  17  19
ATOM     18  O   UNL     1       1.056   4.500  19.858  0.00  0.00    +0.000 OA
ATOM     19  C   UNL     1       2.249   4.778  19.982  0.00  0.00    +0.000 C 
ATOM     20  N   UNL     1       2.791   6.052  19.999  0.00  0.00    +0.000 N 
ATOM     21  H   UNL     1       3.801   6.136  19.920  0.00  0.00    +0.000 HD
BRANCH  20  22
ATOM     22  C   UNL     1       2.081   7.279  19.979  0.00  0.00    +0.000 A 
ATOM     23  C   UNL     1       1.303   7.721  21.055  0.00  0.00    +0.000 A 
ATOM     24  C   UNL     1       0.608   8.931  20.976  0.00  0.00    +0.000 A 
ATOM     25 CL   UNL     1      -0.340   9.460  22.311  0.00  0.00    +0.000 Cl
ATOM     26  C   UNL     1       0.678   9.719  19.829  0.00  0.00    +0.000 A 
ATOM     27  C   UNL     1       1.469   9.305  18.758  0.00  0.00    +0.000 A 
ATOM     28  C   UNL     1       2.174   8.100  18.838  0.00  0.00    +0.000 A 
ATOM     29 CL   UNL     1       3.148   7.636  17.485  0.00  0.00    +0.000 Cl
ENDBRANCH  20  22
ENDBRANCH  17  19
ENDBRANCH   1  17
TORSDOF 3
ENDMDL
MODEL 2
REMARK VINA RESULT:      -8.0      3.368      5.511
REMARK  Name = 
REMARK  3 active torsions:
REMARK  status: ('A' for Active; 'I' for Inactive)
REMARK    1  A    between atoms: C_2  and  C_3
REMARK    2  A    between atoms: C_3  and  N_4
REMARK    3  A    between atoms: N_18  and  C_19
REMARK                            x       y       z     vdW  Elec       q    Type
REMARK                         _______ _______ _______ _____ _____    ______ ____
ROOT
ATOM      1  N   UNL     1       1.433   7.267  21.221  0.00  0.00    +0.000 N 
ATOM      2  C   UNL     1       2.115   6.807  20.119  0.00  0.00    +0.000 C 
ATOM      3  O   UNL     1       2.689   7.615  19.391  0.00  0.00    +0.000 OA
ATOM      4  N   UNL     1       2.111   5.425  19.938  0.00  0.00    +0.000 N 
ATOM      5  C   UNL     1       1.306   4.484  20.736  0.00  0.00    +0.000 C 
ATOM      6  C   UNL     1       2.078   3.256  21.194  0.00  0.00    +0.000 C 
ATOM      7  O   UNL     1       1.769   2.600  22.187  0.00  0.00    +0.000 OA
ATOM      8  N   UNL     1       3.026   2.793  20.319  0.00  0.00    +0.000 N 
ATOM      9  C   UNL     1       3.369   3.476  19.144  0.00  0.00    +0.000 A 
ATOM     10  C   UNL     1       4.214   2.839  18.232  0.00  0.00    +0.000 A 
ATOM     11  C   UNL     1       4.574   3.489  17.055  0.00  0.00    +0.000 A 
ATOM     12  C   UNL     1       4.099   4.773  16.799  0.00  0.00    +0.000 A 
ATOM     13  C   UNL     1       3.280   5.422  17.729  0.00  0.00    +0.000 A 
ATOM     14  C   UNL     1       2.907   4.790  18.919  0.00  0.00    +0.000 A 
ATOM     15  H   UNL     1       1.436   6.676  22.044  0.00  0.00    +0.000 HD
ATOM     16  H   UNL     1       3.455   1.907  20.545  0.00  0.00    +0.000 HD
ENDROOT
BRANCH   1  17
ATOM     17  C   UNL     1       1.462   8.685  21.562  0.00  0.00    +0.000 C 
BRANCH  17  19
ATOM     18  O   UNL     1      -0.930   8.456  21.633  0.00  0.00    +0.000 OA
ATOM     19  C   UNL     1       0.030   9.225  21.607  0.00  0.00    +0.000 C 
ATOM     20  N   UNL     1      -0.033  10.607  21.613  0.00  0.00    +0.000 N 
ATOM     21  H   UNL     1       0.820  11.119  21.401  0.00  0.00    +0.000 HD
BRANCH  20  22
ATOM     22  C   UNL     1      -1.197  11.406  21.748  0.00  0.00    +0.000 A 
ATOM     23  C   UNL     1      -1.872  11.558  22.964  0.00  0.00    +0.000 A 
ATOM     24  C   UNL     1      -3.026  12.342  23.039  0.00  0.00    +0.000 A 
ATOM     25 CL   UNL     1      -3.842  12.520  24.545  0.00  0.00    +0.000 Cl
ATOM     26  C   UNL     1      -3.524  12.987  21.910  0.00  0.00    +0.000 A 
ATOM     27  C   UNL     1      -2.848  12.868  20.696  0.00  0.00    +0.000 A 
ATOM     28  C   UNL     1      -1.686  12.092  20.620  0.00  0.00    +0.000 A 
ATOM     29 CL   UNL     1      -0.880  11.982  19.092  0.00  0.00    +0.000 Cl
ENDBRANCH  20  22
ENDBRANCH  17  19
ENDBRANCH   1  17
TORSDOF 3
ENDMDL
MODEL 3
REMARK VINA RESULT:      -8.0      5.654      8.351
REMARK  Name = 
REMARK  3 active torsions:
REMARK  status: ('A' for Active; 'I' for Inactive)
REMARK    1  A    between atoms: C_2  and  C_3
REMARK    2  A    between atoms: C_3  and  N_4
REMARK    3  A    between atoms: N_18  and  C_19
REMARK                            x       y       z     vdW  Elec       q    Type
REMARK                         _______ _______ _______ _____ _____    ______ ____
ROOT
ATOM      1  N   UNL     1       8.650   9.644  18.730  0.00  0.00    +0.000 N 
ATOM      2  C   UNL     1       9.458  10.756  18.733  0.00  0.00    +0.000 C 
ATOM      3  O   UNL     1       9.965  11.131  17.677  0.00  0.00    +0.000 OA
ATOM      4  N   UNL     1       9.615  11.389  19.966  0.00  0.00    +0.000 N 
ATOM      5  C   UNL     1       9.118  10.851  21.245  0.00  0.00    +0.000 C 
ATOM      6  C   UNL     1       8.415  11.887  22.110  0.00  0.00    +0.000 C 
ATOM      7  O   UNL     1       7.574  11.594  22.957  0.00  0.00    +0.000 OA
ATOM      8  N   UNL     1       8.921  13.159  22.039  0.00  0.00    +0.000 N 
ATOM      9  C   UNL     1       9.924  13.524  21.130  0.00  0.00    +0.000 A 
ATOM     10  C   UNL     1      10.497  14.792  21.253  0.00  0.00    +0.000 A 
ATOM     11  C   UNL     1      11.496  15.187  20.367  0.00  0.00    +0.000 A 
ATOM     12  C   UNL     1      11.910  14.321  19.358  0.00  0.00    +0.000 A 
ATOM     13  C   UNL     1      11.311  13.063  19.217  0.00  0.00    +0.000 A 
ATOM     14  C   UNL     1      10.305  12.646  20.093  0.00  0.00    +0.000 A 
ATOM     15  H   UNL     1       7.866   9.643  19.372  0.00  0.00    +0.000 HD
ATOM     16  H   UNL     1       8.556  13.827  22.701  0.00  0.00    +0.000 HD
ENDROOT
BRANCH   1  17
ATOM     17  C   UNL     1       8.336   8.970  17.476  0.00  0.00    +0.000 C 
BRANCH  17  19
ATOM     18  O   UNL     1       8.033   6.916  18.688  0.00  0.00    +0.000 OA
ATOM     19  C   UNL     1       7.638   7.641  17.776  0.00  0.00    +0.000 C 
ATOM     20  N   UNL     1       6.573   7.380  16.932  0.00  0.00    +0.000 N 
ATOM     21  H   UNL     1       6.470   7.965  16.107  0.00  0.00    +0.000 HD
BRANCH  20  22
ATOM     22  C   UNL     1       5.671   6.288  17.012  0.00  0.00    +0.000 A 
ATOM     23  C   UNL     1       4.514   6.319  17.798  0.00  0.00    +0.000 A 
ATOM     24  C   UNL     1       3.668   5.208  17.855  0.00  0.00    +0.000 A 
ATOM     25 CL   UNL     1       2.246   5.266  18.824  0.00  0.00    +0.000 Cl
ATOM     26  C   UNL     1       3.958   4.053  17.133  0.00  0.00    +0.000 A 
ATOM     27  C   UNL     1       5.094   4.016  16.324  0.00  0.00    +0.000 A 
ATOM     28  C   UNL     1       5.937   5.130  16.256  0.00  0.00    +0.000 A 
ATOM     29 CL   UNL     1       7.329   5.035  15.232  0.00  0.00    +0.000 Cl
ENDBRANCH  20  22
ENDBRANCH  17  19
ENDBRANCH   1  17
TORSDOF 3
ENDMDL
MODEL 4
REMARK VINA RESULT:      -8.0      3.351      5.324
REMARK  Name = 
REMARK  3 active torsions:
REMARK  status: ('A' for Active; 'I' for Inactive)
REMARK    1  A    between atoms: C_2  and  C_3
REMARK    2  A    between atoms: C_3  and  N_4
REMARK    3  A    between atoms: N_18  and  C_19
REMARK                            x       y       z     vdW  Elec       q    Type
REMARK                         _______ _______ _______ _____ _____    ______ ____
ROOT
ATOM      1  N   UNL     1       1.464   7.124  21.242  0.00  0.00    +0.000 N 
ATOM      2  C   UNL     1       2.136   6.652  20.139  0.00  0.00    +0.000 C 
ATOM      3  O   UNL     1       2.729   7.449  19.414  0.00  0.00    +0.000 OA
ATOM      4  N   UNL     1       2.100   5.271  19.952  0.00  0.00    +0.000 N 
ATOM      5  C   UNL     1       1.272   4.346  20.746  0.00  0.00    +0.000 C 
ATOM      6  C   UNL     1       2.015   3.099  21.199  0.00  0.00    +0.000 C 
ATOM      7  O   UNL     1       1.689   2.447  22.190  0.00  0.00    +0.000 OA
ATOM      8  N   UNL     1       2.952   2.617  20.323  0.00  0.00    +0.000 N 
ATOM      9  C   UNL     1       3.312   3.297  19.151  0.00  0.00    +0.000 A 
ATOM     10  C   UNL     1       4.142   2.643  18.238  0.00  0.00    +0.000 A 
ATOM     11  C   UNL     1       4.518   3.289  17.063  0.00  0.00    +0.000 A 
ATOM     12  C   UNL     1       4.074   4.585  16.812  0.00  0.00    +0.000 A 
ATOM     13  C   UNL     1       3.269   5.249  17.744  0.00  0.00    +0.000 A 
ATOM     14  C   UNL     1       2.881   4.621  18.931  0.00  0.00    +0.000 A 
ATOM     15  H   UNL     1       1.453   6.530  22.063  0.00  0.00    +0.000 HD
ATOM     16  H   UNL     1       3.360   1.720  20.546  0.00  0.00    +0.000 HD
ENDROOT
BRANCH   1  17
ATOM     17  C   UNL     1       1.526   8.539  21.588  0.00  0.00    +0.000 C 
BRANCH  17  19
ATOM     18  O   UNL     1      -0.671   9.513  21.654  0.00  0.00    +0.000 OA
ATOM     19  C   UNL     1       0.325   9.263  20.976  0.00  0.00    +0.000 C 
ATOM     20  N   UNL     1       0.498   9.577  19.639  0.00  0.00    +0.000 N 
ATOM     21  H   UNL     1       1.283   9.152  19.152  0.00  0.00    +0.000 HD
BRANCH  20  22
ATOM     22  C   UNL     1      -0.383  10.329  18.819  0.00  0.00    +0.000 A 
ATOM     23  C   UNL     1      -1.239   9.734  17.886  0.00  0.00    +0.000 A 
ATOM     24  C   UNL     1      -2.074  10.523  17.090  0.00  0.00    +0.000 A 
ATOM     25 CL   UNL     1      -3.124   9.773  15.950  0.00  0.00    +0.000 Cl
ATOM     26  C   UNL     1      -2.072  11.910  17.211  0.00  0.00    +0.000 A 
ATOM     27  C   UNL     1      -1.243  12.516  18.154  0.00  0.00    +0.000 A 
ATOM     28  C   UNL     1      -0.414  11.729  18.960  0.00  0.00    +0.000 A 
ATOM     29 CL   UNL     1       0.589  12.530  20.121  0.00  0.00    +0.000 Cl
ENDBRANCH  20  22
ENDBRANCH  17  19
ENDBRANCH   1  17
TORSDOF 3
ENDMDL
MODEL 5
REMARK VINA RESULT:      -7.9      1.876      2.771
REMARK  Name = 
REMARK  3 active torsions:
REMARK  status: ('A' for Active; 'I' for Inactive)
REMARK    1  A    between atoms: C_2  and  C_3
REMARK    2  A    between atoms: C_3  and  N_4
REMARK    3  A    between atoms: N_18  and  C_19
REMARK                            x       y       z     vdW  Elec       q    Type
REMARK                         _______ _______ _______ _____ _____    ______ ____
ROOT
ATOM      1  N   UNL     1       3.754   6.023  19.618  0.00  0.00    +0.000 N 
ATOM      2  C   UNL     1       3.968   5.420  18.401  0.00  0.00    +0.000 C 
ATOM      3  O   UNL     1       3.005   4.987  17.769  0.00  0.00    +0.000 OA
ATOM      4  N   UNL     1       5.294   5.374  17.971  0.00  0.00    +0.000 N 
ATOM      5  C   UNL     1       6.449   5.769  18.797  0.00  0.00    +0.000 C 
ATOM      6  C   UNL     1       7.456   6.640  18.061  0.00  0.00    +0.000 C 
ATOM      7  O   UNL     1       8.216   7.417  18.634  0.00  0.00    +0.000 OA
ATOM      8  N   UNL     1       7.615   6.362  16.728  0.00  0.00    +0.000 N 
ATOM      9  C   UNL     1       6.810   5.439  16.046  0.00  0.00    +0.000 A 
ATOM     10  C   UNL     1       7.162   5.094  14.740  0.00  0.00    +0.000 A 
ATOM     11  C   UNL     1       6.386   4.179  14.034  0.00  0.00    +0.000 A 
ATOM     12  C   UNL     1       5.257   3.623  14.630  0.00  0.00    +0.000 A 
ATOM     13  C   UNL     1       4.888   3.994  15.928  0.00  0.00    +0.000 A 
ATOM     14  C   UNL     1       5.652   4.913  16.655  0.00  0.00    +0.000 A 
ATOM     15  H   UNL     1       4.363   6.795  19.862  0.00  0.00    +0.000 HD
ATOM     16  H   UNL     1       8.370   6.837  16.255  0.00  0.00    +0.000 HD
ENDROOT
BRANCH   1  17
ATOM     17  C   UNL     1       2.395   6.217  20.110  0.00  0.00    +0.000 C 
BRANCH  17  19
ATOM     18  O   UNL     1       2.349   8.242  18.813  0.00  0.00    +0.000 OA
ATOM     19  C   UNL     1       1.950   7.653  19.817  0.00  0.00    +0.000 C 
ATOM     20  N   UNL     1       1.095   8.166  20.777  0.00  0.00    +0.000 N 
ATOM     21  H   UNL     1       0.995   7.648  21.646  0.00  0.00    +0.000 HD
BRANCH  20  22
ATOM     22  C   UNL     1       0.436   9.422  20.746  0.00  0.00    +0.000 A 
ATOM     23  C   UNL     1       0.066  10.052  19.552  0.00  0.00    +0.000 A 
ATOM     24  C   UNL     1      -0.566  11.298  19.577  0.00  0.00    +0.000 A 
ATOM     25 CL   UNL     1      -1.018  12.056  18.099  0.00  0.00    +0.000 Cl
ATOM     26  C   UNL     1      -0.841  11.933  20.785  0.00  0.00    +0.000 A 
ATOM     27  C   UNL     1      -0.503  11.307  21.984  0.00  0.00    +0.000 A 
ATOM     28  C   UNL     1       0.121  10.055  21.963  0.00  0.00    +0.000 A 
ATOM     29 CL   UNL     1       0.513   9.316  23.479  0.00  0.00    +0.000 Cl
ENDBRANCH  20  22
ENDBRANCH  17  19
ENDBRANCH   1  17
TORSDOF 3
ENDMDL
MODEL 6
REMARK VINA RESULT:      -7.9      4.990      9.409
REMARK  Name = 
REMARK  3 active torsions:
REMARK  status: ('A' for Active; 'I' for Inactive)
REMARK    1  A    between atoms: C_2  and  C_3
REMARK    2  A    between atoms: C_3  and  N_4
REMARK    3  A    between atoms: N_18  and  C_19
REMARK                            x       y       z     vdW  Elec       q    Type
REMARK                         _______ _______ _______ _____ _____    ______ ____
ROOT
ATOM      1  N   UNL     1       0.091   9.815  17.840  0.00  0.00    +0.000 N 
ATOM      2  C   UNL     1      -1.027  10.436  18.345  0.00  0.00    +0.000 C 
ATOM      3  O   UNL     1      -0.957  11.002  19.434  0.00  0.00    +0.000 OA
ATOM      4  N   UNL     1      -2.164  10.385  17.539  0.00  0.00    +0.000 N 
ATOM      5  C   UNL     1      -2.274   9.586  16.306  0.00  0.00    +0.000 C 
ATOM      6  C   UNL     1      -2.903  10.342  15.144  0.00  0.00    +0.000 C 
ATOM      7  O   UNL     1      -2.695  10.056  13.967  0.00  0.00    +0.000 OA
ATOM      8  N   UNL     1      -3.883  11.238  15.483  0.00  0.00    +0.000 N 
ATOM      9  C   UNL     1      -4.195  11.551  16.814  0.00  0.00    +0.000 A 
ATOM     10  C   UNL     1      -5.322  12.337  17.060  0.00  0.00    +0.000 A 
ATOM     11  C   UNL     1      -5.662  12.666  18.370  0.00  0.00    +0.000 A 
ATOM     12  C   UNL     1      -4.869  12.219  19.424  0.00  0.00    +0.000 A 
ATOM     13  C   UNL     1      -3.722  11.458  19.172  0.00  0.00    +0.000 A 
ATOM     14  C   UNL     1      -3.360  11.117  17.865  0.00  0.00    +0.000 A 
ATOM     15  H   UNL     1       0.215   9.836  16.835  0.00  0.00    +0.000 HD
ATOM     16  H   UNL     1      -4.401  11.650  14.721  0.00  0.00    +0.000 HD
ENDROOT
BRANCH   1  17
ATOM     17  C   UNL     1       1.360   9.900  18.553  0.00  0.00    +0.000 C 
BRANCH  17  19
ATOM     18  O   UNL     1       1.756   8.147  20.151  0.00  0.00    +0.000 OA
ATOM     19  C   UNL     1       1.801   8.495  18.971  0.00  0.00    +0.000 C 
ATOM     20  N   UNL     1       2.233   7.718  17.910  0.00  0.00    +0.000 N 
ATOM     21  H   UNL     1       2.397   8.184  17.021  0.00  0.00    +0.000 HD
BRANCH  20  22
ATOM     22  C   UNL     1       2.611   6.352  17.952  0.00  0.00    +0.000 A 
ATOM     23  C   UNL     1       1.708   5.327  18.260  0.00  0.00    +0.000 A 
ATOM     24  C   UNL     1       2.137   3.998  18.306  0.00  0.00    +0.000 A 
ATOM     25 CL   UNL     1       1.012   2.751  18.682  0.00  0.00    +0.000 Cl
ATOM     26  C   UNL     1       3.465   3.668  18.046  0.00  0.00    +0.000 A 
ATOM     27  C   UNL     1       4.371   4.674  17.713  0.00  0.00    +0.000 A 
ATOM     28  C   UNL     1       3.943   6.005  17.655  0.00  0.00    +0.000 A 
ATOM     29 CL   UNL     1       5.105   7.215  17.228  0.00  0.00    +0.000 Cl
ENDBRANCH  20  22
ENDBRANCH  17  19
ENDBRANCH   1  17
TORSDOF 3
ENDMDL
MODEL 7
REMARK VINA RESULT:      -7.8      4.237      8.989
REMARK  Name = 
REMARK  3 active torsions:
REMARK  status: ('A' for Active; 'I' for Inactive)
REMARK    1  A    between atoms: C_2  and  C_3
REMARK    2  A    between atoms: C_3  and  N_4
REMARK    3  A    between atoms: N_18  and  C_19
REMARK                            x       y       z     vdW  Elec       q    Type
REMARK                         _______ _______ _______ _____ _____    ______ ____
ROOT
ATOM      1  N   UNL     1       0.283   9.298  20.614  0.00  0.00    +0.000 N 
ATOM      2  C   UNL     1       0.519  10.642  20.787  0.00  0.00    +0.000 C 
ATOM      3  O   UNL     1       1.420  10.999  21.544  0.00  0.00    +0.000 OA
ATOM      4  N   UNL     1      -0.294  11.500  20.048  0.00  0.00    +0.000 N 
ATOM      5  C   UNL     1      -1.458  11.065  19.255  0.00  0.00    +0.000 C 
ATOM      6  C   UNL     1      -1.520  11.691  17.870  0.00  0.00    +0.000 C 
ATOM      7  O   UNL     1      -2.105  11.168  16.923  0.00  0.00    +0.000 OA
ATOM      8  N   UNL     1      -1.059  12.978  17.781  0.00  0.00    +0.000 N 
ATOM      9  C   UNL     1      -0.439  13.635  18.853  0.00  0.00    +0.000 A 
ATOM     10  C   UNL     1      -0.164  14.999  18.721  0.00  0.00    +0.000 A 
ATOM     11  C   UNL     1       0.450  15.682  19.767  0.00  0.00    +0.000 A 
ATOM     12  C   UNL     1       0.797  15.002  20.931  0.00  0.00    +0.000 A 
ATOM     13  C   UNL     1       0.550  13.629  21.047  0.00  0.00    +0.000 A 
ATOM     14  C   UNL     1      -0.064  12.921  20.009  0.00  0.00    +0.000 A 
ATOM     15  H   UNL     1      -0.018   8.998  19.695  0.00  0.00    +0.000 HD
ATOM     16  H   UNL     1      -1.214  13.453  16.903  0.00  0.00    +0.000 HD
ENDROOT
BRANCH   1  17
ATOM     17  C   UNL     1       1.145   8.315  21.259  0.00  0.00    +0.000 C 
BRANCH  17  19
ATOM     18  O   UNL     1       2.102   7.975  19.080  0.00  0.00    +0.000 OA
ATOM     19  C   UNL     1       1.867   7.494  20.187  0.00  0.00    +0.000 C 
ATOM     20  N   UNL     1       2.195   6.216  20.606  0.00  0.00    +0.000 N 
ATOM     21  H   UNL     1       1.781   5.883  21.473  0.00  0.00    +0.000 HD
BRANCH  20  22
ATOM     22  C   UNL     1       2.948   5.251  19.889  0.00  0.00    +0.000 A 
ATOM     23  C   UNL     1       4.264   5.477  19.470  0.00  0.00    +0.000 A 
ATOM     24  C   UNL     1       4.954   4.499  18.750  0.00  0.00    +0.000 A 
ATOM     25 CL   UNL     1       6.574   4.794  18.247  0.00  0.00    +0.000 Cl
ATOM     26  C   UNL     1       4.349   3.285  18.436  0.00  0.00    +0.000 A 
ATOM     27  C   UNL     1       3.047   3.034  18.868  0.00  0.00    +0.000 A 
ATOM     28  C   UNL     1       2.357   4.006  19.599  0.00  0.00    +0.000 A 
ATOM     29 CL   UNL     1       0.746   3.642  20.119  0.00  0.00    +0.000 Cl
ENDBRANCH  20  22
ENDBRANCH  17  19
ENDBRANCH   1  17
TORSDOF 3
ENDMDL
MODEL 8
REMARK VINA RESULT:      -7.8      3.331      5.335
REMARK  Name = 
REMARK  3 active torsions:
REMARK  status: ('A' for Active; 'I' for Inactive)
REMARK    1  A    between atoms: C_2  and  C_3
REMARK    2  A    between atoms: C_3  and  N_4
REMARK    3  A    between atoms: N_18  and  C_19
REMARK                            x       y       z     vdW  Elec       q    Type
REMARK                         _______ _______ _______ _____ _____    ______ ____
ROOT
ATOM      1  N   UNL     1       1.496   7.165  21.178  0.00  0.00    +0.000 N 
ATOM      2  C   UNL     1       2.158   6.679  20.075  0.00  0.00    +0.000 C 
ATOM      3  O   UNL     1       2.755   7.464  19.340  0.00  0.00    +0.000 OA
ATOM      4  N   UNL     1       2.108   5.296  19.900  0.00  0.00    +0.000 N 
ATOM      5  C   UNL     1       1.276   4.385  20.706  0.00  0.00    +0.000 C 
ATOM      6  C   UNL     1       2.011   3.135  21.166  0.00  0.00    +0.000 C 
ATOM      7  O   UNL     1       1.684   2.495  22.164  0.00  0.00    +0.000 OA
ATOM      8  N   UNL     1       2.939   2.638  20.290  0.00  0.00    +0.000 N 
ATOM      9  C   UNL     1       3.299   3.304  19.110  0.00  0.00    +0.000 A 
ATOM     10  C   UNL     1       4.119   2.636  18.198  0.00  0.00    +0.000 A 
ATOM     11  C   UNL     1       4.494   3.268  17.016  0.00  0.00    +0.000 A 
ATOM     12  C   UNL     1       4.061   4.566  16.756  0.00  0.00    +0.000 A 
ATOM     13  C   UNL     1       3.267   5.245  17.686  0.00  0.00    +0.000 A 
ATOM     14  C   UNL     1       2.878   4.631  18.881  0.00  0.00    +0.000 A 
ATOM     15  H   UNL     1       1.483   6.578  22.003  0.00  0.00    +0.000 HD
ATOM     16  H   UNL     1       3.340   1.739  20.518  0.00  0.00    +0.000 HD
ENDROOT
BRANCH   1  17
ATOM     17  C   UNL     1       1.572   8.583  21.511  0.00  0.00    +0.000 C 
BRANCH  17  19
ATOM     18  O   UNL     1      -0.773   8.644  22.037  0.00  0.00    +0.000 OA
ATOM     19  C   UNL     1       0.168   9.191  21.464  0.00  0.00    +0.000 C 
ATOM     20  N   UNL     1       0.105  10.364  20.732  0.00  0.00    +0.000 N 
ATOM     21  H   UNL     1       0.909  10.606  20.158  0.00  0.00    +0.000 HD
BRANCH  20  22
ATOM     22  C   UNL     1      -1.020  11.215  20.581  0.00  0.00    +0.000 A 
ATOM     23  C   UNL     1      -1.489  12.037  21.611  0.00  0.00    +0.000 A 
ATOM     24  C   UNL     1      -2.614  12.843  21.415  0.00  0.00    +0.000 A 
ATOM     25 CL   UNL     1      -3.175  13.852  22.693  0.00  0.00    +0.000 Cl
ATOM     26  C   UNL     1      -3.287  12.844  20.196  0.00  0.00    +0.000 A 
ATOM     27  C   UNL     1      -2.817  12.049  19.151  0.00  0.00    +0.000 A 
ATOM     28  C   UNL     1      -1.684  11.249  19.340  0.00  0.00    +0.000 A 
ATOM     29 CL   UNL     1      -1.137  10.288  18.009  0.00  0.00    +0.000 Cl
ENDBRANCH  20  22
ENDBRANCH  17  19
ENDBRANCH   1  17
TORSDOF 3
ENDMDL
MODEL 9
REMARK VINA RESULT:      -7.8      5.052     10.065
REMARK  Name = 
REMARK  3 active torsions:
REMARK  status: ('A' for Active; 'I' for Inactive)
REMARK    1  A    between atoms: C_2  and  C_3
REMARK    2  A    between atoms: C_3  and  N_4
REMARK    3  A    between atoms: N_18  and  C_19
REMARK                            x       y       z     vdW  Elec       q    Type
REMARK                         _______ _______ _______ _____ _____    ______ ____
ROOT
ATOM      1  N   UNL     1       0.855  10.137  21.691  0.00  0.00    +0.000 N 
ATOM      2  C   UNL     1      -0.268  10.590  22.342  0.00  0.00    +0.000 C 
ATOM      3  O   UNL     1      -0.931   9.799  23.012  0.00  0.00    +0.000 OA
ATOM      4  N   UNL     1      -0.547  11.948  22.197  0.00  0.00    +0.000 N 
ATOM      5  C   UNL     1       0.173  12.851  21.282  0.00  0.00    +0.000 C 
ATOM      6  C   UNL     1       0.553  14.183  21.913  0.00  0.00    +0.000 C 
ATOM      7  O   UNL     1       1.493  14.868  21.517  0.00  0.00    +0.000 OA
ATOM      8  N   UNL     1      -0.341  14.682  22.823  0.00  0.00    +0.000 N 
ATOM      9  C   UNL     1      -1.460  13.960  23.259  0.00  0.00    +0.000 A 
ATOM     10  C   UNL     1      -2.404  14.619  24.050  0.00  0.00    +0.000 A 
ATOM     11  C   UNL     1      -3.529  13.931  24.499  0.00  0.00    +0.000 A 
ATOM     12  C   UNL     1      -3.699  12.590  24.167  0.00  0.00    +0.000 A 
ATOM     13  C   UNL     1      -2.736  11.923  23.402  0.00  0.00    +0.000 A 
ATOM     14  C   UNL     1      -1.598  12.593  22.941  0.00  0.00    +0.000 A 
ATOM     15  H   UNL     1       1.635  10.780  21.616  0.00  0.00    +0.000 HD
ATOM     16  H   UNL     1      -0.172  15.622  23.152  0.00  0.00    +0.000 HD
ENDROOT
BRANCH   1  17
ATOM     17  C   UNL     1       1.295   8.757  21.862  0.00  0.00    +0.000 C 
BRANCH  17  19
ATOM     18  O   UNL     1       1.399   8.792  19.460  0.00  0.00    +0.000 OA
ATOM     19  C   UNL     1       1.588   8.145  20.490  0.00  0.00    +0.000 C 
ATOM     20  N   UNL     1       2.061   6.846  20.560  0.00  0.00    +0.000 N 
ATOM     21  H   UNL     1       1.993   6.367  21.455  0.00  0.00    +0.000 HD
BRANCH  20  22
ATOM     22  C   UNL     1       2.513   6.044  19.481  0.00  0.00    +0.000 A 
ATOM     23  C   UNL     1       3.452   6.494  18.547  0.00  0.00    +0.000 A 
ATOM     24  C   UNL     1       3.850   5.670  17.491  0.00  0.00    +0.000 A 
ATOM     25 CL   UNL     1       5.011   6.238  16.354  0.00  0.00    +0.000 Cl
ATOM     26  C   UNL     1       3.322   4.389  17.349  0.00  0.00    +0.000 A 
ATOM     27  C   UNL     1       2.404   3.916  18.286  0.00  0.00    +0.000 A 
ATOM     28  C   UNL     1       2.012   4.735  19.351  0.00  0.00    +0.000 A 
ATOM     29 CL   UNL     1       0.876   4.098  20.491  0.00  0.00    +0.000 Cl
ENDBRANCH  20  22
ENDBRANCH  17  19
ENDBRANCH   1  17
TORSDOF 3
ENDMDL
