MODEL 1
REMARK VINA RESULT:      -7.8      0.000      0.000
REMARK  Name = 
REMARK  6 active torsions:
REMARK  status: ('A' for Active; 'I' for Inactive)
REMARK    1  A    between atoms: N_3  and  C_4
REMARK    2  A    between atoms: C_7  and  S_8
REMARK    3  A    between atoms: S_8  and  N_11
REMARK    4  A    between atoms: N_11  and  C_12
REMARK    5  A    between atoms: C_22  and  C_23
REMARK    6  A    between atoms: C_23  and  C_24
REMARK                            x       y       z     vdW  Elec       q    Type
REMARK                         _______ _______ _______ _____ _____    ______ ____
ROOT
ATOM      1  C   UNL     1       2.931   7.186  18.302  0.00  0.00    +0.000 A 
ATOM      2  C   UNL     1       2.523   6.909  19.607  0.00  0.00    +0.000 A 
ATOM      3  C   UNL     1       1.721   7.807  20.308  0.00  0.00    +0.000 A 
ATOM      4  C   UNL     1       1.350   9.011  19.720  0.00  0.00    +0.000 A 
ATOM      5  C   UNL     1       1.785   9.335  18.432  0.00  0.00    +0.000 A 
ATOM      6  C   UNL     1       2.592   8.420  17.726  0.00  0.00    +0.000 A 
ENDROOT
BRANCH   1   9
ATOM      7  O   UNL     1       5.853   6.799  18.105  0.00  0.00    +0.000 OA
ATOM      8  C   UNL     1       5.035   6.130  17.485  0.00  0.00    +0.000 C 
ATOM      9  N   UNL     1       3.659   6.262  17.532  0.00  0.00    +0.000 N 
ATOM     10  N   UNL     1       5.454   5.141  16.643  0.00  0.00    +0.000 N 
ATOM     11  C   UNL     1       6.809   4.642  16.452  0.00  0.00    +0.000 C 
ATOM     12  C   UNL     1       6.159   3.667  15.433  0.00  0.00    +0.000 C 
ATOM     13  C   UNL     1       4.857   3.879  16.249  0.00  0.00    +0.000 C 
ATOM     14  H   UNL     1       3.134   5.593  16.991  0.00  0.00    +0.000 HD
BRANCH  12  15
ATOM     15  C   UNL     1       6.155   4.210  14.000  0.00  0.00    +0.000 C 
BRANCH  15  16
ATOM     16  C   UNL     1       6.077   3.128  12.963  0.00  0.00    +0.000 C 
ATOM     17  C   UNL     1       5.175   3.198  11.756  0.00  0.00    +0.000 C 
ATOM     18  C   UNL     1       6.654   3.387  11.593  0.00  0.00    +0.000 C 
ENDBRANCH  15  16
ENDBRANCH  12  15
ENDBRANCH   1   9
BRANCH   4  19
ATOM     19  S   UNL     1       0.245  10.085  20.600  0.00  0.00    +0.000 S 
ATOM     20  O   UNL     1      -0.818   9.260  21.131  0.00  0.00    +0.000 OA
ATOM     21  O   UNL     1       1.012  10.969  21.450  0.00  0.00    +0.000 OA
BRANCH  19  22
ATOM     22  N   UNL     1      -0.464  11.020  19.392  0.00  0.00    +0.000 NA
ATOM     23  H   UNL     1       0.244  11.226  18.684  0.00  0.00    +0.000 HD
BRANCH  22  24
ATOM     24  C   UNL     1      -1.811  10.670  18.878  0.00  0.00    +0.000 C 
ATOM     25  C   UNL     1      -1.653  10.143  17.448  0.00  0.00    +0.000 C 
ATOM     26  C   UNL     1      -3.015   9.896  16.818  0.00  0.00    +0.000 C 
ATOM     27  O   UNL     1      -3.808  11.078  16.853  0.00  0.00    +0.000 OA
ATOM     28  C   UNL     1      -4.063  11.515  18.186  0.00  0.00    +0.000 C 
ATOM     29  C   UNL     1      -2.763  11.862  18.891  0.00  0.00    +0.000 C 
ENDBRANCH  22  24
ENDBRANCH  19  22
ENDBRANCH   4  19
TORSDOF 6
ENDMDL
MODEL 2
REMARK VINA RESULT:      -7.7      0.479      1.044
REMARK  Name = 
REMARK  6 active torsions:
REMARK  status: ('A' for Active; 'I' for Inactive)
REMARK    1  A    between atoms: N_3  and  C_4
REMARK    2  A    between atoms: C_7  and  S_8
REMARK    3  A    between atoms: S_8  and  N_11
REMARK    4  A    between atoms: N_11  and  C_12
REMARK    5  A    between atoms: C_22  and  C_23
REMARK    6  A    between atoms: C_23  and  C_24
REMARK                            x       y       z     vdW  Elec       q    Type
REMARK                         _______ _______ _______ _____ _____    ______ ____
ROOT
ATOM      1  C   UNL     1       2.627   7.418  18.252  0.00  0.00    +0.000 A 
ATOM      2  C   UNL     1       2.159   8.603  17.684  0.00  0.00    +0.000 A 
ATOM      3  C   UNL     1       1.473   9.540  18.453  0.00  0.00    +0.000 A 
ATOM      4  C   UNL     1       1.214   9.281  19.794  0.00  0.00    +0.000 A 
ATOM      5  C   UNL     1       1.630   8.081  20.378  0.00  0.00    +0.000 A 
ATOM      6  C   UNL     1       2.328   7.139  19.595  0.00  0.00    +0.000 A 
ENDROOT
BRANCH   1   9
ATOM      7  O   UNL     1       5.566   7.211  18.039  0.00  0.00    +0.000 OA
ATOM      8  C   UNL     1       4.787   6.451  17.474  0.00  0.00    +0.000 C 
ATOM      9  N   UNL     1       3.406   6.496  17.532  0.00  0.00    +0.000 N 
ATOM     10  N   UNL     1       5.262   5.440  16.691  0.00  0.00    +0.000 N 
ATOM     11  C   UNL     1       6.646   5.018  16.513  0.00  0.00    +0.000 C 
ATOM     12  C   UNL     1       6.052   3.940  15.568  0.00  0.00    +0.000 C 
ATOM     13  C   UNL     1       4.746   4.118  16.387  0.00  0.00    +0.000 C 
ATOM     14  H   UNL     1       2.922   5.761  17.042  0.00  0.00    +0.000 HD
BRANCH  12  15
ATOM     15  C   UNL     1       5.997   4.388  14.104  0.00  0.00    +0.000 C 
BRANCH  15  16
ATOM     16  C   UNL     1       6.216   3.261  13.137  0.00  0.00    +0.000 C 
ATOM     17  C   UNL     1       5.376   3.051  11.901  0.00  0.00    +0.000 C 
ATOM     18  C   UNL     1       6.777   3.569  11.770  0.00  0.00    +0.000 C 
ENDBRANCH  15  16
ENDBRANCH  12  15
ENDBRANCH   1   9
BRANCH   4  19
ATOM     19  S   UNL     1       0.429  10.538  20.769  0.00  0.00    +0.000 S 
ATOM     20  O   UNL     1      -0.554   9.881  21.601  0.00  0.00    +0.000 OA
ATOM     21  O   UNL     1       1.438  11.407  21.333  0.00  0.00    +0.000 OA
BRANCH  19  22
ATOM     22  N   UNL     1      -0.451  11.435  19.647  0.00  0.00    +0.000 NA
ATOM     23  H   UNL     1       0.159  11.652  18.856  0.00  0.00    +0.000 HD
BRANCH  22  24
ATOM     24  C   UNL     1      -1.838  11.037  19.303  0.00  0.00    +0.000 C 
ATOM     25  C   UNL     1      -1.828  10.438  17.893  0.00  0.00    +0.000 C 
ATOM     26  C   UNL     1      -3.246  10.136  17.432  0.00  0.00    +0.000 C 
ATOM     27  O   UNL     1      -4.055  11.305  17.496  0.00  0.00    +0.000 OA
ATOM     28  C   UNL     1      -4.171  11.807  18.825  0.00  0.00    +0.000 C 
ATOM     29  C   UNL     1      -2.809  12.212  19.362  0.00  0.00    +0.000 C 
ENDBRANCH  22  24
ENDBRANCH  19  22
ENDBRANCH   4  19
TORSDOF 6
ENDMDL
MODEL 3
REMARK VINA RESULT:      -7.5      1.185      1.639
REMARK  Name = 
REMARK  6 active torsions:
REMARK  status: ('A' for Active; 'I' for Inactive)
REMARK    1  A    between atoms: N_3  and  C_4
REMARK    2  A    between atoms: C_7  and  S_8
REMARK    3  A    between atoms: S_8  and  N_11
REMARK    4  A    between atoms: N_11  and  C_12
REMARK    5  A    between atoms: C_22  and  C_23
REMARK    6  A    between atoms: C_23  and  C_24
REMARK                            x       y       z     vdW  Elec       q    Type
REMARK                         _______ _______ _______ _____ _____    ______ ____
ROOT
ATOM      1  C   UNL     1       3.036   6.577  18.322  0.00  0.00    +0.000 A 
ATOM      2  C   UNL     1       2.570   7.857  18.023  0.00  0.00    +0.000 A 
ATOM      3  C   UNL     1       1.882   8.605  18.976  0.00  0.00    +0.000 A 
ATOM      4  C   UNL     1       1.621   8.060  20.229  0.00  0.00    +0.000 A 
ATOM      5  C   UNL     1       2.036   6.762  20.539  0.00  0.00    +0.000 A 
ATOM      6  C   UNL     1       2.736   6.013  19.572  0.00  0.00    +0.000 A 
ENDROOT
BRANCH   1   9
ATOM      7  O   UNL     1       5.808   7.043  17.414  0.00  0.00    +0.000 OA
ATOM      8  C   UNL     1       5.117   6.104  17.035  0.00  0.00    +0.000 C 
ATOM      9  N   UNL     1       3.816   5.833  17.419  0.00  0.00    +0.000 N 
ATOM     10  N   UNL     1       5.617   5.202  16.142  0.00  0.00    +0.000 N 
ATOM     11  C   UNL     1       6.979   5.104  15.634  0.00  0.00    +0.000 C 
ATOM     12  C   UNL     1       6.446   3.884  14.836  0.00  0.00    +0.000 C 
ATOM     13  C   UNL     1       5.365   3.787  15.944  0.00  0.00    +0.000 C 
ATOM     14  H   UNL     1       3.415   4.988  17.044  0.00  0.00    +0.000 HD
BRANCH  12  15
ATOM     15  C   UNL     1       5.947   4.253  13.434  0.00  0.00    +0.000 C 
BRANCH  15  16
ATOM     16  C   UNL     1       5.151   3.158  12.787  0.00  0.00    +0.000 C 
ATOM     17  C   UNL     1       4.472   3.304  11.448  0.00  0.00    +0.000 C 
ATOM     18  C   UNL     1       5.713   2.470  11.567  0.00  0.00    +0.000 C 
ENDBRANCH  15  16
ENDBRANCH  12  15
ENDBRANCH   1   9
BRANCH   4  19
ATOM     19  S   UNL     1       0.834   9.076  21.452  0.00  0.00    +0.000 S 
ATOM     20  O   UNL     1      -0.430   8.453  21.775  0.00  0.00    +0.000 OA
ATOM     21  O   UNL     1       1.793   9.418  22.480  0.00  0.00    +0.000 OA
BRANCH  19  22
ATOM     22  N   UNL     1       0.447  10.489  20.622  0.00  0.00    +0.000 NA
ATOM     23  H   UNL     1       1.118  10.613  19.861  0.00  0.00    +0.000 HD
BRANCH  22  24
ATOM     24  C   UNL     1      -0.968  10.791  20.291  0.00  0.00    +0.000 C 
ATOM     25  C   UNL     1      -1.138  10.676  18.773  0.00  0.00    +0.000 C 
ATOM     26  C   UNL     1      -2.537  11.108  18.360  0.00  0.00    +0.000 C 
ATOM     27  O   UNL     1      -2.812  12.428  18.816  0.00  0.00    +0.000 OA
ATOM     28  C   UNL     1      -2.773  12.524  20.238  0.00  0.00    +0.000 C 
ATOM     29  C   UNL     1      -1.387  12.182  20.758  0.00  0.00    +0.000 C 
ENDBRANCH  22  24
ENDBRANCH  19  22
ENDBRANCH   4  19
TORSDOF 6
ENDMDL
MODEL 4
REMARK VINA RESULT:      -7.4      1.796      2.172
REMARK  Name = 
REMARK  6 active torsions:
REMARK  status: ('A' for Active; 'I' for Inactive)
REMARK    1  A    between atoms: N_3  and  C_4
REMARK    2  A    between atoms: C_7  and  S_8
REMARK    3  A    between atoms: S_8  and  N_11
REMARK    4  A    between atoms: N_11  and  C_12
REMARK    5  A    between atoms: C_22  and  C_23
REMARK    6  A    between atoms: C_23  and  C_24
REMARK                            x       y       z     vdW  Elec       q    Type
REMARK                         _______ _______ _______ _____ _____    ______ ____
ROOT
ATOM      1  C   UNL     1       3.079   6.695  18.404  0.00  0.00    +0.000 A 
ATOM      2  C   UNL     1       2.761   6.228  19.679  0.00  0.00    +0.000 A 
ATOM      3  C   UNL     1       1.949   6.974  20.530  0.00  0.00    +0.000 A 
ATOM      4  C   UNL     1       1.476   8.217  20.123  0.00  0.00    +0.000 A 
ATOM      5  C   UNL     1       1.818   8.731  18.869  0.00  0.00    +0.000 A 
ATOM      6  C   UNL     1       2.636   7.968  18.012  0.00  0.00    +0.000 A 
ENDROOT
BRANCH   1   9
ATOM      7  O   UNL     1       5.830   7.094  17.405  0.00  0.00    +0.000 OA
ATOM      8  C   UNL     1       5.107   6.167  17.057  0.00  0.00    +0.000 C 
ATOM      9  N   UNL     1       3.814   5.927  17.485  0.00  0.00    +0.000 N 
ATOM     10  N   UNL     1       5.559   5.246  16.158  0.00  0.00    +0.000 N 
ATOM     11  C   UNL     1       6.902   5.115  15.607  0.00  0.00    +0.000 C 
ATOM     12  C   UNL     1       6.319   3.899  14.838  0.00  0.00    +0.000 C 
ATOM     13  C   UNL     1       5.272   3.835  15.981  0.00  0.00    +0.000 C 
ATOM     14  H   UNL     1       3.384   5.087  17.131  0.00  0.00    +0.000 HD
BRANCH  12  15
ATOM     15  C   UNL     1       5.783   4.266  13.450  0.00  0.00    +0.000 C 
BRANCH  15  16
ATOM     16  C   UNL     1       5.070   3.130  12.777  0.00  0.00    +0.000 C 
ATOM     17  C   UNL     1       4.378   3.258  11.442  0.00  0.00    +0.000 C 
ATOM     18  C   UNL     1       5.678   2.516  11.540  0.00  0.00    +0.000 C 
ENDBRANCH  15  16
ENDBRANCH  12  15
ENDBRANCH   1   9
BRANCH   4  19
ATOM     19  S   UNL     1       0.362   9.095  21.189  0.00  0.00    +0.000 S 
ATOM     20  O   UNL     1      -0.627   8.145  21.647  0.00  0.00    +0.000 OA
ATOM     21  O   UNL     1       1.122   9.902  22.118  0.00  0.00    +0.000 OA
BRANCH  19  22
ATOM     22  N   UNL     1      -0.456  10.140  20.152  0.00  0.00    +0.000 NA
ATOM     23  H   UNL     1      -1.422   9.817  20.061  0.00  0.00    +0.000 HD
BRANCH  22  24
ATOM     24  C   UNL     1      -0.275  11.607  20.283  0.00  0.00    +0.000 C 
ATOM     25  C   UNL     1      -1.637  12.277  20.077  0.00  0.00    +0.000 C 
ATOM     26  C   UNL     1      -1.490  13.791  20.065  0.00  0.00    +0.000 C 
ATOM     27  O   UNL     1      -0.554  14.197  19.071  0.00  0.00    +0.000 OA
ATOM     28  C   UNL     1       0.749  13.676  19.316  0.00  0.00    +0.000 C 
ATOM     29  C   UNL     1       0.733  12.158  19.278  0.00  0.00    +0.000 C 
ENDBRANCH  22  24
ENDBRANCH  19  22
ENDBRANCH   4  19
TORSDOF 6
ENDMDL
MODEL 5
REMARK VINA RESULT:      -7.3      2.310      2.987
REMARK  Name = 
REMARK  6 active torsions:
REMARK  status: ('A' for Active; 'I' for Inactive)
REMARK    1  A    between atoms: N_3  and  C_4
REMARK    2  A    between atoms: C_7  and  S_8
REMARK    3  A    between atoms: S_8  and  N_11
REMARK    4  A    between atoms: N_11  and  C_12
REMARK    5  A    between atoms: C_22  and  C_23
REMARK    6  A    between atoms: C_23  and  C_24
REMARK                            x       y       z     vdW  Elec       q    Type
REMARK                         _______ _______ _______ _____ _____    ______ ____
ROOT
ATOM      1  C   UNL     1       2.702   7.339  18.458  0.00  0.00    +0.000 A 
ATOM      2  C   UNL     1       2.379   7.104  19.794  0.00  0.00    +0.000 A 
ATOM      3  C   UNL     1       1.572   7.994  20.499  0.00  0.00    +0.000 A 
ATOM      4  C   UNL     1       1.110   9.150  19.881  0.00  0.00    +0.000 A 
ATOM      5  C   UNL     1       1.457   9.434  18.557  0.00  0.00    +0.000 A 
ATOM      6  C   UNL     1       2.270   8.527  17.848  0.00  0.00    +0.000 A 
ENDROOT
BRANCH   1   9
ATOM      7  O   UNL     1       5.578   7.323  17.782  0.00  0.00    +0.000 OA
ATOM      8  C   UNL     1       4.786   6.465  17.409  0.00  0.00    +0.000 C 
ATOM      9  N   UNL     1       3.433   6.416  17.689  0.00  0.00    +0.000 N 
ATOM     10  N   UNL     1       5.215   5.426  16.634  0.00  0.00    +0.000 N 
ATOM     11  C   UNL     1       6.584   5.091  16.264  0.00  0.00    +0.000 C 
ATOM     12  C   UNL     1       5.941   3.896  15.510  0.00  0.00    +0.000 C 
ATOM     13  C   UNL     1       4.771   4.050  16.517  0.00  0.00    +0.000 C 
ATOM     14  H   UNL     1       2.941   5.609  17.340  0.00  0.00    +0.000 HD
BRANCH  12  15
ATOM     15  C   UNL     1       5.619   4.211  14.045  0.00  0.00    +0.000 C 
BRANCH  15  16
ATOM     16  C   UNL     1       6.286   3.274  13.082  0.00  0.00    +0.000 C 
ATOM     17  C   UNL     1       5.670   2.852  11.772  0.00  0.00    +0.000 C 
ATOM     18  C   UNL     1       6.816   3.820  11.779  0.00  0.00    +0.000 C 
ENDBRANCH  15  16
ENDBRANCH  12  15
ENDBRANCH   1   9
BRANCH   4  19
ATOM     19  S   UNL     1       0.001  10.209  20.774  0.00  0.00    +0.000 S 
ATOM     20  O   UNL     1      -0.934  10.754  19.814  0.00  0.00    +0.000 OA
ATOM     21  O   UNL     1      -0.453   9.530  21.968  0.00  0.00    +0.000 OA
BRANCH  19  22
ATOM     22  N   UNL     1       0.968  11.501  21.254  0.00  0.00    +0.000 NA
ATOM     23  H   UNL     1       1.920  11.159  21.395  0.00  0.00    +0.000 HD
BRANCH  22  24
ATOM     24  C   UNL     1       0.847  12.812  20.569  0.00  0.00    +0.000 C 
ATOM     25  C   UNL     1       2.047  12.973  19.631  0.00  0.00    +0.000 C 
ATOM     26  C   UNL     1       2.050  14.358  19.002  0.00  0.00    +0.000 C 
ATOM     27  O   UNL     1       2.036  15.367  20.007  0.00  0.00    +0.000 OA
ATOM     28  C   UNL     1       0.864  15.303  20.815  0.00  0.00    +0.000 C 
ATOM     29  C   UNL     1       0.797  13.977  21.554  0.00  0.00    +0.000 C 
ENDBRANCH  22  24
ENDBRANCH  19  22
ENDBRANCH   4  19
TORSDOF 6
ENDMDL
MODEL 6
REMARK VINA RESULT:      -7.3      3.164      9.993
REMARK  Name = 
REMARK  6 active torsions:
REMARK  status: ('A' for Active; 'I' for Inactive)
REMARK    1  A    between atoms: N_3  and  C_4
REMARK    2  A    between atoms: C_7  and  S_8
REMARK    3  A    between atoms: S_8  and  N_11
REMARK    4  A    between atoms: N_11  and  C_12
REMARK    5  A    between atoms: C_22  and  C_23
REMARK    6  A    between atoms: C_23  and  C_24
REMARK                            x       y       z     vdW  Elec       q    Type
REMARK                         _______ _______ _______ _____ _____    ______ ____
ROOT
ATOM      1  C   UNL     1       1.374   9.430  19.453  0.00  0.00    +0.000 A 
ATOM      2  C   UNL     1       1.380   8.527  20.516  0.00  0.00    +0.000 A 
ATOM      3  C   UNL     1       1.847   7.226  20.343  0.00  0.00    +0.000 A 
ATOM      4  C   UNL     1       2.276   6.805  19.089  0.00  0.00    +0.000 A 
ATOM      5  C   UNL     1       2.236   7.674  17.996  0.00  0.00    +0.000 A 
ATOM      6  C   UNL     1       1.768   8.991  18.180  0.00  0.00    +0.000 A 
ENDROOT
BRANCH   1   9
ATOM      7  O   UNL     1      -1.313  10.656  19.376  0.00  0.00    +0.000 OA
ATOM      8  C   UNL     1      -0.282  11.289  19.569  0.00  0.00    +0.000 C 
ATOM      9  N   UNL     1       1.002  10.776  19.615  0.00  0.00    +0.000 N 
ATOM     10  N   UNL     1      -0.332  12.639  19.762  0.00  0.00    +0.000 N 
ATOM     11  C   UNL     1      -1.513  13.480  19.909  0.00  0.00    +0.000 C 
ATOM     12  C   UNL     1      -0.496  14.641  20.071  0.00  0.00    +0.000 C 
ATOM     13  C   UNL     1       0.497  13.544  20.536  0.00  0.00    +0.000 C 
ATOM     14  H   UNL     1       1.731  11.437  19.833  0.00  0.00    +0.000 HD
BRANCH  12  15
ATOM     15  C   UNL     1      -0.162  15.338  18.747  0.00  0.00    +0.000 C 
BRANCH  15  16
ATOM     16  C   UNL     1      -0.090  16.831  18.871  0.00  0.00    +0.000 C 
ATOM     17  C   UNL     1       0.506  17.726  17.812  0.00  0.00    +0.000 C 
ATOM     18  C   UNL     1      -0.982  17.681  17.999  0.00  0.00    +0.000 C 
ENDBRANCH  15  16
ENDBRANCH  12  15
ENDBRANCH   1   9
BRANCH   4  19
ATOM     19  S   UNL     1       2.959   5.175  18.926  0.00  0.00    +0.000 S 
ATOM     20  O   UNL     1       4.064   5.080  19.853  0.00  0.00    +0.000 OA
ATOM     21  O   UNL     1       1.887   4.204  18.926  0.00  0.00    +0.000 OA
BRANCH  19  22
ATOM     22  N   UNL     1       3.651   5.174  17.390  0.00  0.00    +0.000 NA
ATOM     23  H   UNL     1       3.189   5.890  16.826  0.00  0.00    +0.000 HD
BRANCH  22  24
ATOM     24  C   UNL     1       5.125   5.086  17.242  0.00  0.00    +0.000 C 
ATOM     25  C   UNL     1       5.696   6.507  17.298  0.00  0.00    +0.000 C 
ATOM     26  C   UNL     1       7.191   6.492  17.014  0.00  0.00    +0.000 C 
ATOM     27  O   UNL     1       7.459   5.871  15.761  0.00  0.00    +0.000 OA
ATOM     28  C   UNL     1       7.038   4.510  15.734  0.00  0.00    +0.000 C 
ATOM     29  C   UNL     1       5.536   4.411  15.936  0.00  0.00    +0.000 C 
ENDBRANCH  22  24
ENDBRANCH  19  22
ENDBRANCH   4  19
TORSDOF 6
ENDMDL
MODEL 7
REMARK VINA RESULT:      -7.3      1.854      2.403
REMARK  Name = 
REMARK  6 active torsions:
REMARK  status: ('A' for Active; 'I' for Inactive)
REMARK    1  A    between atoms: N_3  and  C_4
REMARK    2  A    between atoms: C_7  and  S_8
REMARK    3  A    between atoms: S_8  and  N_11
REMARK    4  A    between atoms: N_11  and  C_12
REMARK    5  A    between atoms: C_22  and  C_23
REMARK    6  A    between atoms: C_23  and  C_24
REMARK                            x       y       z     vdW  Elec       q    Type
REMARK                         _______ _______ _______ _____ _____    ______ ____
ROOT
ATOM      1  C   UNL     1       2.831   6.671  18.568  0.00  0.00    +0.000 A 
ATOM      2  C   UNL     1       2.414   7.967  18.269  0.00  0.00    +0.000 A 
ATOM      3  C   UNL     1       1.719   8.727  19.208  0.00  0.00    +0.000 A 
ATOM      4  C   UNL     1       1.402   8.179  20.446  0.00  0.00    +0.000 A 
ATOM      5  C   UNL     1       1.766   6.865  20.754  0.00  0.00    +0.000 A 
ATOM      6  C   UNL     1       2.473   6.104  19.802  0.00  0.00    +0.000 A 
ENDROOT
BRANCH   1   9
ATOM      7  O   UNL     1       5.637   7.071  17.738  0.00  0.00    +0.000 OA
ATOM      8  C   UNL     1       4.933   6.152  17.336  0.00  0.00    +0.000 C 
ATOM      9  N   UNL     1       3.616   5.911  17.683  0.00  0.00    +0.000 N 
ATOM     10  N   UNL     1       5.433   5.241  16.451  0.00  0.00    +0.000 N 
ATOM     11  C   UNL     1       6.806   5.112  15.979  0.00  0.00    +0.000 C 
ATOM     12  C   UNL     1       6.264   3.909  15.160  0.00  0.00    +0.000 C 
ATOM     13  C   UNL     1       5.152   3.834  16.238  0.00  0.00    +0.000 C 
ATOM     14  H   UNL     1       3.204   5.079  17.293  0.00  0.00    +0.000 HD
BRANCH  12  15
ATOM     15  C   UNL     1       5.813   4.297  13.748  0.00  0.00    +0.000 C 
BRANCH  15  16
ATOM     16  C   UNL     1       5.617   3.113  12.848  0.00  0.00    +0.000 C 
ATOM     17  C   UNL     1       4.843   3.171  11.554  0.00  0.00    +0.000 C 
ATOM     18  C   UNL     1       6.340   3.075  11.523  0.00  0.00    +0.000 C 
ENDBRANCH  15  16
ENDBRANCH  12  15
ENDBRANCH   1   9
BRANCH   4  19
ATOM     19  S   UNL     1       0.608   9.207  21.654  0.00  0.00    +0.000 S 
ATOM     20  O   UNL     1      -0.652   8.580  21.986  0.00  0.00    +0.000 OA
ATOM     21  O   UNL     1       1.564   9.570  22.677  0.00  0.00    +0.000 OA
BRANCH  19  22
ATOM     22  N   UNL     1       0.211  10.605  20.804  0.00  0.00    +0.000 NA
ATOM     23  H   UNL     1       0.328  10.421  19.805  0.00  0.00    +0.000 HD
BRANCH  22  24
ATOM     24  C   UNL     1      -0.993  11.387  21.181  0.00  0.00    +0.000 C 
ATOM     25  C   UNL     1      -1.403  12.242  19.978  0.00  0.00    +0.000 C 
ATOM     26  C   UNL     1      -2.551  13.168  20.349  0.00  0.00    +0.000 C 
ATOM     27  O   UNL     1      -2.204  13.976  21.469  0.00  0.00    +0.000 OA
ATOM     28  C   UNL     1      -1.934  13.196  22.631  0.00  0.00    +0.000 C 
ATOM     29  C   UNL     1      -0.747  12.279  22.394  0.00  0.00    +0.000 C 
ENDBRANCH  22  24
ENDBRANCH  19  22
ENDBRANCH   4  19
TORSDOF 6
ENDMDL
MODEL 8
REMARK VINA RESULT:      -7.2      2.264      3.153
REMARK  Name = 
REMARK  6 active torsions:
REMARK  status: ('A' for Active; 'I' for Inactive)
REMARK    1  A    between atoms: N_3  and  C_4
REMARK    2  A    between atoms: C_7  and  S_8
REMARK    3  A    between atoms: S_8  and  N_11
REMARK    4  A    between atoms: N_11  and  C_12
REMARK    5  A    between atoms: C_22  and  C_23
REMARK    6  A    between atoms: C_23  and  C_24
REMARK                            x       y       z     vdW  Elec       q    Type
REMARK                         _______ _______ _______ _____ _____    ______ ____
ROOT
ATOM      1  C   UNL     1       2.558   7.443  18.217  0.00  0.00    +0.000 A 
ATOM      2  C   UNL     1       2.084   8.610  17.618  0.00  0.00    +0.000 A 
ATOM      3  C   UNL     1       1.416   9.575  18.368  0.00  0.00    +0.000 A 
ATOM      4  C   UNL     1       1.184   9.363  19.723  0.00  0.00    +0.000 A 
ATOM      5  C   UNL     1       1.607   8.182  20.338  0.00  0.00    +0.000 A 
ATOM      6  C   UNL     1       2.286   7.211  19.575  0.00  0.00    +0.000 A 
ENDROOT
BRANCH   1   9
ATOM      7  O   UNL     1       5.422   7.498  17.497  0.00  0.00    +0.000 OA
ATOM      8  C   UNL     1       4.665   6.578  17.208  0.00  0.00    +0.000 C 
ATOM      9  N   UNL     1       3.319   6.494  17.513  0.00  0.00    +0.000 N 
ATOM     10  N   UNL     1       5.131   5.500  16.513  0.00  0.00    +0.000 N 
ATOM     11  C   UNL     1       6.508   5.196  16.148  0.00  0.00    +0.000 C 
ATOM     12  C   UNL     1       5.909   3.916  15.504  0.00  0.00    +0.000 C 
ATOM     13  C   UNL     1       4.747   4.101  16.514  0.00  0.00    +0.000 C 
ATOM     14  H   UNL     1       2.860   5.640  17.240  0.00  0.00    +0.000 HD
BRANCH  12  15
ATOM     15  C   UNL     1       5.554   4.097  14.024  0.00  0.00    +0.000 C 
BRANCH  15  16
ATOM     16  C   UNL     1       6.368   3.224  13.115  0.00  0.00    +0.000 C 
ATOM     17  C   UNL     1       5.879   2.740  11.772  0.00  0.00    +0.000 C 
ATOM     18  C   UNL     1       6.925   3.812  11.842  0.00  0.00    +0.000 C 
ENDBRANCH  15  16
ENDBRANCH  12  15
ENDBRANCH   1   9
BRANCH   4  19
ATOM     19  S   UNL     1       0.422  10.657  20.669  0.00  0.00    +0.000 S 
ATOM     20  O   UNL     1      -0.912  10.211  21.004  0.00  0.00    +0.000 OA
ATOM     21  O   UNL     1       1.345  11.113  21.686  0.00  0.00    +0.000 OA
BRANCH  19  22
ATOM     22  N   UNL     1       0.220  11.909  19.561  0.00  0.00    +0.000 NA
ATOM     23  H   UNL     1      -0.781  12.065  19.427  0.00  0.00    +0.000 HD
BRANCH  22  24
ATOM     24  C   UNL     1       1.058  13.130  19.661  0.00  0.00    +0.000 C 
ATOM     25  C   UNL     1       0.232  14.317  19.155  0.00  0.00    +0.000 C 
ATOM     26  C   UNL     1       1.084  15.576  19.105  0.00  0.00    +0.000 C 
ATOM     27  O   UNL     1       2.242  15.368  18.304  0.00  0.00    +0.000 OA
ATOM     28  C   UNL     1       3.082  14.343  18.829  0.00  0.00    +0.000 C 
ATOM     29  C   UNL     1       2.349  13.013  18.856  0.00  0.00    +0.000 C 
ENDBRANCH  22  24
ENDBRANCH  19  22
ENDBRANCH   4  19
TORSDOF 6
ENDMDL
MODEL 9
REMARK VINA RESULT:      -7.2      3.643     10.209
REMARK  Name = 
REMARK  6 active torsions:
REMARK  status: ('A' for Active; 'I' for Inactive)
REMARK    1  A    between atoms: N_3  and  C_4
REMARK    2  A    between atoms: C_7  and  S_8
REMARK    3  A    between atoms: S_8  and  N_11
REMARK    4  A    between atoms: N_11  and  C_12
REMARK    5  A    between atoms: C_22  and  C_23
REMARK    6  A    between atoms: C_23  and  C_24
REMARK                            x       y       z     vdW  Elec       q    Type
REMARK                         _______ _______ _______ _____ _____    ______ ____
ROOT
ATOM      1  C   UNL     1       1.033   9.126  19.670  0.00  0.00    +0.000 A 
ATOM      2  C   UNL     1       1.563   8.033  20.356  0.00  0.00    +0.000 A 
ATOM      3  C   UNL     1       2.504   7.202  19.753  0.00  0.00    +0.000 A 
ATOM      4  C   UNL     1       2.896   7.437  18.440  0.00  0.00    +0.000 A 
ATOM      5  C   UNL     1       2.346   8.497  17.714  0.00  0.00    +0.000 A 
ATOM      6  C   UNL     1       1.397   9.336  18.331  0.00  0.00    +0.000 A 
ENDROOT
BRANCH   1   9
ATOM      7  O   UNL     1       1.647  11.524  21.281  0.00  0.00    +0.000 OA
ATOM      8  C   UNL     1       0.508  11.152  21.023  0.00  0.00    +0.000 C 
ATOM      9  N   UNL     1       0.155  10.041  20.279  0.00  0.00    +0.000 N 
ATOM     10  N   UNL     1      -0.565  11.854  21.489  0.00  0.00    +0.000 N 
ATOM     11  C   UNL     1      -0.565  13.134  22.184  0.00  0.00    +0.000 C 
ATOM     12  C   UNL     1      -2.109  12.973  22.193  0.00  0.00    +0.000 C 
ATOM     13  C   UNL     1      -1.898  12.063  20.955  0.00  0.00    +0.000 C 
ATOM     14  H   UNL     1      -0.832   9.911  20.125  0.00  0.00    +0.000 HD
BRANCH  12  15
ATOM     15  C   UNL     1      -2.635  12.284  23.457  0.00  0.00    +0.000 C 
BRANCH  15  16
ATOM     16  C   UNL     1      -3.711  13.068  24.149  0.00  0.00    +0.000 C 
ATOM     17  C   UNL     1      -5.102  13.242  23.591  0.00  0.00    +0.000 C 
ATOM     18  C   UNL     1      -4.876  12.329  24.759  0.00  0.00    +0.000 C 
ENDBRANCH  15  16
ENDBRANCH  12  15
ENDBRANCH   1   9
BRANCH   4  19
ATOM     19  S   UNL     1       4.172   6.423  17.738  0.00  0.00    +0.000 S 
ATOM     20  O   UNL     1       4.593   7.057  16.509  0.00  0.00    +0.000 OA
ATOM     21  O   UNL     1       5.122   6.066  18.768  0.00  0.00    +0.000 OA
BRANCH  19  22
ATOM     22  N   UNL     1       3.367   5.018  17.273  0.00  0.00    +0.000 NA
ATOM     23  H   UNL     1       3.842   4.627  16.457  0.00  0.00    +0.000 HD
BRANCH  22  24
ATOM     24  C   UNL     1       2.932   4.039  18.299  0.00  0.00    +0.000 C 
ATOM     25  C   UNL     1       3.553   2.681  17.955  0.00  0.00    +0.000 C 
ATOM     26  C   UNL     1       3.033   1.604  18.896  0.00  0.00    +0.000 C 
ATOM     27  O   UNL     1       1.610   1.550  18.861  0.00  0.00    +0.000 OA
ATOM     28  C   UNL     1       1.016   2.772  19.293  0.00  0.00    +0.000 C 
ATOM     29  C   UNL     1       1.413   3.913  18.372  0.00  0.00    +0.000 C 
ENDBRANCH  22  24
ENDBRANCH  19  22
ENDBRANCH   4  19
TORSDOF 6
ENDMDL
