MODEL 1
REMARK VINA RESULT:      -8.4      0.000      0.000
REMARK  Name = 
REMARK  5 active torsions:
REMARK  status: ('A' for Active; 'I' for Inactive)
REMARK    1  A    between atoms: C_1  and  C_2
REMARK    2  A    between atoms: C_4  and  O_5
REMARK    3  A    between atoms: N_10  and  C_11
REMARK    4  A    between atoms: C_11  and  C_12
REMARK    5  A    between atoms: C_11  and  C_19
REMARK                            x       y       z     vdW  Elec       q    Type
REMARK                         _______ _______ _______ _____ _____    ______ ____
ROOT
ATOM      1  C   UNL     1       2.288   4.780  20.868  0.00  0.00    +0.000 C 
ATOM      2  C   UNL     1       1.315   4.050  19.937  0.00  0.00    +0.000 C 
ATOM      3  C   UNL     1       1.419   2.515  20.033  0.00  0.00    +0.000 C 
ATOM      4  C   UNL     1       2.584   1.906  19.244  0.00  0.00    +0.000 C 
ATOM      5  C   UNL     1       2.673   2.478  17.822  0.00  0.00    +0.000 C 
ATOM      6  N   UNL     1       2.668   3.946  17.859  0.00  0.00    +0.000 N 
ATOM      7  C   UNL     1       3.575   4.809  17.264  0.00  0.00    +0.000 C 
ATOM      8  O   UNL     1       3.444   6.029  17.308  0.00  0.00    +0.000 OA
ATOM      9  N   UNL     1       4.622   4.226  16.611  0.00  0.00    +0.000 N 
ATOM     10  C   UNL     1       1.475   4.522  18.486  0.00  0.00    +0.000 C 
ATOM     11  H   UNL     1       4.877   3.285  16.840  0.00  0.00    +0.000 HD
ENDROOT
BRANCH   4  12
ATOM     12  O   UNL     1       3.820   2.116  19.927  0.00  0.00    +0.000 OA
ATOM     13  H   UNL     1       4.451   2.474  19.278  0.00  0.00    +0.000 HD
ENDBRANCH   4  12
BRANCH   9  14
ATOM     14  C   UNL     1       5.670   5.039  16.020  0.00  0.00    +0.000 C 
BRANCH  14  15
ATOM     15  C   UNL     1       6.604   5.622  17.063  0.00  0.00    +0.000 A 
ATOM     16  C   UNL     1       7.087   4.811  18.089  0.00  0.00    +0.000 A 
ATOM     17  N   UNL     1       7.896   5.239  19.089  0.00  0.00    +0.000 NA
ATOM     18  C   UNL     1       8.256   6.542  19.062  0.00  0.00    +0.000 A 
ATOM     19  C   UNL     1       7.831   7.434  18.093  0.00  0.00    +0.000 A 
ATOM     20 BR   UNL     1       8.380   9.237  18.126  0.00  0.00    +0.000 Br
ATOM     21  C   UNL     1       6.986   6.972  17.088  0.00  0.00    +0.000 A 
ENDBRANCH  14  15
BRANCH  14  22
ATOM     22  C   UNL     1       6.469   4.187  15.056  0.00  0.00    +0.000 C 
ATOM     23  C   UNL     1       5.933   3.825  13.689  0.00  0.00    +0.000 C 
ATOM     24  C   UNL     1       7.053   4.816  13.811  0.00  0.00    +0.000 C 
ENDBRANCH  14  22
ENDBRANCH   9  14
TORSDOF 4
ENDMDL
MODEL 2
REMARK VINA RESULT:      -7.8      3.151      6.365
REMARK  Name = 
REMARK  5 active torsions:
REMARK  status: ('A' for Active; 'I' for Inactive)
REMARK    1  A    between atoms: C_1  and  C_2
REMARK    2  A    between atoms: C_4  and  O_5
REMARK    3  A    between atoms: N_10  and  C_11
REMARK    4  A    between atoms: C_11  and  C_12
REMARK    5  A    between atoms: C_11  and  C_19
REMARK                            x       y       z     vdW  Elec       q    Type
REMARK                         _______ _______ _______ _____ _____    ______ ____
ROOT
ATOM      1  C   UNL     1       7.622   6.812  17.383  0.00  0.00    +0.000 C 
ATOM      2  C   UNL     1       7.501   5.388  16.831  0.00  0.00    +0.000 C 
ATOM      3  C   UNL     1       6.889   5.334  15.417  0.00  0.00    +0.000 C 
ATOM      4  C   UNL     1       5.360   5.445  15.382  0.00  0.00    +0.000 C 
ATOM      5  C   UNL     1       4.695   4.526  16.417  0.00  0.00    +0.000 C 
ATOM      6  N   UNL     1       5.287   4.736  17.744  0.00  0.00    +0.000 N 
ATOM      7  C   UNL     1       4.625   5.006  18.931  0.00  0.00    +0.000 C 
ATOM      8  O   UNL     1       5.215   5.106  20.003  0.00  0.00    +0.000 OA
ATOM      9  N   UNL     1       3.269   5.143  18.847  0.00  0.00    +0.000 N 
ATOM     10  C   UNL     1       6.729   4.482  17.800  0.00  0.00    +0.000 C 
ATOM     11  H   UNL     1       2.855   5.363  17.963  0.00  0.00    +0.000 HD
ENDROOT
BRANCH   4  12
ATOM     12  O   UNL     1       4.948   6.795  15.600  0.00  0.00    +0.000 OA
ATOM     13  H   UNL     1       5.383   7.342  14.922  0.00  0.00    +0.000 HD
ENDBRANCH   4  12
BRANCH   9  14
ATOM     14  C   UNL     1       2.488   5.504  20.017  0.00  0.00    +0.000 C 
BRANCH  14  15
ATOM     15  C   UNL     1       1.963   6.925  19.944  0.00  0.00    +0.000 A 
ATOM     16  C   UNL     1       2.168   7.679  18.789  0.00  0.00    +0.000 A 
ATOM     17  N   UNL     1       1.773   8.965  18.633  0.00  0.00    +0.000 NA
ATOM     18  C   UNL     1       1.127   9.533  19.677  0.00  0.00    +0.000 A 
ATOM     19  C   UNL     1       0.877   8.877  20.870  0.00  0.00    +0.000 A 
ATOM     20 BR   UNL     1      -0.031   9.740  22.279  0.00  0.00    +0.000 Br
ATOM     21  C   UNL     1       1.310   7.562  21.010  0.00  0.00    +0.000 A 
ENDBRANCH  14  15
BRANCH  14  22
ATOM     22  C   UNL     1       1.321   4.548  20.144  0.00  0.00    +0.000 C 
ATOM     23  C   UNL     1       1.389   3.139  19.596  0.00  0.00    +0.000 C 
ATOM     24  C   UNL     1       1.424   3.363  21.079  0.00  0.00    +0.000 C 
ENDBRANCH  14  22
ENDBRANCH   9  14
TORSDOF 4
ENDMDL
MODEL 3
REMARK VINA RESULT:      -7.3      2.796      6.182
REMARK  Name = 
REMARK  5 active torsions:
REMARK  status: ('A' for Active; 'I' for Inactive)
REMARK    1  A    between atoms: C_1  and  C_2
REMARK    2  A    between atoms: C_4  and  O_5
REMARK    3  A    between atoms: N_10  and  C_11
REMARK    4  A    between atoms: C_11  and  C_12
REMARK    5  A    between atoms: C_11  and  C_19
REMARK                            x       y       z     vdW  Elec       q    Type
REMARK                         _______ _______ _______ _____ _____    ______ ____
ROOT
ATOM      1  C   UNL     1       7.557   6.859  17.510  0.00  0.00    +0.000 C 
ATOM      2  C   UNL     1       7.481   5.463  16.884  0.00  0.00    +0.000 C 
ATOM      3  C   UNL     1       6.868   5.463  15.470  0.00  0.00    +0.000 C 
ATOM      4  C   UNL     1       5.336   5.525  15.442  0.00  0.00    +0.000 C 
ATOM      5  C   UNL     1       4.703   4.532  16.427  0.00  0.00    +0.000 C 
ATOM      6  N   UNL     1       5.292   4.692  17.763  0.00  0.00    +0.000 N 
ATOM      7  C   UNL     1       4.624   4.877  18.963  0.00  0.00    +0.000 C 
ATOM      8  O   UNL     1       5.214   4.940  20.039  0.00  0.00    +0.000 OA
ATOM      9  N   UNL     1       3.265   4.974  18.888  0.00  0.00    +0.000 N 
ATOM     10  C   UNL     1       6.742   4.482  17.805  0.00  0.00    +0.000 C 
ATOM     11  H   UNL     1       2.841   5.226  18.016  0.00  0.00    +0.000 HD
ENDROOT
BRANCH   4  12
ATOM     12  O   UNL     1       4.881   6.848  15.730  0.00  0.00    +0.000 OA
ATOM     13  H   UNL     1       4.363   6.802  16.553  0.00  0.00    +0.000 HD
ENDBRANCH   4  12
BRANCH   9  14
ATOM     14  C   UNL     1       2.475   5.247  20.075  0.00  0.00    +0.000 C 
BRANCH  14  15
ATOM     15  C   UNL     1       1.970   6.677  20.116  0.00  0.00    +0.000 A 
ATOM     16  C   UNL     1       1.213   7.112  21.203  0.00  0.00    +0.000 A 
ATOM     17  N   UNL     1       0.686   8.355  21.321  0.00  0.00    +0.000 NA
ATOM     18  C   UNL     1       0.933   9.218  20.310  0.00  0.00    +0.000 A 
ATOM     19  C   UNL     1       1.668   8.888  19.184  0.00  0.00    +0.000 A 
ATOM     20 BR   UNL     1       1.968  10.151  17.817  0.00  0.00    +0.000 Br
ATOM     21  C   UNL     1       2.182   7.599  19.080  0.00  0.00    +0.000 A 
ENDBRANCH  14  15
BRANCH  14  22
ATOM     22  C   UNL     1       1.294   4.300  20.110  0.00  0.00    +0.000 C 
ATOM     23  C   UNL     1       1.379   2.908  19.525  0.00  0.00    +0.000 C 
ATOM     24  C   UNL     1       1.334   3.089  21.015  0.00  0.00    +0.000 C 
ENDBRANCH  14  22
ENDBRANCH   9  14
TORSDOF 4
ENDMDL
MODEL 4
REMARK VINA RESULT:      -6.9      2.684      4.248
REMARK  Name = 
REMARK  5 active torsions:
REMARK  status: ('A' for Active; 'I' for Inactive)
REMARK    1  A    between atoms: C_1  and  C_2
REMARK    2  A    between atoms: C_4  and  O_5
REMARK    3  A    between atoms: N_10  and  C_11
REMARK    4  A    between atoms: C_11  and  C_12
REMARK    5  A    between atoms: C_11  and  C_19
REMARK                            x       y       z     vdW  Elec       q    Type
REMARK                         _______ _______ _______ _____ _____    ______ ____
ROOT
ATOM      1  C   UNL     1       2.829   1.824  19.393  0.00  0.00    +0.000 C 
ATOM      2  C   UNL     1       2.300   3.188  19.845  0.00  0.00    +0.000 C 
ATOM      3  C   UNL     1       1.143   3.711  18.970  0.00  0.00    +0.000 C 
ATOM      4  C   UNL     1       1.585   4.354  17.650  0.00  0.00    +0.000 C 
ATOM      5  C   UNL     1       2.747   5.337  17.853  0.00  0.00    +0.000 C 
ATOM      6  N   UNL     1       3.832   4.700  18.610  0.00  0.00    +0.000 N 
ATOM      7  C   UNL     1       5.173   4.631  18.267  0.00  0.00    +0.000 C 
ATOM      8  O   UNL     1       6.013   4.122  19.005  0.00  0.00    +0.000 OA
ATOM      9  N   UNL     1       5.516   5.174  17.063  0.00  0.00    +0.000 N 
ATOM     10  C   UNL     1       3.432   4.220  19.935  0.00  0.00    +0.000 C 
ATOM     11  H   UNL     1       4.810   5.297  16.364  0.00  0.00    +0.000 HD
ENDROOT
BRANCH   4  12
ATOM     12  O   UNL     1       1.960   3.353  16.704  0.00  0.00    +0.000 OA
ATOM     13  H   UNL     1       1.396   2.576  16.866  0.00  0.00    +0.000 HD
ENDBRANCH   4  12
BRANCH   9  14
ATOM     14  C   UNL     1       6.881   5.086  16.573  0.00  0.00    +0.000 C 
BRANCH  14  15
ATOM     15  C   UNL     1       6.941   4.873  15.073  0.00  0.00    +0.000 A 
ATOM     16  C   UNL     1       7.912   5.532  14.319  0.00  0.00    +0.000 A 
ATOM     17  N   UNL     1       8.031   5.439  12.973  0.00  0.00    +0.000 NA
ATOM     18  C   UNL     1       7.145   4.638  12.339  0.00  0.00    +0.000 A 
ATOM     19  C   UNL     1       6.141   3.942  12.989  0.00  0.00    +0.000 A 
ATOM     20 BR   UNL     1       4.945   2.844  12.031  0.00  0.00    +0.000 Br
ATOM     21  C   UNL     1       6.030   4.070  14.370  0.00  0.00    +0.000 A 
ENDBRANCH  14  15
BRANCH  14  22
ATOM     22  C   UNL     1       7.613   6.363  16.925  0.00  0.00    +0.000 C 
ATOM     23  C   UNL     1       6.896   7.544  17.541  0.00  0.00    +0.000 C 
ATOM     24  C   UNL     1       7.832   6.722  18.379  0.00  0.00    +0.000 C 
ENDBRANCH  14  22
ENDBRANCH   9  14
TORSDOF 4
ENDMDL
MODEL 5
REMARK VINA RESULT:      -6.8      1.249      1.480
REMARK  Name = 
REMARK  5 active torsions:
REMARK  status: ('A' for Active; 'I' for Inactive)
REMARK    1  A    between atoms: C_1  and  C_2
REMARK    2  A    between atoms: C_4  and  O_5
REMARK    3  A    between atoms: N_10  and  C_11
REMARK    4  A    between atoms: C_11  and  C_12
REMARK    5  A    between atoms: C_11  and  C_19
REMARK                            x       y       z     vdW  Elec       q    Type
REMARK                         _______ _______ _______ _____ _____    ______ ____
ROOT
ATOM      1  C   UNL     1       2.287   4.913  21.045  0.00  0.00    +0.000 C 
ATOM      2  C   UNL     1       1.354   4.002  20.242  0.00  0.00    +0.000 C 
ATOM      3  C   UNL     1       1.615   2.502  20.483  0.00  0.00    +0.000 C 
ATOM      4  C   UNL     1       2.800   1.929  19.697  0.00  0.00    +0.000 C 
ATOM      5  C   UNL     1       2.772   2.358  18.223  0.00  0.00    +0.000 C 
ATOM      6  N   UNL     1       2.622   3.815  18.117  0.00  0.00    +0.000 N 
ATOM      7  C   UNL     1       3.412   4.695  17.394  0.00  0.00    +0.000 C 
ATOM      8  O   UNL     1       3.161   5.895  17.325  0.00  0.00    +0.000 OA
ATOM      9  N   UNL     1       4.483   4.151  16.748  0.00  0.00    +0.000 N 
ATOM     10  C   UNL     1       1.405   4.336  18.746  0.00  0.00    +0.000 C 
ATOM     11  H   UNL     1       4.841   3.267  17.054  0.00  0.00    +0.000 HD
ENDROOT
BRANCH   4  12
ATOM     12  O   UNL     1       4.036   2.325  20.292  0.00  0.00    +0.000 OA
ATOM     13  H   UNL     1       4.703   2.350  19.583  0.00  0.00    +0.000 HD
ENDBRANCH   4  12
BRANCH   9  14
ATOM     14  C   UNL     1       5.420   4.995  16.026  0.00  0.00    +0.000 C 
BRANCH  14  15
ATOM     15  C   UNL     1       6.344   5.756  16.957  0.00  0.00    +0.000 A 
ATOM     16  C   UNL     1       6.719   7.061  16.643  0.00  0.00    +0.000 A 
ATOM     17  N   UNL     1       7.565   7.816  17.385  0.00  0.00    +0.000 NA
ATOM     18  C   UNL     1       8.059   7.247  18.509  0.00  0.00    +0.000 A 
ATOM     19  C   UNL     1       7.756   5.957  18.910  0.00  0.00    +0.000 A 
ATOM     20 BR   UNL     1       8.485   5.237  20.492  0.00  0.00    +0.000 Br
ATOM     21  C   UNL     1       6.898   5.199  18.120  0.00  0.00    +0.000 A 
ENDBRANCH  14  15
BRANCH  14  22
ATOM     22  C   UNL     1       6.247   4.131  15.098  0.00  0.00    +0.000 C 
ATOM     23  C   UNL     1       5.768   3.779  13.707  0.00  0.00    +0.000 C 
ATOM     24  C   UNL     1       6.898   4.751  13.882  0.00  0.00    +0.000 C 
ENDBRANCH  14  22
ENDBRANCH   9  14
TORSDOF 4
ENDMDL
MODEL 6
REMARK VINA RESULT:      -6.7      2.342      3.685
REMARK  Name = 
REMARK  5 active torsions:
REMARK  status: ('A' for Active; 'I' for Inactive)
REMARK    1  A    between atoms: C_1  and  C_2
REMARK    2  A    between atoms: C_4  and  O_5
REMARK    3  A    between atoms: N_10  and  C_11
REMARK    4  A    between atoms: C_11  and  C_12
REMARK    5  A    between atoms: C_11  and  C_19
REMARK                            x       y       z     vdW  Elec       q    Type
REMARK                         _______ _______ _______ _____ _____    ______ ____
ROOT
ATOM      1  C   UNL     1       1.758   5.243  20.554  0.00  0.00    +0.000 C 
ATOM      2  C   UNL     1       1.084   4.303  19.550  0.00  0.00    +0.000 C 
ATOM      3  C   UNL     1       1.000   2.845  20.044  0.00  0.00    +0.000 C 
ATOM      4  C   UNL     1       2.296   2.042  19.878  0.00  0.00    +0.000 C 
ATOM      5  C   UNL     1       2.908   2.224  18.482  0.00  0.00    +0.000 C 
ATOM      6  N   UNL     1       3.034   3.651  18.160  0.00  0.00    +0.000 N 
ATOM      7  C   UNL     1       4.167   4.322  17.727  0.00  0.00    +0.000 C 
ATOM      8  O   UNL     1       4.148   5.513  17.427  0.00  0.00    +0.000 OA
ATOM      9  N   UNL     1       5.309   3.581  17.638  0.00  0.00    +0.000 N 
ATOM     10  C   UNL     1       1.763   4.380  18.176  0.00  0.00    +0.000 C 
ATOM     11  H   UNL     1       5.381   2.730  18.162  0.00  0.00    +0.000 HD
ENDROOT
BRANCH   4  12
ATOM     12  O   UNL     1       3.248   2.414  20.876  0.00  0.00    +0.000 OA
ATOM     13  H   UNL     1       3.941   1.730  20.882  0.00  0.00    +0.000 HD
ENDBRANCH   4  12
BRANCH   9  14
ATOM     14  C   UNL     1       6.569   4.203  17.270  0.00  0.00    +0.000 C 
BRANCH  14  15
ATOM     15  C   UNL     1       6.705   4.385  15.771  0.00  0.00    +0.000 A 
ATOM     16  C   UNL     1       7.677   5.248  15.265  0.00  0.00    +0.000 A 
ATOM     17  N   UNL     1       7.860   5.508  13.947  0.00  0.00    +0.000 NA
ATOM     18  C   UNL     1       7.040   4.869  13.083  0.00  0.00    +0.000 A 
ATOM     19  C   UNL     1       6.040   3.997  13.478  0.00  0.00    +0.000 A 
ATOM     20 BR   UNL     1       4.939   3.143  12.209  0.00  0.00    +0.000 Br
ATOM     21  C   UNL     1       5.863   3.761  14.838  0.00  0.00    +0.000 A 
ENDBRANCH  14  15
BRANCH  14  22
ATOM     22  C   UNL     1       6.667   5.554  17.948  0.00  0.00    +0.000 C 
ATOM     23  C   UNL     1       6.727   5.682  19.454  0.00  0.00    +0.000 C 
ATOM     24  C   UNL     1       7.955   5.954  18.634  0.00  0.00    +0.000 C 
ENDBRANCH  14  22
ENDBRANCH   9  14
TORSDOF 4
ENDMDL
MODEL 7
REMARK VINA RESULT:      -6.2      2.036      3.983
REMARK  Name = 
REMARK  5 active torsions:
REMARK  status: ('A' for Active; 'I' for Inactive)
REMARK    1  A    between atoms: C_1  and  C_2
REMARK    2  A    between atoms: C_4  and  O_5
REMARK    3  A    between atoms: N_10  and  C_11
REMARK    4  A    between atoms: C_11  and  C_12
REMARK    5  A    between atoms: C_11  and  C_19
REMARK                            x       y       z     vdW  Elec       q    Type
REMARK                         _______ _______ _______ _____ _____    ______ ____
ROOT
ATOM      1  C   UNL     1       1.315   2.172  19.184  0.00  0.00    +0.000 C 
ATOM      2  C   UNL     1       1.499   3.028  20.440  0.00  0.00    +0.000 C 
ATOM      3  C   UNL     1       0.835   4.415  20.333  0.00  0.00    +0.000 C 
ATOM      4  C   UNL     1       1.649   5.450  19.546  0.00  0.00    +0.000 C 
ATOM      5  C   UNL     1       3.124   5.463  19.973  0.00  0.00    +0.000 C 
ATOM      6  N   UNL     1       3.678   4.104  19.940  0.00  0.00    +0.000 N 
ATOM      7  C   UNL     1       4.831   3.678  19.299  0.00  0.00    +0.000 C 
ATOM      8  O   UNL     1       5.240   2.523  19.386  0.00  0.00    +0.000 OA
ATOM      9  N   UNL     1       5.500   4.619  18.572  0.00  0.00    +0.000 N 
ATOM     10  C   UNL     1       2.982   3.155  20.813  0.00  0.00    +0.000 C 
ATOM     11  H   UNL     1       5.010   5.438  18.266  0.00  0.00    +0.000 HD
ENDROOT
BRANCH   4  12
ATOM     12  O   UNL     1       1.554   5.203  18.143  0.00  0.00    +0.000 OA
ATOM     13  H   UNL     1       0.610   5.087  17.933  0.00  0.00    +0.000 HD
ENDBRANCH   4  12
BRANCH   9  14
ATOM     14  C   UNL     1       6.675   4.260  17.799  0.00  0.00    +0.000 C 
BRANCH  14  15
ATOM     15  C   UNL     1       6.433   4.357  16.304  0.00  0.00    +0.000 A 
ATOM     16  C   UNL     1       5.238   3.884  15.766  0.00  0.00    +0.000 A 
ATOM     17  N   UNL     1       4.936   3.891  14.444  0.00  0.00    +0.000 NA
ATOM     18  C   UNL     1       5.869   4.407  13.612  0.00  0.00    +0.000 A 
ATOM     19  C   UNL     1       7.089   4.899  14.041  0.00  0.00    +0.000 A 
ATOM     20 BR   UNL     1       8.335   5.605  12.815  0.00  0.00    +0.000 Br
ATOM     21  C   UNL     1       7.380   4.864  15.401  0.00  0.00    +0.000 A 
ENDBRANCH  14  15
BRANCH  14  22
ATOM     22  C   UNL     1       7.815   5.180  18.180  0.00  0.00    +0.000 C 
ATOM     23  C   UNL     1       7.598   6.661  18.400  0.00  0.00    +0.000 C 
ATOM     24  C   UNL     1       7.868   5.766  19.574  0.00  0.00    +0.000 C 
ENDBRANCH  14  22
ENDBRANCH   9  14
TORSDOF 4
ENDMDL
MODEL 8
REMARK VINA RESULT:      -6.2      2.645      3.732
REMARK  Name = 
REMARK  5 active torsions:
REMARK  status: ('A' for Active; 'I' for Inactive)
REMARK    1  A    between atoms: C_1  and  C_2
REMARK    2  A    between atoms: C_4  and  O_5
REMARK    3  A    between atoms: N_10  and  C_11
REMARK    4  A    between atoms: C_11  and  C_12
REMARK    5  A    between atoms: C_11  and  C_19
REMARK                            x       y       z     vdW  Elec       q    Type
REMARK                         _______ _______ _______ _____ _____    ______ ____
ROOT
ATOM      1  C   UNL     1       2.792   2.370  21.506  0.00  0.00    +0.000 C 
ATOM      2  C   UNL     1       1.342   2.588  21.062  0.00  0.00    +0.000 C 
ATOM      3  C   UNL     1       0.915   1.662  19.906  0.00  0.00    +0.000 C 
ATOM      4  C   UNL     1       1.376   2.124  18.518  0.00  0.00    +0.000 C 
ATOM      5  C   UNL     1       1.106   3.618  18.292  0.00  0.00    +0.000 C 
ATOM      6  N   UNL     1       1.645   4.410  19.405  0.00  0.00    +0.000 N 
ATOM      7  C   UNL     1       2.494   5.503  19.330  0.00  0.00    +0.000 C 
ATOM      8  O   UNL     1       2.839   6.134  20.325  0.00  0.00    +0.000 OA
ATOM      9  N   UNL     1       2.918   5.852  18.080  0.00  0.00    +0.000 N 
ATOM     10  C   UNL     1       1.085   4.060  20.713  0.00  0.00    +0.000 C 
ATOM     11  H   UNL     1       2.885   5.172  17.346  0.00  0.00    +0.000 HD
ENDROOT
BRANCH   4  12
ATOM     12  O   UNL     1       2.766   1.851  18.334  0.00  0.00    +0.000 OA
ATOM     13  H   UNL     1       3.233   2.191  19.118  0.00  0.00    +0.000 HD
ENDBRANCH   4  12
BRANCH   9  14
ATOM     14  C   UNL     1       3.871   6.933  17.897  0.00  0.00    +0.000 C 
BRANCH  14  15
ATOM     15  C   UNL     1       5.076   6.506  17.081  0.00  0.00    +0.000 A 
ATOM     16  C   UNL     1       6.315   7.101  17.316  0.00  0.00    +0.000 A 
ATOM     17  N   UNL     1       7.445   6.818  16.623  0.00  0.00    +0.000 NA
ATOM     18  C   UNL     1       7.342   5.885  15.649  0.00  0.00    +0.000 A 
ATOM     19  C   UNL     1       6.161   5.238  15.331  0.00  0.00    +0.000 A 
ATOM     20 BR   UNL     1       6.102   3.947  13.959  0.00  0.00    +0.000 Br
ATOM     21  C   UNL     1       5.012   5.560  16.047  0.00  0.00    +0.000 A 
ENDBRANCH  14  15
BRANCH  14  22
ATOM     22  C   UNL     1       3.179   8.085  17.199  0.00  0.00    +0.000 C 
ATOM     23  C   UNL     1       1.733   8.427  17.480  0.00  0.00    +0.000 C 
ATOM     24  C   UNL     1       2.823   9.328  17.984  0.00  0.00    +0.000 C 
ENDBRANCH  14  22
ENDBRANCH   9  14
TORSDOF 4
ENDMDL
MODEL 9
REMARK VINA RESULT:      -6.0      2.151      3.969
REMARK  Name = 
REMARK  5 active torsions:
REMARK  status: ('A' for Active; 'I' for Inactive)
REMARK    1  A    between atoms: C_1  and  C_2
REMARK    2  A    between atoms: C_4  and  O_5
REMARK    3  A    between atoms: N_10  and  C_11
REMARK    4  A    between atoms: C_11  and  C_12
REMARK    5  A    between atoms: C_11  and  C_19
REMARK                            x       y       z     vdW  Elec       q    Type
REMARK                         _______ _______ _______ _____ _____    ______ ____
ROOT
ATOM      1  C   UNL     1       2.621   1.611  19.210  0.00  0.00    +0.000 C 
ATOM      2  C   UNL     1       2.196   2.900  19.919  0.00  0.00    +0.000 C 
ATOM      3  C   UNL     1       1.035   3.628  19.212  0.00  0.00    +0.000 C 
ATOM      4  C   UNL     1       1.456   4.469  18.001  0.00  0.00    +0.000 C 
ATOM      5  C   UNL     1       2.683   5.340  18.307  0.00  0.00    +0.000 C 
ATOM      6  N   UNL     1       3.760   4.524  18.881  0.00  0.00    +0.000 N 
ATOM      7  C   UNL     1       5.078   4.447  18.459  0.00  0.00    +0.000 C 
ATOM      8  O   UNL     1       5.917   3.774  19.051  0.00  0.00    +0.000 OA
ATOM      9  N   UNL     1       5.399   5.175  17.350  0.00  0.00    +0.000 N 
ATOM     10  C   UNL     1       3.391   3.840  20.124  0.00  0.00    +0.000 C 
ATOM     11  H   UNL     1       4.671   5.455  16.722  0.00  0.00    +0.000 HD
ENDROOT
BRANCH   4  12
ATOM     12  O   UNL     1       1.726   3.632  16.877  0.00  0.00    +0.000 OA
ATOM     13  H   UNL     1       1.126   2.868  16.935  0.00  0.00    +0.000 HD
ENDBRANCH   4  12
BRANCH   9  14
ATOM     14  C   UNL     1       6.732   5.104  16.778  0.00  0.00    +0.000 C 
BRANCH  14  15
ATOM     15  C   UNL     1       6.708   4.762  15.301  0.00  0.00    +0.000 A 
ATOM     16  C   UNL     1       5.997   3.646  14.861  0.00  0.00    +0.000 A 
ATOM     17  N   UNL     1       5.939   3.232  13.572  0.00  0.00    +0.000 NA
ATOM     18  C   UNL     1       6.615   3.975  12.666  0.00  0.00    +0.000 A 
ATOM     19  C   UNL     1       7.355   5.098  12.995  0.00  0.00    +0.000 A 
ATOM     20 BR   UNL     1       8.268   6.080  11.671  0.00  0.00    +0.000 Br
ATOM     21  C   UNL     1       7.412   5.489  14.329  0.00  0.00    +0.000 A 
ENDBRANCH  14  15
BRANCH  14  22
ATOM     22  C   UNL     1       7.421   6.438  16.970  0.00  0.00    +0.000 C 
ATOM     23  C   UNL     1       6.740   7.586  17.681  0.00  0.00    +0.000 C 
ATOM     24  C   UNL     1       7.866   6.856  18.354  0.00  0.00    +0.000 C 
ENDBRANCH  14  22
ENDBRANCH   9  14
TORSDOF 4
ENDMDL
