MODEL 1
REMARK VINA RESULT:      -9.7      0.000      0.000
REMARK  Name = 
REMARK  5 active torsions:
REMARK  status: ('A' for Active; 'I' for Inactive)
REMARK    1  A    between atoms: C_2  and  O_3
REMARK    2  A    between atoms: C_2  and  C_4
REMARK    3  A    between atoms: C_9  and  O_10
REMARK    4  A    between atoms: C_15  and  C_16
REMARK    5  A    between atoms: C_20  and  C_21
REMARK                            x       y       z     vdW  Elec       q    Type
REMARK                         _______ _______ _______ _____ _____    ______ ____
ROOT
ATOM      1  C   UNL     1       3.496   3.405  19.650  0.00  0.00    +0.000 A 
ATOM      2  C   UNL     1       3.711   4.429  18.720  0.00  0.00    +0.000 A 
ATOM      3  C   UNL     1       3.148   5.695  18.915  0.00  0.00    +0.000 A 
ATOM      4  C   UNL     1       2.352   5.936  20.062  0.00  0.00    +0.000 A 
ATOM      5  C   UNL     1       2.137   4.918  20.994  0.00  0.00    +0.000 A 
ATOM      6  C   UNL     1       2.716   3.663  20.788  0.00  0.00    +0.000 A 
ATOM      7  C   UNL     1       1.768   7.267  20.181  0.00  0.00    +0.000 A 
ATOM      8  N   UNL     1       1.151   7.839  21.260  0.00  0.00    +0.000 N 
ATOM      9  C   UNL     1       0.761   9.125  20.958  0.00  0.00    +0.000 A 
ATOM     10  C   UNL     1       0.098  10.079  21.750  0.00  0.00    +0.000 A 
ATOM     11  C   UNL     1      -0.165  11.354  21.207  0.00  0.00    +0.000 A 
ATOM     12  C   UNL     1       0.237  11.609  19.884  0.00  0.00    +0.000 A 
ATOM     13  C   UNL     1       0.878  10.643  19.093  0.00  0.00    +0.000 A 
ATOM     14  C   UNL     1       1.148   9.380  19.643  0.00  0.00    +0.000 A 
ATOM     15  C   UNL     1       1.771   8.202  19.161  0.00  0.00    +0.000 A 
ATOM     16  C   UNL     1       2.347   7.880  17.825  0.00  0.00    +0.000 C 
ATOM     17  C   UNL     1       3.472   6.833  17.955  0.00  0.00    +0.000 C 
ATOM     18  H   UNL     1       1.014   7.402  22.160  0.00  0.00    +0.000 HD
ENDROOT
BRANCH  11  19
ATOM     19  C   UNL     1      -0.830  12.405  22.013  0.00  0.00    +0.000 A 
ATOM     20  C   UNL     1      -0.188  13.621  22.308  0.00  0.00    +0.000 A 
ATOM     21  C   UNL     1      -0.789  14.590  23.113  0.00  0.00    +0.000 A 
ATOM     22  C   UNL     1      -2.062  14.377  23.633  0.00  0.00    +0.000 A 
ATOM     23  C   UNL     1      -2.744  13.188  23.351  0.00  0.00    +0.000 A 
ATOM     24  C   UNL     1      -2.120  12.219  22.543  0.00  0.00    +0.000 A 
BRANCH  23  25
ATOM     25  C   UNL     1      -4.121  12.922  23.906  0.00  0.00    +0.000 C 
ATOM     26  F   UNL     1      -4.167  11.881  24.783  0.00  0.00    +0.000 F 
ATOM     27  F   UNL     1      -4.626  13.996  24.575  0.00  0.00    +0.000 F 
ATOM     28  F   UNL     1      -5.027  12.631  22.932  0.00  0.00    +0.000 F 
ENDBRANCH  23  25
ENDBRANCH  11  19
BRANCH   1  30
ATOM     29  O   UNL     1       3.708   1.352  18.467  0.00  0.00    +0.000 OA
ATOM     30  C   UNL     1       4.108   2.081  19.361  0.00  0.00    +0.000 C 
BRANCH  30  31
ATOM     31  O   UNL     1       5.184   1.784  20.121  0.00  0.00    +0.000 OA
ATOM     32  H   UNL     1       5.507   0.871  19.961  0.00  0.00    +0.000 HD
ENDBRANCH  30  31
ENDBRANCH   1  30
BRANCH   6  33
ATOM     33  O   UNL     1       2.530   2.675  21.720  0.00  0.00    +0.000 OA
ATOM     34  H   UNL     1       3.234   2.007  21.612  0.00  0.00    +0.000 HD
ENDBRANCH   6  33
TORSDOF 5
ENDMDL
MODEL 2
REMARK VINA RESULT:      -9.5      0.812      1.112
REMARK  Name = 
REMARK  5 active torsions:
REMARK  status: ('A' for Active; 'I' for Inactive)
REMARK    1  A    between atoms: C_2  and  O_3
REMARK    2  A    between atoms: C_2  and  C_4
REMARK    3  A    between atoms: C_9  and  O_10
REMARK    4  A    between atoms: C_15  and  C_16
REMARK    5  A    between atoms: C_20  and  C_21
REMARK                            x       y       z     vdW  Elec       q    Type
REMARK                         _______ _______ _______ _____ _____    ______ ____
ROOT
ATOM      1  C   UNL     1       3.444   4.187  19.236  0.00  0.00    +0.000 A 
ATOM      2  C   UNL     1       3.583   5.308  18.407  0.00  0.00    +0.000 A 
ATOM      3  C   UNL     1       2.938   6.509  18.725  0.00  0.00    +0.000 A 
ATOM      4  C   UNL     1       2.137   6.585  19.892  0.00  0.00    +0.000 A 
ATOM      5  C   UNL     1       1.999   5.470  20.721  0.00  0.00    +0.000 A 
ATOM      6  C   UNL     1       2.658   4.282  20.394  0.00  0.00    +0.000 A 
ATOM      7  C   UNL     1       1.467   7.856  20.139  0.00  0.00    +0.000 A 
ATOM      8  N   UNL     1       0.823   8.279  21.270  0.00  0.00    +0.000 N 
ATOM      9  C   UNL     1       0.345   9.559  21.093  0.00  0.00    +0.000 A 
ATOM     10  C   UNL     1      -0.373  10.386  21.975  0.00  0.00    +0.000 A 
ATOM     11  C   UNL     1      -0.726  11.686  21.557  0.00  0.00    +0.000 A 
ATOM     12  C   UNL     1      -0.353  12.093  20.265  0.00  0.00    +0.000 A 
ATOM     13  C   UNL     1       0.344  11.253  19.383  0.00  0.00    +0.000 A 
ATOM     14  C   UNL     1       0.703   9.964  19.808  0.00  0.00    +0.000 A 
ATOM     15  C   UNL     1       1.399   8.882  19.214  0.00  0.00    +0.000 A 
ATOM     16  C   UNL     1       1.983   8.730  17.851  0.00  0.00    +0.000 C 
ATOM     17  C   UNL     1       3.177   7.753  17.878  0.00  0.00    +0.000 C 
ATOM     18  H   UNL     1       0.723   7.750  22.123  0.00  0.00    +0.000 HD
ENDROOT
BRANCH  11  19
ATOM     19  C   UNL     1      -1.452  12.609  22.463  0.00  0.00    +0.000 A 
ATOM     20  C   UNL     1      -0.800  13.681  23.096  0.00  0.00    +0.000 A 
ATOM     21  C   UNL     1      -1.468  14.518  23.992  0.00  0.00    +0.000 A 
ATOM     22  C   UNL     1      -2.817  14.316  24.266  0.00  0.00    +0.000 A 
ATOM     23  C   UNL     1      -3.509  13.269  23.645  0.00  0.00    +0.000 A 
ATOM     24  C   UNL     1      -2.818  12.432  22.750  0.00  0.00    +0.000 A 
BRANCH  23  25
ATOM     25  C   UNL     1      -4.968  13.017  23.927  0.00  0.00    +0.000 C 
ATOM     26  F   UNL     1      -5.670  14.142  24.238  0.00  0.00    +0.000 F 
ATOM     27  F   UNL     1      -5.613  12.457  22.864  0.00  0.00    +0.000 F 
ATOM     28  F   UNL     1      -5.157  12.159  24.968  0.00  0.00    +0.000 F 
ENDBRANCH  23  25
ENDBRANCH  11  19
BRANCH   1  30
ATOM     29  O   UNL     1       3.852   2.335  17.800  0.00  0.00    +0.000 OA
ATOM     30  C   UNL     1       4.140   2.941  18.819  0.00  0.00    +0.000 C 
BRANCH  30  31
ATOM     31  O   UNL     1       5.163   2.577  19.622  0.00  0.00    +0.000 OA
ATOM     32  H   UNL     1       5.659   1.811  19.261  0.00  0.00    +0.000 HD
ENDBRANCH  30  31
ENDBRANCH   1  30
BRANCH   6  33
ATOM     33  O   UNL     1       2.547   3.199  21.228  0.00  0.00    +0.000 OA
ATOM     34  H   UNL     1       3.396   3.075  21.694  0.00  0.00    +0.000 HD
ENDBRANCH   6  33
TORSDOF 5
ENDMDL
MODEL 3
REMARK VINA RESULT:      -9.3      1.820      2.385
REMARK  Name = 
REMARK  5 active torsions:
REMARK  status: ('A' for Active; 'I' for Inactive)
REMARK    1  A    between atoms: C_2  and  O_3
REMARK    2  A    between atoms: C_2  and  C_4
REMARK    3  A    between atoms: C_9  and  O_10
REMARK    4  A    between atoms: C_15  and  C_16
REMARK    5  A    between atoms: C_20  and  C_21
REMARK                            x       y       z     vdW  Elec       q    Type
REMARK                         _______ _______ _______ _____ _____    ______ ____
ROOT
ATOM      1  C   UNL     1       3.507   4.663  18.982  0.00  0.00    +0.000 A 
ATOM      2  C   UNL     1       3.512   5.826  18.203  0.00  0.00    +0.000 A 
ATOM      3  C   UNL     1       2.806   6.961  18.619  0.00  0.00    +0.000 A 
ATOM      4  C   UNL     1       2.081   6.926  19.836  0.00  0.00    +0.000 A 
ATOM      5  C   UNL     1       2.076   5.769  20.617  0.00  0.00    +0.000 A 
ATOM      6  C   UNL     1       2.795   4.648  20.191  0.00  0.00    +0.000 A 
ATOM      7  C   UNL     1       1.341   8.133  20.187  0.00  0.00    +0.000 A 
ATOM      8  N   UNL     1       0.745   8.456  21.376  0.00  0.00    +0.000 N 
ATOM      9  C   UNL     1       0.168   9.705  21.292  0.00  0.00    +0.000 A 
ATOM     10  C   UNL     1      -0.547  10.436  22.257  0.00  0.00    +0.000 A 
ATOM     11  C   UNL     1      -1.017  11.725  21.927  0.00  0.00    +0.000 A 
ATOM     12  C   UNL     1      -0.760  12.215  20.635  0.00  0.00    +0.000 A 
ATOM     13  C   UNL     1      -0.065  11.469  19.671  0.00  0.00    +0.000 A 
ATOM     14  C   UNL     1       0.411  10.192  20.009  0.00  0.00    +0.000 A 
ATOM     15  C   UNL     1       1.140   9.191  19.320  0.00  0.00    +0.000 A 
ATOM     16  C   UNL     1       1.643   9.143  17.917  0.00  0.00    +0.000 C 
ATOM     17  C   UNL     1       2.901   8.256  17.821  0.00  0.00    +0.000 C 
ATOM     18  H   UNL     1       0.740   7.884  22.207  0.00  0.00    +0.000 HD
ENDROOT
BRANCH  11  19
ATOM     19  C   UNL     1      -1.744  12.550  22.920  0.00  0.00    +0.000 A 
ATOM     20  C   UNL     1      -3.047  12.223  23.335  0.00  0.00    +0.000 A 
ATOM     21  C   UNL     1      -3.756  13.029  24.228  0.00  0.00    +0.000 A 
ATOM     22  C   UNL     1      -3.171  14.180  24.748  0.00  0.00    +0.000 A 
ATOM     23  C   UNL     1      -1.869  14.534  24.375  0.00  0.00    +0.000 A 
ATOM     24  C   UNL     1      -1.172  13.714  23.469  0.00  0.00    +0.000 A 
BRANCH  23  25
ATOM     25  C   UNL     1      -1.210  15.779  24.913  0.00  0.00    +0.000 C 
ATOM     26  F   UNL     1      -0.135  16.190  24.183  0.00  0.00    +0.000 F 
ATOM     27  F   UNL     1      -2.062  16.841  24.952  0.00  0.00    +0.000 F 
ATOM     28  F   UNL     1      -0.757  15.619  26.187  0.00  0.00    +0.000 F 
ENDBRANCH  23  25
ENDBRANCH  11  19
BRANCH   1  30
ATOM     29  O   UNL     1       4.070   3.027  17.349  0.00  0.00    +0.000 OA
ATOM     30  C   UNL     1       4.260   3.491  18.462  0.00  0.00    +0.000 C 
BRANCH  30  31
ATOM     31  O   UNL     1       5.218   3.027  19.294  0.00  0.00    +0.000 OA
ATOM     32  H   UNL     1       5.611   3.745  19.837  0.00  0.00    +0.000 HD
ENDBRANCH  30  31
ENDBRANCH   1  30
BRANCH   6  33
ATOM     33  O   UNL     1       2.815   3.523  20.976  0.00  0.00    +0.000 OA
ATOM     34  H   UNL     1       2.913   2.742  20.399  0.00  0.00    +0.000 HD
ENDBRANCH   6  33
TORSDOF 5
ENDMDL
MODEL 4
REMARK VINA RESULT:      -9.2      2.016      2.951
REMARK  Name = 
REMARK  5 active torsions:
REMARK  status: ('A' for Active; 'I' for Inactive)
REMARK    1  A    between atoms: C_2  and  O_3
REMARK    2  A    between atoms: C_2  and  C_4
REMARK    3  A    between atoms: C_9  and  O_10
REMARK    4  A    between atoms: C_15  and  C_16
REMARK    5  A    between atoms: C_20  and  C_21
REMARK                            x       y       z     vdW  Elec       q    Type
REMARK                         _______ _______ _______ _____ _____    ______ ____
ROOT
ATOM      1  C   UNL     1       4.497   5.182  16.645  0.00  0.00    +0.000 A 
ATOM      2  C   UNL     1       3.678   4.607  17.625  0.00  0.00    +0.000 A 
ATOM      3  C   UNL     1       2.917   5.416  18.477  0.00  0.00    +0.000 A 
ATOM      4  C   UNL     1       2.981   6.826  18.344  0.00  0.00    +0.000 A 
ATOM      5  C   UNL     1       3.795   7.402  17.367  0.00  0.00    +0.000 A 
ATOM      6  C   UNL     1       4.541   6.579  16.519  0.00  0.00    +0.000 A 
ATOM      7  C   UNL     1       2.189   7.604  19.289  0.00  0.00    +0.000 A 
ATOM      8  N   UNL     1       1.894   8.940  19.262  0.00  0.00    +0.000 N 
ATOM      9  C   UNL     1       1.096   9.271  20.336  0.00  0.00    +0.000 A 
ATOM     10  C   UNL     1       0.556  10.514  20.711  0.00  0.00    +0.000 A 
ATOM     11  C   UNL     1      -0.266  10.583  21.856  0.00  0.00    +0.000 A 
ATOM     12  C   UNL     1      -0.495   9.402  22.582  0.00  0.00    +0.000 A 
ATOM     13  C   UNL     1       0.066   8.170  22.213  0.00  0.00    +0.000 A 
ATOM     14  C   UNL     1       0.873   8.105  21.066  0.00  0.00    +0.000 A 
ATOM     15  C   UNL     1       1.574   7.065  20.405  0.00  0.00    +0.000 A 
ATOM     16  C   UNL     1       1.725   5.622  20.744  0.00  0.00    +0.000 C 
ATOM     17  C   UNL     1       1.949   4.783  19.469  0.00  0.00    +0.000 C 
ATOM     18  H   UNL     1       2.191   9.595  18.554  0.00  0.00    +0.000 HD
ENDROOT
BRANCH  11  19
ATOM     19  C   UNL     1      -0.888  11.862  22.273  0.00  0.00    +0.000 A 
ATOM     20  C   UNL     1      -0.236  13.093  22.084  0.00  0.00    +0.000 A 
ATOM     21  C   UNL     1      -0.795  14.294  22.525  0.00  0.00    +0.000 A 
ATOM     22  C   UNL     1      -2.037  14.298  23.155  0.00  0.00    +0.000 A 
ATOM     23  C   UNL     1      -2.728  13.097  23.349  0.00  0.00    +0.000 A 
ATOM     24  C   UNL     1      -2.146  11.896  22.903  0.00  0.00    +0.000 A 
BRANCH  23  25
ATOM     25  C   UNL     1      -4.070  13.066  24.035  0.00  0.00    +0.000 C 
ATOM     26  F   UNL     1      -4.187  12.081  24.968  0.00  0.00    +0.000 F 
ATOM     27  F   UNL     1      -4.346  14.231  24.686  0.00  0.00    +0.000 F 
ATOM     28  F   UNL     1      -5.098  12.877  23.161  0.00  0.00    +0.000 F 
ENDBRANCH  23  25
ENDBRANCH  11  19
BRANCH   1  30
ATOM     29  O   UNL     1       5.476   4.451  14.604  0.00  0.00    +0.000 OA
ATOM     30  C   UNL     1       5.294   4.258  15.795  0.00  0.00    +0.000 C 
BRANCH  30  31
ATOM     31  O   UNL     1       5.858   3.229  16.464  0.00  0.00    +0.000 OA
ATOM     32  H   UNL     1       5.665   2.365  16.039  0.00  0.00    +0.000 HD
ENDBRANCH  30  31
ENDBRANCH   1  30
BRANCH   6  33
ATOM     33  O   UNL     1       5.313   7.147  15.538  0.00  0.00    +0.000 OA
ATOM     34  H   UNL     1       5.936   6.474  15.202  0.00  0.00    +0.000 HD
ENDBRANCH   6  33
TORSDOF 5
ENDMDL
MODEL 5
REMARK VINA RESULT:      -9.1      1.072      1.271
REMARK  Name = 
REMARK  5 active torsions:
REMARK  status: ('A' for Active; 'I' for Inactive)
REMARK    1  A    between atoms: C_2  and  O_3
REMARK    2  A    between atoms: C_2  and  C_4
REMARK    3  A    between atoms: C_9  and  O_10
REMARK    4  A    between atoms: C_15  and  C_16
REMARK    5  A    between atoms: C_20  and  C_21
REMARK                            x       y       z     vdW  Elec       q    Type
REMARK                         _______ _______ _______ _____ _____    ______ ____
ROOT
ATOM      1  C   UNL     1       3.922   3.250  20.155  0.00  0.00    +0.000 A 
ATOM      2  C   UNL     1       4.313   4.176  19.180  0.00  0.00    +0.000 A 
ATOM      3  C   UNL     1       3.706   5.435  19.114  0.00  0.00    +0.000 A 
ATOM      4  C   UNL     1       2.686   5.769  20.040  0.00  0.00    +0.000 A 
ATOM      5  C   UNL     1       2.295   4.848  21.015  0.00  0.00    +0.000 A 
ATOM      6  C   UNL     1       2.920   3.600  21.072  0.00  0.00    +0.000 A 
ATOM      7  C   UNL     1       2.074   7.083  19.888  0.00  0.00    +0.000 A 
ATOM      8  N   UNL     1       1.239   7.744  20.747  0.00  0.00    +0.000 N 
ATOM      9  C   UNL     1       0.904   8.977  20.230  0.00  0.00    +0.000 A 
ATOM     10  C   UNL     1       0.079   9.985  20.759  0.00  0.00    +0.000 A 
ATOM     11  C   UNL     1      -0.081  11.185  20.035  0.00  0.00    +0.000 A 
ATOM     12  C   UNL     1       0.583  11.312  18.803  0.00  0.00    +0.000 A 
ATOM     13  C   UNL     1       1.387  10.291  18.272  0.00  0.00    +0.000 A 
ATOM     14  C   UNL     1       1.553   9.104  19.003  0.00  0.00    +0.000 A 
ATOM     15  C   UNL     1       2.276   7.904  18.792  0.00  0.00    +0.000 A 
ATOM     16  C   UNL     1       3.121   7.463  17.647  0.00  0.00    +0.000 C 
ATOM     17  C   UNL     1       4.208   6.476  18.120  0.00  0.00    +0.000 C 
ATOM     18  H   UNL     1       0.924   7.401  21.643  0.00  0.00    +0.000 HD
ENDROOT
BRANCH  11  19
ATOM     19  C   UNL     1      -0.912  12.292  20.566  0.00  0.00    +0.000 A 
ATOM     20  C   UNL     1      -0.889  13.572  19.985  0.00  0.00    +0.000 A 
ATOM     21  C   UNL     1      -1.627  14.631  20.516  0.00  0.00    +0.000 A 
ATOM     22  C   UNL     1      -2.427  14.434  21.638  0.00  0.00    +0.000 A 
ATOM     23  C   UNL     1      -2.492  13.171  22.239  0.00  0.00    +0.000 A 
ATOM     24  C   UNL     1      -1.736  12.117  21.693  0.00  0.00    +0.000 A 
BRANCH  23  25
ATOM     25  C   UNL     1      -3.341  12.926  23.460  0.00  0.00    +0.000 C 
ATOM     26  F   UNL     1      -3.236  11.662  23.957  0.00  0.00    +0.000 F 
ATOM     27  F   UNL     1      -3.020  13.759  24.490  0.00  0.00    +0.000 F 
ATOM     28  F   UNL     1      -4.666  13.125  23.221  0.00  0.00    +0.000 F 
ENDBRANCH  23  25
ENDBRANCH  11  19
BRANCH   1  30
ATOM     29  O   UNL     1       5.243   1.508  21.093  0.00  0.00    +0.000 OA
ATOM     30  C   UNL     1       4.597   1.925  20.146  0.00  0.00    +0.000 C 
BRANCH  30  31
ATOM     31  O   UNL     1       4.377   1.193  19.032  0.00  0.00    +0.000 OA
ATOM     32  H   UNL     1       3.830   0.399  19.216  0.00  0.00    +0.000 HD
ENDBRANCH  30  31
ENDBRANCH   1  30
BRANCH   6  33
ATOM     33  O   UNL     1       2.557   2.710  22.051  0.00  0.00    +0.000 OA
ATOM     34  H   UNL     1       1.622   2.867  22.285  0.00  0.00    +0.000 HD
ENDBRANCH   6  33
TORSDOF 5
ENDMDL
MODEL 6
REMARK VINA RESULT:      -9.0      0.681      1.064
REMARK  Name = 
REMARK  5 active torsions:
REMARK  status: ('A' for Active; 'I' for Inactive)
REMARK    1  A    between atoms: C_2  and  O_3
REMARK    2  A    between atoms: C_2  and  C_4
REMARK    3  A    between atoms: C_9  and  O_10
REMARK    4  A    between atoms: C_15  and  C_16
REMARK    5  A    between atoms: C_20  and  C_21
REMARK                            x       y       z     vdW  Elec       q    Type
REMARK                         _______ _______ _______ _____ _____    ______ ____
ROOT
ATOM      1  C   UNL     1       3.728   3.359  19.867  0.00  0.00    +0.000 A 
ATOM      2  C   UNL     1       3.960   4.353  18.908  0.00  0.00    +0.000 A 
ATOM      3  C   UNL     1       3.347   5.606  19.024  0.00  0.00    +0.000 A 
ATOM      4  C   UNL     1       2.484   5.864  20.118  0.00  0.00    +0.000 A 
ATOM      5  C   UNL     1       2.252   4.875  21.076  0.00  0.00    +0.000 A 
ATOM      6  C   UNL     1       2.880   3.633  20.951  0.00  0.00    +0.000 A 
ATOM      7  C   UNL     1       1.853   7.178  20.153  0.00  0.00    +0.000 A 
ATOM      8  N   UNL     1       1.161   7.769  21.175  0.00  0.00    +0.000 N 
ATOM      9  C   UNL     1       0.747   9.029  20.801  0.00  0.00    +0.000 A 
ATOM     10  C   UNL     1       0.012   9.989  21.519  0.00  0.00    +0.000 A 
ATOM     11  C   UNL     1      -0.262  11.232  20.913  0.00  0.00    +0.000 A 
ATOM     12  C   UNL     1       0.202  11.450  19.604  0.00  0.00    +0.000 A 
ATOM     13  C   UNL     1       0.914  10.478  18.887  0.00  0.00    +0.000 A 
ATOM     14  C   UNL     1       1.195   9.246  19.500  0.00  0.00    +0.000 A 
ATOM     15  C   UNL     1       1.880   8.072  19.098  0.00  0.00    +0.000 A 
ATOM     16  C   UNL     1       2.536   7.720  17.807  0.00  0.00    +0.000 C 
ATOM     17  C   UNL     1       3.685   6.717  18.037  0.00  0.00    +0.000 C 
ATOM     18  H   UNL     1       0.991   7.362  22.083  0.00  0.00    +0.000 HD
ENDROOT
BRANCH  11  19
ATOM     19  C   UNL     1      -1.001  12.291  21.642  0.00  0.00    +0.000 A 
ATOM     20  C   UNL     1      -0.330  13.277  22.386  0.00  0.00    +0.000 A 
ATOM     21  C   UNL     1      -1.025  14.242  23.117  0.00  0.00    +0.000 A 
ATOM     22  C   UNL     1      -2.417  14.258  23.110  0.00  0.00    +0.000 A 
ATOM     23  C   UNL     1      -3.125  13.305  22.369  0.00  0.00    +0.000 A 
ATOM     24  C   UNL     1      -2.408  12.336  21.643  0.00  0.00    +0.000 A 
BRANCH  23  25
ATOM     25  C   UNL     1      -4.632  13.289  22.348  0.00  0.00    +0.000 C 
ATOM     26  F   UNL     1      -5.160  12.295  21.581  0.00  0.00    +0.000 F 
ATOM     27  F   UNL     1      -5.167  13.125  23.591  0.00  0.00    +0.000 F 
ATOM     28  F   UNL     1      -5.158  14.450  21.869  0.00  0.00    +0.000 F 
ENDBRANCH  23  25
ENDBRANCH  11  19
BRANCH   1  30
ATOM     29  O   UNL     1       5.185   1.576  20.466  0.00  0.00    +0.000 OA
ATOM     30  C   UNL     1       4.396   2.046  19.662  0.00  0.00    +0.000 C 
BRANCH  30  31
ATOM     31  O   UNL     1       4.004   1.387  18.551  0.00  0.00    +0.000 OA
ATOM     32  H   UNL     1       3.041   1.487  18.384  0.00  0.00    +0.000 HD
ENDBRANCH  30  31
ENDBRANCH   1  30
BRANCH   6  33
ATOM     33  O   UNL     1       2.677   2.676  21.911  0.00  0.00    +0.000 OA
ATOM     34  H   UNL     1       3.546   2.361  22.228  0.00  0.00    +0.000 HD
ENDBRANCH   6  33
TORSDOF 5
ENDMDL
MODEL 7
REMARK VINA RESULT:      -9.0      1.800      2.278
REMARK  Name = 
REMARK  5 active torsions:
REMARK  status: ('A' for Active; 'I' for Inactive)
REMARK    1  A    between atoms: C_2  and  O_3
REMARK    2  A    between atoms: C_2  and  C_4
REMARK    3  A    between atoms: C_9  and  O_10
REMARK    4  A    between atoms: C_15  and  C_16
REMARK    5  A    between atoms: C_20  and  C_21
REMARK                            x       y       z     vdW  Elec       q    Type
REMARK                         _______ _______ _______ _____ _____    ______ ____
ROOT
ATOM      1  C   UNL     1       3.501   3.306  19.657  0.00  0.00    +0.000 A 
ATOM      2  C   UNL     1       3.715   4.341  18.738  0.00  0.00    +0.000 A 
ATOM      3  C   UNL     1       3.162   5.609  18.957  0.00  0.00    +0.000 A 
ATOM      4  C   UNL     1       2.378   5.839  20.115  0.00  0.00    +0.000 A 
ATOM      5  C   UNL     1       2.164   4.809  21.034  0.00  0.00    +0.000 A 
ATOM      6  C   UNL     1       2.733   3.553  20.805  0.00  0.00    +0.000 A 
ATOM      7  C   UNL     1       1.804   7.172  20.258  0.00  0.00    +0.000 A 
ATOM      8  N   UNL     1       1.201   7.732  21.351  0.00  0.00    +0.000 N 
ATOM      9  C   UNL     1       0.817   9.025  21.070  0.00  0.00    +0.000 A 
ATOM     10  C   UNL     1       0.167   9.972  21.881  0.00  0.00    +0.000 A 
ATOM     11  C   UNL     1      -0.092  11.256  21.359  0.00  0.00    +0.000 A 
ATOM     12  C   UNL     1       0.300  11.527  20.036  0.00  0.00    +0.000 A 
ATOM     13  C   UNL     1       0.927  10.569  19.226  0.00  0.00    +0.000 A 
ATOM     14  C   UNL     1       1.194   9.296  19.755  0.00  0.00    +0.000 A 
ATOM     15  C   UNL     1       1.804   8.121  19.251  0.00  0.00    +0.000 A 
ATOM     16  C   UNL     1       2.366   7.814  17.905  0.00  0.00    +0.000 C 
ATOM     17  C   UNL     1       3.485   6.758  18.010  0.00  0.00    +0.000 C 
ATOM     18  H   UNL     1       1.070   7.284  22.245  0.00  0.00    +0.000 HD
ENDROOT
BRANCH  11  19
ATOM     19  C   UNL     1      -0.742  12.301  22.186  0.00  0.00    +0.000 A 
ATOM     20  C   UNL     1      -1.896  12.028  22.941  0.00  0.00    +0.000 A 
ATOM     21  C   UNL     1      -2.542  13.023  23.677  0.00  0.00    +0.000 A 
ATOM     22  C   UNL     1      -2.038  14.320  23.693  0.00  0.00    +0.000 A 
ATOM     23  C   UNL     1      -0.881  14.632  22.969  0.00  0.00    +0.000 A 
ATOM     24  C   UNL     1      -0.247  13.618  22.228  0.00  0.00    +0.000 A 
BRANCH  23  25
ATOM     25  C   UNL     1      -0.315  16.029  22.958  0.00  0.00    +0.000 C 
ATOM     26  F   UNL     1      -0.672  16.774  24.041  0.00  0.00    +0.000 F 
ATOM     27  F   UNL     1       1.048  16.035  22.934  0.00  0.00    +0.000 F 
ATOM     28  F   UNL     1      -0.708  16.742  21.867  0.00  0.00    +0.000 F 
ENDBRANCH  23  25
ENDBRANCH  11  19
BRANCH   1  30
ATOM     29  O   UNL     1       3.697   1.274  18.435  0.00  0.00    +0.000 OA
ATOM     30  C   UNL     1       4.101   1.982  19.343  0.00  0.00    +0.000 C 
BRANCH  30  31
ATOM     31  O   UNL     1       5.173   1.661  20.099  0.00  0.00    +0.000 OA
ATOM     32  H   UNL     1       5.672   0.902  19.726  0.00  0.00    +0.000 HD
ENDBRANCH  30  31
ENDBRANCH   1  30
BRANCH   6  33
ATOM     33  O   UNL     1       2.549   2.553  21.725  0.00  0.00    +0.000 OA
ATOM     34  H   UNL     1       1.782   2.780  22.284  0.00  0.00    +0.000 HD
ENDBRANCH   6  33
TORSDOF 5
ENDMDL
MODEL 8
REMARK VINA RESULT:      -8.9      6.609     10.685
REMARK  Name = 
REMARK  5 active torsions:
REMARK  status: ('A' for Active; 'I' for Inactive)
REMARK    1  A    between atoms: C_2  and  O_3
REMARK    2  A    between atoms: C_2  and  C_4
REMARK    3  A    between atoms: C_9  and  O_10
REMARK    4  A    between atoms: C_15  and  C_16
REMARK    5  A    between atoms: C_20  and  C_21
REMARK                            x       y       z     vdW  Elec       q    Type
REMARK                         _______ _______ _______ _____ _____    ______ ____
ROOT
ATOM      1  C   UNL     1      -1.528  13.651  21.481  0.00  0.00    +0.000 A 
ATOM      2  C   UNL     1      -1.380  12.614  22.411  0.00  0.00    +0.000 A 
ATOM      3  C   UNL     1      -0.730  11.427  22.052  0.00  0.00    +0.000 A 
ATOM      4  C   UNL     1      -0.223  11.278  20.737  0.00  0.00    +0.000 A 
ATOM      5  C   UNL     1      -0.367  12.311  19.808  0.00  0.00    +0.000 A 
ATOM      6  C   UNL     1      -1.009  13.493  20.187  0.00  0.00    +0.000 A 
ATOM      7  C   UNL     1       0.409  10.002  20.424  0.00  0.00    +0.000 A 
ATOM      8  N   UNL     1       1.161   9.663  19.333  0.00  0.00    +0.000 N 
ATOM      9  C   UNL     1       1.589   8.358  19.437  0.00  0.00    +0.000 A 
ATOM     10  C   UNL     1       2.376   7.591  18.560  0.00  0.00    +0.000 A 
ATOM     11  C   UNL     1       2.703   6.266  18.917  0.00  0.00    +0.000 A 
ATOM     12  C   UNL     1       2.211   5.765  20.135  0.00  0.00    +0.000 A 
ATOM     13  C   UNL     1       1.408   6.530  20.994  0.00  0.00    +0.000 A 
ATOM     14  C   UNL     1       1.096   7.852  20.639  0.00  0.00    +0.000 A 
ATOM     15  C   UNL     1       0.346   8.891  21.246  0.00  0.00    +0.000 A 
ATOM     16  C   UNL     1      -0.432   8.917  22.517  0.00  0.00    +0.000 C 
ATOM     17  C   UNL     1      -0.480  10.346  23.096  0.00  0.00    +0.000 C 
ATOM     18  H   UNL     1       1.395  10.276  18.566  0.00  0.00    +0.000 HD
ENDROOT
BRANCH  11  19
ATOM     19  C   UNL     1       3.559   5.429  18.043  0.00  0.00    +0.000 A 
ATOM     20  C   UNL     1       3.078   4.243  17.461  0.00  0.00    +0.000 A 
ATOM     21  C   UNL     1       3.897   3.424  16.683  0.00  0.00    +0.000 A 
ATOM     22  C   UNL     1       5.223   3.779  16.450  0.00  0.00    +0.000 A 
ATOM     23  C   UNL     1       5.739   4.960  16.997  0.00  0.00    +0.000 A 
ATOM     24  C   UNL     1       4.900   5.770  17.784  0.00  0.00    +0.000 A 
BRANCH  23  25
ATOM     25  C   UNL     1       7.172   5.368  16.771  0.00  0.00    +0.000 C 
ATOM     26  F   UNL     1       7.415   6.684  17.026  0.00  0.00    +0.000 F 
ATOM     27  F   UNL     1       8.040   4.670  17.557  0.00  0.00    +0.000 F 
ATOM     28  F   UNL     1       7.579   5.155  15.489  0.00  0.00    +0.000 F 
ENDBRANCH  23  25
ENDBRANCH  11  19
BRANCH   1  30
ATOM     29  O   UNL     1      -3.288  14.823  22.570  0.00  0.00    +0.000 OA
ATOM     30  C   UNL     1      -2.251  14.871  21.930  0.00  0.00    +0.000 C 
BRANCH  30  31
ATOM     31  O   UNL     1      -1.627  16.031  21.632  0.00  0.00    +0.000 OA
ATOM     32  H   UNL     1      -2.035  16.480  20.860  0.00  0.00    +0.000 HD
ENDBRANCH  30  31
ENDBRANCH   1  30
BRANCH   6  33
ATOM     33  O   UNL     1      -1.120  14.519  19.283  0.00  0.00    +0.000 OA
ATOM     34  H   UNL     1      -1.082  15.367  19.767  0.00  0.00    +0.000 HD
ENDBRANCH   6  33
TORSDOF 5
ENDMDL
MODEL 9
REMARK VINA RESULT:      -8.8      2.159      3.173
REMARK  Name = 
REMARK  5 active torsions:
REMARK  status: ('A' for Active; 'I' for Inactive)
REMARK    1  A    between atoms: C_2  and  O_3
REMARK    2  A    between atoms: C_2  and  C_4
REMARK    3  A    between atoms: C_9  and  O_10
REMARK    4  A    between atoms: C_15  and  C_16
REMARK    5  A    between atoms: C_20  and  C_21
REMARK                            x       y       z     vdW  Elec       q    Type
REMARK                         _______ _______ _______ _____ _____    ______ ____
ROOT
ATOM      1  C   UNL     1       5.061   4.900  16.672  0.00  0.00    +0.000 A 
ATOM      2  C   UNL     1       4.315   4.389  17.742  0.00  0.00    +0.000 A 
ATOM      3  C   UNL     1       3.462   5.224  18.475  0.00  0.00    +0.000 A 
ATOM      4  C   UNL     1       3.359   6.594  18.129  0.00  0.00    +0.000 A 
ATOM      5  C   UNL     1       4.099   7.106  17.061  0.00  0.00    +0.000 A 
ATOM      6  C   UNL     1       4.938   6.257  16.335  0.00  0.00    +0.000 A 
ATOM      7  C   UNL     1       2.479   7.410  18.958  0.00  0.00    +0.000 A 
ATOM      8  N   UNL     1       2.028   8.682  18.734  0.00  0.00    +0.000 N 
ATOM      9  C   UNL     1       1.196   9.077  19.759  0.00  0.00    +0.000 A 
ATOM     10  C   UNL     1       0.511  10.290  19.950  0.00  0.00    +0.000 A 
ATOM     11  C   UNL     1      -0.313  10.437  21.085  0.00  0.00    +0.000 A 
ATOM     12  C   UNL     1      -0.401   9.362  21.986  0.00  0.00    +0.000 A 
ATOM     13  C   UNL     1       0.303   8.163  21.798  0.00  0.00    +0.000 A 
ATOM     14  C   UNL     1       1.112   8.018  20.661  0.00  0.00    +0.000 A 
ATOM     15  C   UNL     1       1.932   6.979  20.153  0.00  0.00    +0.000 A 
ATOM     16  C   UNL     1       2.253   5.632  20.705  0.00  0.00    +0.000 C 
ATOM     17  C   UNL     1       2.575   4.641  19.568  0.00  0.00    +0.000 C 
ATOM     18  H   UNL     1       2.246   9.251  17.930  0.00  0.00    +0.000 HD
ENDROOT
BRANCH  11  19
ATOM     19  C   UNL     1      -1.084  11.683  21.314  0.00  0.00    +0.000 A 
ATOM     20  C   UNL     1      -0.947  12.797  20.467  0.00  0.00    +0.000 A 
ATOM     21  C   UNL     1      -1.629  13.990  20.712  0.00  0.00    +0.000 A 
ATOM     22  C   UNL     1      -2.485  14.097  21.805  0.00  0.00    +0.000 A 
ATOM     23  C   UNL     1      -2.663  13.006  22.664  0.00  0.00    +0.000 A 
ATOM     24  C   UNL     1      -1.962  11.813  22.406  0.00  0.00    +0.000 A 
BRANCH  23  25
ATOM     25  C   UNL     1      -3.574  13.091  23.862  0.00  0.00    +0.000 C 
ATOM     26  F   UNL     1      -4.821  13.555  23.570  0.00  0.00    +0.000 F 
ATOM     27  F   UNL     1      -3.758  11.880  24.460  0.00  0.00    +0.000 F 
ATOM     28  F   UNL     1      -3.086  13.913  24.831  0.00  0.00    +0.000 F 
ENDBRANCH  23  25
ENDBRANCH  11  19
BRANCH   1  30
ATOM     29  O   UNL     1       7.003   4.314  15.430  0.00  0.00    +0.000 OA
ATOM     30  C   UNL     1       5.962   3.957  15.959  0.00  0.00    +0.000 C 
BRANCH  30  31
ATOM     31  O   UNL     1       5.570   2.666  16.005  0.00  0.00    +0.000 OA
ATOM     32  H   UNL     1       4.875   2.469  15.340  0.00  0.00    +0.000 HD
ENDBRANCH  30  31
ENDBRANCH   1  30
BRANCH   6  33
ATOM     33  O   UNL     1       5.639   6.754  15.266  0.00  0.00    +0.000 OA
ATOM     34  H   UNL     1       5.049   6.776  14.488  0.00  0.00    +0.000 HD
ENDBRANCH   6  33
TORSDOF 5
ENDMDL
