MODEL 1
REMARK VINA RESULT:      -8.8      0.000      0.000
REMARK  Name = 
REMARK  6 active torsions:
REMARK  status: ('A' for Active; 'I' for Inactive)
REMARK    1  A    between atoms: C_1  and  O_2
REMARK    2  A    between atoms: O_2  and  C_3
REMARK    3  A    between atoms: C_6  and  C_7
REMARK    4  A    between atoms: C_15  and  C_16
REMARK    5  A    between atoms: C_16  and  C_18
REMARK    6  A    between atoms: C_24  and  C_26
REMARK                            x       y       z     vdW  Elec       q    Type
REMARK                         _______ _______ _______ _____ _____    ______ ____
ROOT
ATOM      1  C   UNL     1       0.509  11.544  20.254  0.00  0.00    +0.000 C 
ATOM      2  O   UNL     1       1.289  11.638  21.206  0.00  0.00    +0.000 OA
ENDROOT
BRANCH   1  10
ATOM      3  C   UNL     1      -1.760  11.634  22.904  0.00  0.00    +0.000 A 
ATOM      4  C   UNL     1      -2.883  11.962  23.666  0.00  0.00    +0.000 A 
ATOM      5  N   UNL     1      -4.029  12.483  23.190  0.00  0.00    +0.000 NA
ATOM      6  C   UNL     1      -4.141  12.717  21.867  0.00  0.00    +0.000 A 
ATOM      7  C   UNL     1      -3.042  12.472  21.035  0.00  0.00    +0.000 A 
ATOM      8  N   UNL     1      -2.883  12.689  19.689  0.00  0.00    +0.000 N 
ATOM      9  C   UNL     1      -1.637  12.321  19.292  0.00  0.00    +0.000 A 
ATOM     10  C   UNL     1      -0.907  11.905  20.397  0.00  0.00    +0.000 A 
ATOM     11  C   UNL     1      -1.820  11.956  21.520  0.00  0.00    +0.000 A 
ATOM     12  H   UNL     1      -3.589  13.085  19.083  0.00  0.00    +0.000 HD
BRANCH   6  13
ATOM     13  C   UNL     1      -5.399  13.295  21.422  0.00  0.00    +0.000 A 
ATOM     14  C   UNL     1      -6.431  12.585  20.719  0.00  0.00    +0.000 A 
ATOM     15  C   UNL     1      -7.498  13.386  20.385  0.00  0.00    +0.000 A 
ATOM     16  S   UNL     1      -7.266  15.000  20.893  0.00  0.00    +0.000 S 
ATOM     17  C   UNL     1      -5.721  14.634  21.538  0.00  0.00    +0.000 A 
ENDBRANCH   6  13
BRANCH   3  19
ATOM     18  C   UNL     1      -0.514   9.646  23.250  0.00  0.00    +0.000 C 
ATOM     19  O   UNL     1      -0.629  11.059  23.416  0.00  0.00    +0.000 OA
ENDBRANCH   3  19
ENDBRANCH   1  10
BRANCH   1  20
ATOM     20  C   UNL     1       1.146  11.128  18.934  0.00  0.00    +0.000 C 
ATOM     21  O   UNL     1       1.234  11.951  18.032  0.00  0.00    +0.000 OA
ATOM     22  N   UNL     1       1.532   9.790  18.831  0.00  0.00    +0.000 N 
ATOM     23  C   UNL     1       2.071   9.286  17.560  0.00  0.00    +0.000 C 
ATOM     24  C   UNL     1       3.122   8.172  17.771  0.00  0.00    +0.000 C 
ATOM     25  N   UNL     1       2.673   7.183  18.764  0.00  0.00    +0.000 N 
ATOM     26  C   UNL     1       2.718   5.824  18.454  0.00  0.00    +0.000 C 
ATOM     27  O   UNL     1       3.224   5.406  17.413  0.00  0.00    +0.000 OA
ATOM     28  C   UNL     1       2.277   7.789  20.039  0.00  0.00    +0.000 C 
ATOM     29  C   UNL     1       1.121   8.759  19.791  0.00  0.00    +0.000 C 
BRANCH  26  30
ATOM     30  C   UNL     1       2.160   4.813  19.401  0.00  0.00    +0.000 A 
ATOM     31  C   UNL     1       2.526   4.764  20.751  0.00  0.00    +0.000 A 
ATOM     32  C   UNL     1       2.054   3.741  21.575  0.00  0.00    +0.000 A 
ATOM     33  C   UNL     1       1.138   2.816  21.080  0.00  0.00    +0.000 A 
ATOM     34  C   UNL     1       0.685   2.921  19.765  0.00  0.00    +0.000 A 
ATOM     35  C   UNL     1       1.199   3.913  18.925  0.00  0.00    +0.000 A 
ENDBRANCH  26  30
ENDBRANCH   1  20
TORSDOF 5
ENDMDL
MODEL 2
REMARK VINA RESULT:      -8.2      1.364      2.332
REMARK  Name = 
REMARK  6 active torsions:
REMARK  status: ('A' for Active; 'I' for Inactive)
REMARK    1  A    between atoms: C_1  and  O_2
REMARK    2  A    between atoms: O_2  and  C_3
REMARK    3  A    between atoms: C_6  and  C_7
REMARK    4  A    between atoms: C_15  and  C_16
REMARK    5  A    between atoms: C_16  and  C_18
REMARK    6  A    between atoms: C_24  and  C_26
REMARK                            x       y       z     vdW  Elec       q    Type
REMARK                         _______ _______ _______ _____ _____    ______ ____
ROOT
ATOM      1  C   UNL     1       0.026  11.430  20.496  0.00  0.00    +0.000 C 
ATOM      2  O   UNL     1       0.660  11.199  21.529  0.00  0.00    +0.000 OA
ENDROOT
BRANCH   1  10
ATOM      3  C   UNL     1      -2.845  11.253  18.519  0.00  0.00    +0.000 A 
ATOM      4  C   UNL     1      -4.183  11.335  18.130  0.00  0.00    +0.000 A 
ATOM      5  N   UNL     1      -5.139  12.049  18.754  0.00  0.00    +0.000 NA
ATOM      6  C   UNL     1      -4.812  12.764  19.849  0.00  0.00    +0.000 A 
ATOM      7  C   UNL     1      -3.504  12.693  20.344  0.00  0.00    +0.000 A 
ATOM      8  N   UNL     1      -2.948  13.262  21.462  0.00  0.00    +0.000 N 
ATOM      9  C   UNL     1      -1.640  12.913  21.573  0.00  0.00    +0.000 A 
ATOM     10  C   UNL     1      -1.311  12.036  20.548  0.00  0.00    +0.000 A 
ATOM     11  C   UNL     1      -2.495  11.925  19.723  0.00  0.00    +0.000 A 
ATOM     12  H   UNL     1      -3.448  13.844  22.121  0.00  0.00    +0.000 HD
BRANCH   6  13
ATOM     13  C   UNL     1      -5.895  13.500  20.482  0.00  0.00    +0.000 A 
ATOM     14  C   UNL     1      -6.621  13.066  21.642  0.00  0.00    +0.000 A 
ATOM     15  C   UNL     1      -7.619  13.939  22.005  0.00  0.00    +0.000 A 
ATOM     16  S   UNL     1      -7.709  15.278  20.949  0.00  0.00    +0.000 S 
ATOM     17  C   UNL     1      -6.426  14.675  19.984  0.00  0.00    +0.000 A 
ENDBRANCH   6  13
BRANCH   3  19
ATOM     18  C   UNL     1      -2.246  10.136  16.515  0.00  0.00    +0.000 C 
ATOM     19  O   UNL     1      -1.890  10.556  17.832  0.00  0.00    +0.000 OA
ENDBRANCH   3  19
ENDBRANCH   1  10
BRANCH   1  20
ATOM     20  C   UNL     1       0.768  11.129  19.200  0.00  0.00    +0.000 C 
ATOM     21  O   UNL     1       0.859  12.008  18.351  0.00  0.00    +0.000 OA
ATOM     22  N   UNL     1       1.244   9.825  19.049  0.00  0.00    +0.000 N 
ATOM     23  C   UNL     1       1.891   9.429  17.792  0.00  0.00    +0.000 C 
ATOM     24  C   UNL     1       2.996   8.370  18.010  0.00  0.00    +0.000 C 
ATOM     25  N   UNL     1       2.550   7.299  18.917  0.00  0.00    +0.000 N 
ATOM     26  C   UNL     1       2.701   5.967  18.537  0.00  0.00    +0.000 C 
ATOM     27  O   UNL     1       3.295   5.640  17.511  0.00  0.00    +0.000 OA
ATOM     28  C   UNL     1       2.039   7.806  20.194  0.00  0.00    +0.000 C 
ATOM     29  C   UNL     1       0.841   8.717  19.924  0.00  0.00    +0.000 C 
BRANCH  26  30
ATOM     30  C   UNL     1       2.151   4.871  19.390  0.00  0.00    +0.000 A 
ATOM     31  C   UNL     1       2.419   4.777  20.760  0.00  0.00    +0.000 A 
ATOM     32  C   UNL     1       1.965   3.681  21.497  0.00  0.00    +0.000 A 
ATOM     33  C   UNL     1       1.159   2.722  20.889  0.00  0.00    +0.000 A 
ATOM     34  C   UNL     1       0.798   2.863  19.550  0.00  0.00    +0.000 A 
ATOM     35  C   UNL     1       1.297   3.931  18.800  0.00  0.00    +0.000 A 
ENDBRANCH  26  30
ENDBRANCH   1  20
TORSDOF 5
ENDMDL
MODEL 3
REMARK VINA RESULT:      -8.2      1.302      2.471
REMARK  Name = 
REMARK  6 active torsions:
REMARK  status: ('A' for Active; 'I' for Inactive)
REMARK    1  A    between atoms: C_1  and  O_2
REMARK    2  A    between atoms: O_2  and  C_3
REMARK    3  A    between atoms: C_6  and  C_7
REMARK    4  A    between atoms: C_15  and  C_16
REMARK    5  A    between atoms: C_16  and  C_18
REMARK    6  A    between atoms: C_24  and  C_26
REMARK                            x       y       z     vdW  Elec       q    Type
REMARK                         _______ _______ _______ _____ _____    ______ ____
ROOT
ATOM      1  C   UNL     1       0.213  11.386  20.574  0.00  0.00    +0.000 C 
ATOM      2  O   UNL     1       0.896  11.175  21.581  0.00  0.00    +0.000 OA
ENDROOT
BRANCH   1  10
ATOM      3  C   UNL     1      -2.661  11.341  18.594  0.00  0.00    +0.000 A 
ATOM      4  C   UNL     1      -4.001  11.440  18.216  0.00  0.00    +0.000 A 
ATOM      5  N   UNL     1      -4.964  12.086  18.899  0.00  0.00    +0.000 NA
ATOM      6  C   UNL     1      -4.643  12.710  20.050  0.00  0.00    +0.000 A 
ATOM      7  C   UNL     1      -3.333  12.614  20.536  0.00  0.00    +0.000 A 
ATOM      8  N   UNL     1      -2.780  13.093  21.697  0.00  0.00    +0.000 N 
ATOM      9  C   UNL     1      -1.468  12.751  21.776  0.00  0.00    +0.000 A 
ATOM     10  C   UNL     1      -1.131  11.969  20.680  0.00  0.00    +0.000 A 
ATOM     11  C   UNL     1      -2.316  11.913  19.850  0.00  0.00    +0.000 A 
ATOM     12  H   UNL     1      -3.285  13.610  22.404  0.00  0.00    +0.000 HD
BRANCH   6  13
ATOM     13  C   UNL     1      -5.732  13.377  20.745  0.00  0.00    +0.000 A 
ATOM     14  C   UNL     1      -6.145  14.734  20.525  0.00  0.00    +0.000 A 
ATOM     15  C   UNL     1      -7.177  15.119  21.347  0.00  0.00    +0.000 A 
ATOM     16  S   UNL     1      -7.650  13.865  22.405  0.00  0.00    +0.000 S 
ATOM     17  C   UNL     1      -6.451  12.810  21.781  0.00  0.00    +0.000 A 
ENDBRANCH   6  13
BRANCH   3  19
ATOM     18  C   UNL     1      -2.159  10.009  16.699  0.00  0.00    +0.000 C 
ATOM     19  O   UNL     1      -1.699  10.717  17.849  0.00  0.00    +0.000 OA
ENDBRANCH   3  19
ENDBRANCH   1  10
BRANCH   1  20
ATOM     20  C   UNL     1       0.903  11.087  19.250  0.00  0.00    +0.000 C 
ATOM     21  O   UNL     1       0.982  11.974  18.409  0.00  0.00    +0.000 OA
ATOM     22  N   UNL     1       1.347   9.776  19.067  0.00  0.00    +0.000 N 
ATOM     23  C   UNL     1       1.942   9.382  17.782  0.00  0.00    +0.000 C 
ATOM     24  C   UNL     1       3.031   8.299  17.949  0.00  0.00    +0.000 C 
ATOM     25  N   UNL     1       2.596   7.226  18.858  0.00  0.00    +0.000 N 
ATOM     26  C   UNL     1       2.705   5.895  18.457  0.00  0.00    +0.000 C 
ATOM     27  O   UNL     1       3.257   5.570  17.406  0.00  0.00    +0.000 OA
ATOM     28  C   UNL     1       2.140   7.727  20.158  0.00  0.00    +0.000 C 
ATOM     29  C   UNL     1       0.952   8.665  19.941  0.00  0.00    +0.000 C 
BRANCH  26  30
ATOM     30  C   UNL     1       2.163   4.800  19.315  0.00  0.00    +0.000 A 
ATOM     31  C   UNL     1       1.252   3.851  18.837  0.00  0.00    +0.000 A 
ATOM     32  C   UNL     1       0.697   2.905  19.700  0.00  0.00    +0.000 A 
ATOM     33  C   UNL     1       1.120   2.841  21.025  0.00  0.00    +0.000 A 
ATOM     34  C   UNL     1       2.106   3.714  21.484  0.00  0.00    +0.000 A 
ATOM     35  C   UNL     1       2.622   4.695  20.634  0.00  0.00    +0.000 A 
ENDBRANCH  26  30
ENDBRANCH   1  20
TORSDOF 5
ENDMDL
MODEL 4
REMARK VINA RESULT:      -7.9      3.697      9.255
REMARK  Name = 
REMARK  6 active torsions:
REMARK  status: ('A' for Active; 'I' for Inactive)
REMARK    1  A    between atoms: C_1  and  O_2
REMARK    2  A    between atoms: O_2  and  C_3
REMARK    3  A    between atoms: C_6  and  C_7
REMARK    4  A    between atoms: C_15  and  C_16
REMARK    5  A    between atoms: C_16  and  C_18
REMARK    6  A    between atoms: C_24  and  C_26
REMARK                            x       y       z     vdW  Elec       q    Type
REMARK                         _______ _______ _______ _____ _____    ______ ____
ROOT
ATOM      1  C   UNL     1       0.470  11.589  19.042  0.00  0.00    +0.000 C 
ATOM      2  O   UNL     1      -0.522  11.830  18.348  0.00  0.00    +0.000 OA
ENDROOT
BRANCH   1  10
ATOM      3  C   UNL     1       0.697   8.729  21.029  0.00  0.00    +0.000 A 
ATOM      4  C   UNL     1       0.920   7.404  21.410  0.00  0.00    +0.000 A 
ATOM      5  N   UNL     1       1.649   6.503  20.727  0.00  0.00    +0.000 NA
ATOM      6  C   UNL     1       2.236   6.877  19.572  0.00  0.00    +0.000 A 
ATOM      7  C   UNL     1       2.018   8.171  19.084  0.00  0.00    +0.000 A 
ATOM      8  N   UNL     1       2.440   8.762  17.919  0.00  0.00    +0.000 N 
ATOM      9  C   UNL     1       1.979  10.038  17.839  0.00  0.00    +0.000 A 
ATOM     10  C   UNL     1       1.173  10.304  18.937  0.00  0.00    +0.000 A 
ATOM     11  C   UNL     1       1.230   9.121  19.770  0.00  0.00    +0.000 A 
ATOM     12  H   UNL     1       2.998   8.305  17.211  0.00  0.00    +0.000 HD
BRANCH   6  13
ATOM     13  C   UNL     1       2.997   5.851  18.877  0.00  0.00    +0.000 A 
ATOM     14  C   UNL     1       2.465   4.954  17.890  0.00  0.00    +0.000 A 
ATOM     15  C   UNL     1       3.398   4.059  17.423  0.00  0.00    +0.000 A 
ATOM     16  S   UNL     1       4.916   4.271  18.175  0.00  0.00    +0.000 S 
ATOM     17  C   UNL     1       4.317   5.547  19.151  0.00  0.00    +0.000 A 
ENDBRANCH   6  13
BRANCH   3  19
ATOM     18  C   UNL     1       0.105   9.500  23.191  0.00  0.00    +0.000 C 
ATOM     19  O   UNL     1      -0.010   9.632  21.775  0.00  0.00    +0.000 OA
ENDBRANCH   3  19
ENDBRANCH   1  10
BRANCH   1  20
ATOM     20  C   UNL     1       0.941  12.742  19.919  0.00  0.00    +0.000 C 
ATOM     21  O   UNL     1       2.114  13.091  19.859  0.00  0.00    +0.000 OA
ATOM     22  N   UNL     1      -0.007  13.283  20.790  0.00  0.00    +0.000 N 
ATOM     23  C   UNL     1       0.391  14.337  21.733  0.00  0.00    +0.000 C 
ATOM     24  C   UNL     1      -0.757  15.333  22.016  0.00  0.00    +0.000 C 
ATOM     25  N   UNL     1      -2.030  14.637  22.265  0.00  0.00    +0.000 N 
ATOM     26  C   UNL     1      -2.779  14.953  23.397  0.00  0.00    +0.000 C 
ATOM     27  O   UNL     1      -2.471  15.876  24.151  0.00  0.00    +0.000 OA
ATOM     28  C   UNL     1      -2.390  13.700  21.196  0.00  0.00    +0.000 C 
ATOM     29  C   UNL     1      -1.295  12.640  21.075  0.00  0.00    +0.000 C 
BRANCH  26  30
ATOM     30  C   UNL     1      -4.012  14.179  23.729  0.00  0.00    +0.000 A 
ATOM     31  C   UNL     1      -3.980  12.993  24.473  0.00  0.00    +0.000 A 
ATOM     32  C   UNL     1      -5.145  12.252  24.674  0.00  0.00    +0.000 A 
ATOM     33  C   UNL     1      -6.366  12.739  24.215  0.00  0.00    +0.000 A 
ATOM     34  C   UNL     1      -6.425  13.971  23.566  0.00  0.00    +0.000 A 
ATOM     35  C   UNL     1      -5.250  14.688  23.317  0.00  0.00    +0.000 A 
ENDBRANCH  26  30
ENDBRANCH   1  20
TORSDOF 5
ENDMDL
MODEL 5
REMARK VINA RESULT:      -7.9      3.958      6.063
REMARK  Name = 
REMARK  6 active torsions:
REMARK  status: ('A' for Active; 'I' for Inactive)
REMARK    1  A    between atoms: C_1  and  O_2
REMARK    2  A    between atoms: O_2  and  C_3
REMARK    3  A    between atoms: C_6  and  C_7
REMARK    4  A    between atoms: C_15  and  C_16
REMARK    5  A    between atoms: C_16  and  C_18
REMARK    6  A    between atoms: C_24  and  C_26
REMARK                            x       y       z     vdW  Elec       q    Type
REMARK                         _______ _______ _______ _____ _____    ______ ____
ROOT
ATOM      1  C   UNL     1       0.704  10.013  18.855  0.00  0.00    +0.000 C 
ATOM      2  O   UNL     1      -0.103   9.758  17.957  0.00  0.00    +0.000 OA
ENDROOT
BRANCH   1  10
ATOM      3  C   UNL     1       0.493  12.847  20.880  0.00  0.00    +0.000 A 
ATOM      4  C   UNL     1       0.840  14.042  21.514  0.00  0.00    +0.000 A 
ATOM      5  N   UNL     1       1.819  14.880  21.127  0.00  0.00    +0.000 NA
ATOM      6  C   UNL     1       2.545  14.577  20.031  0.00  0.00    +0.000 A 
ATOM      7  C   UNL     1       2.303  13.369  19.367  0.00  0.00    +0.000 A 
ATOM      8  N   UNL     1       2.941  12.808  18.288  0.00  0.00    +0.000 N 
ATOM      9  C   UNL     1       2.387  11.606  17.981  0.00  0.00    +0.000 A 
ATOM     10  C   UNL     1       1.396  11.308  18.906  0.00  0.00    +0.000 A 
ATOM     11  C   UNL     1       1.303  12.460  19.776  0.00  0.00    +0.000 A 
ATOM     12  H   UNL     1       3.725  13.224  17.803  0.00  0.00    +0.000 HD
BRANCH   6  13
ATOM     13  C   UNL     1       3.595  15.518  19.677  0.00  0.00    +0.000 A 
ATOM     14  C   UNL     1       3.900  15.951  18.342  0.00  0.00    +0.000 A 
ATOM     15  C   UNL     1       4.969  16.815  18.292  0.00  0.00    +0.000 A 
ATOM     16  S   UNL     1       5.629  17.102  19.840  0.00  0.00    +0.000 S 
ATOM     17  C   UNL     1       4.501  16.044  20.579  0.00  0.00    +0.000 A 
ENDBRANCH   6  13
BRANCH   3  19
ATOM     18  C   UNL     1      -1.782  12.242  20.597  0.00  0.00    +0.000 C 
ATOM     19  O   UNL     1      -0.541  12.044  21.274  0.00  0.00    +0.000 OA
ENDBRANCH   3  19
ENDBRANCH   1  10
BRANCH   1  20
ATOM     20  C   UNL     1       0.843   8.938  19.925  0.00  0.00    +0.000 C 
ATOM     21  O   UNL     1       0.275   9.094  20.999  0.00  0.00    +0.000 OA
ATOM     22  N   UNL     1       1.677   7.862  19.615  0.00  0.00    +0.000 N 
ATOM     23  C   UNL     1       1.936   6.828  20.627  0.00  0.00    +0.000 C 
ATOM     24  C   UNL     1       2.148   5.433  19.996  0.00  0.00    +0.000 C 
ATOM     25  N   UNL     1       3.050   5.494  18.835  0.00  0.00    +0.000 N 
ATOM     26  C   UNL     1       4.136   4.623  18.758  0.00  0.00    +0.000 C 
ATOM     27  O   UNL     1       4.313   3.722  19.577  0.00  0.00    +0.000 OA
ATOM     28  C   UNL     1       2.624   6.472  17.829  0.00  0.00    +0.000 C 
ATOM     29  C   UNL     1       2.594   7.861  18.469  0.00  0.00    +0.000 C 
BRANCH  26  30
ATOM     30  C   UNL     1       5.127   4.746  17.648  0.00  0.00    +0.000 A 
ATOM     31  C   UNL     1       6.249   5.579  17.729  0.00  0.00    +0.000 A 
ATOM     32  C   UNL     1       7.094   5.738  16.630  0.00  0.00    +0.000 A 
ATOM     33  C   UNL     1       6.878   4.991  15.475  0.00  0.00    +0.000 A 
ATOM     34  C   UNL     1       5.826   4.078  15.422  0.00  0.00    +0.000 A 
ATOM     35  C   UNL     1       4.948   3.960  16.503  0.00  0.00    +0.000 A 
ENDBRANCH  26  30
ENDBRANCH   1  20
TORSDOF 5
ENDMDL
MODEL 6
REMARK VINA RESULT:      -7.7      3.375      9.790
REMARK  Name = 
REMARK  6 active torsions:
REMARK  status: ('A' for Active; 'I' for Inactive)
REMARK    1  A    between atoms: C_1  and  O_2
REMARK    2  A    between atoms: O_2  and  C_3
REMARK    3  A    between atoms: C_6  and  C_7
REMARK    4  A    between atoms: C_15  and  C_16
REMARK    5  A    between atoms: C_16  and  C_18
REMARK    6  A    between atoms: C_24  and  C_26
REMARK                            x       y       z     vdW  Elec       q    Type
REMARK                         _______ _______ _______ _____ _____    ______ ____
ROOT
ATOM      1  C   UNL     1       0.181  11.216  21.489  0.00  0.00    +0.000 C 
ATOM      2  O   UNL     1       0.541  12.275  20.968  0.00  0.00    +0.000 OA
ENDROOT
BRANCH   1  10
ATOM      3  C   UNL     1       0.959   9.702  18.443  0.00  0.00    +0.000 A 
ATOM      4  C   UNL     1       1.554   8.851  17.509  0.00  0.00    +0.000 A 
ATOM      5  N   UNL     1       2.186   7.696  17.789  0.00  0.00    +0.000 NA
ATOM      6  C   UNL     1       2.267   7.290  19.072  0.00  0.00    +0.000 A 
ATOM      7  C   UNL     1       1.749   8.111  20.081  0.00  0.00    +0.000 A 
ATOM      8  N   UNL     1       1.768   7.958  21.445  0.00  0.00    +0.000 N 
ATOM      9  C   UNL     1       1.160   9.012  22.051  0.00  0.00    +0.000 A 
ATOM     10  C   UNL     1       0.777   9.935  21.088  0.00  0.00    +0.000 A 
ATOM     11  C   UNL     1       1.111   9.341  19.811  0.00  0.00    +0.000 A 
ATOM     12  H   UNL     1       2.192   7.179  21.931  0.00  0.00    +0.000 HD
BRANCH   6  13
ATOM     13  C   UNL     1       2.976   6.042  19.307  0.00  0.00    +0.000 A 
ATOM     14  C   UNL     1       4.365   5.816  19.025  0.00  0.00    +0.000 A 
ATOM     15  C   UNL     1       4.766   4.531  19.309  0.00  0.00    +0.000 A 
ATOM     16  S   UNL     1       3.477   3.578  19.897  0.00  0.00    +0.000 S 
ATOM     17  C   UNL     1       2.371   4.879  19.746  0.00  0.00    +0.000 A 
ENDBRANCH   6  13
BRANCH   3  19
ATOM     18  C   UNL     1      -1.130  10.709  17.951  0.00  0.00    +0.000 C 
ATOM     19  O   UNL     1       0.281  10.844  18.116  0.00  0.00    +0.000 OA
ENDBRANCH   3  19
ENDBRANCH   1  10
BRANCH   1  20
ATOM     20  C   UNL     1      -0.832  11.361  22.617  0.00  0.00    +0.000 C 
ATOM     21  O   UNL     1      -0.580  10.864  23.708  0.00  0.00    +0.000 OA
ATOM     22  N   UNL     1      -2.026  12.009  22.296  0.00  0.00    +0.000 N 
ATOM     23  C   UNL     1      -3.092  12.111  23.301  0.00  0.00    +0.000 C 
ATOM     24  C   UNL     1      -3.915  13.410  23.153  0.00  0.00    +0.000 C 
ATOM     25  N   UNL     1      -4.274  13.668  21.748  0.00  0.00    +0.000 N 
ATOM     26  C   UNL     1      -5.599  13.940  21.413  0.00  0.00    +0.000 C 
ATOM     27  O   UNL     1      -6.475  14.081  22.266  0.00  0.00    +0.000 OA
ATOM     28  C   UNL     1      -3.113  13.668  20.852  0.00  0.00    +0.000 C 
ATOM     29  C   UNL     1      -2.436  12.299  20.916  0.00  0.00    +0.000 C 
BRANCH  26  30
ATOM     30  C   UNL     1      -6.002  14.090  19.983  0.00  0.00    +0.000 A 
ATOM     31  C   UNL     1      -6.186  15.340  19.380  0.00  0.00    +0.000 A 
ATOM     32  C   UNL     1      -6.658  15.430  18.069  0.00  0.00    +0.000 A 
ATOM     33  C   UNL     1      -6.859  14.273  17.322  0.00  0.00    +0.000 A 
ATOM     34  C   UNL     1      -6.577  13.026  17.879  0.00  0.00    +0.000 A 
ATOM     35  C   UNL     1      -6.155  12.933  19.208  0.00  0.00    +0.000 A 
ENDBRANCH  26  30
ENDBRANCH   1  20
TORSDOF 5
ENDMDL
MODEL 7
REMARK VINA RESULT:      -7.7      3.433      9.726
REMARK  Name = 
REMARK  6 active torsions:
REMARK  status: ('A' for Active; 'I' for Inactive)
REMARK    1  A    between atoms: C_1  and  O_2
REMARK    2  A    between atoms: O_2  and  C_3
REMARK    3  A    between atoms: C_6  and  C_7
REMARK    4  A    between atoms: C_15  and  C_16
REMARK    5  A    between atoms: C_16  and  C_18
REMARK    6  A    between atoms: C_24  and  C_26
REMARK                            x       y       z     vdW  Elec       q    Type
REMARK                         _______ _______ _______ _____ _____    ______ ____
ROOT
ATOM      1  C   UNL     1      -0.026  11.466  21.577  0.00  0.00    +0.000 C 
ATOM      2  O   UNL     1       0.397  12.534  21.123  0.00  0.00    +0.000 OA
ENDROOT
BRANCH   1  10
ATOM      3  C   UNL     1       0.812  10.000  18.522  0.00  0.00    +0.000 A 
ATOM      4  C   UNL     1       1.418   9.158  17.588  0.00  0.00    +0.000 A 
ATOM      5  N   UNL     1       2.025   7.989  17.862  0.00  0.00    +0.000 NA
ATOM      6  C   UNL     1       2.066   7.556  19.139  0.00  0.00    +0.000 A 
ATOM      7  C   UNL     1       1.533   8.365  20.150  0.00  0.00    +0.000 A 
ATOM      8  N   UNL     1       1.512   8.185  21.510  0.00  0.00    +0.000 N 
ATOM      9  C   UNL     1       0.905   9.237  22.120  0.00  0.00    +0.000 A 
ATOM     10  C   UNL     1       0.561  10.184  21.166  0.00  0.00    +0.000 A 
ATOM     11  C   UNL     1       0.920   9.610  19.886  0.00  0.00    +0.000 A 
ATOM     12  H   UNL     1       1.911   7.391  21.992  0.00  0.00    +0.000 HD
BRANCH   6  13
ATOM     13  C   UNL     1       2.749   6.293  19.368  0.00  0.00    +0.000 A 
ATOM     14  C   UNL     1       2.264   5.231  20.203  0.00  0.00    +0.000 A 
ATOM     15  C   UNL     1       3.130   4.166  20.270  0.00  0.00    +0.000 A 
ATOM     16  S   UNL     1       4.542   4.435  19.348  0.00  0.00    +0.000 S 
ATOM     17  C   UNL     1       4.007   5.994  18.879  0.00  0.00    +0.000 A 
ENDBRANCH   6  13
BRANCH   3  19
ATOM     18  C   UNL     1      -1.236  11.038  17.932  0.00  0.00    +0.000 C 
ATOM     19  O   UNL     1       0.160  11.158  18.200  0.00  0.00    +0.000 OA
ENDBRANCH   3  19
ENDBRANCH   1  10
BRANCH   1  20
ATOM     20  C   UNL     1      -1.110  11.599  22.638  0.00  0.00    +0.000 C 
ATOM     21  O   UNL     1      -0.898  11.154  23.760  0.00  0.00    +0.000 OA
ATOM     22  N   UNL     1      -2.313  12.174  22.224  0.00  0.00    +0.000 N 
ATOM     23  C   UNL     1      -3.440  12.256  23.163  0.00  0.00    +0.000 C 
ATOM     24  C   UNL     1      -4.316  13.506  22.918  0.00  0.00    +0.000 C 
ATOM     25  N   UNL     1      -4.602  13.696  21.487  0.00  0.00    +0.000 N 
ATOM     26  C   UNL     1      -5.917  13.888  21.066  0.00  0.00    +0.000 C 
ATOM     27  O   UNL     1      -6.848  14.014  21.861  0.00  0.00    +0.000 OA
ATOM     28  C   UNL     1      -3.392  13.724  20.659  0.00  0.00    +0.000 C 
ATOM     29  C   UNL     1      -2.654  12.394  20.814  0.00  0.00    +0.000 C 
BRANCH  26  30
ATOM     30  C   UNL     1      -6.242  13.967  19.611  0.00  0.00    +0.000 A 
ATOM     31  C   UNL     1      -6.301  12.834  18.790  0.00  0.00    +0.000 A 
ATOM     32  C   UNL     1      -6.511  12.966  17.416  0.00  0.00    +0.000 A 
ATOM     33  C   UNL     1      -6.758  14.221  16.869  0.00  0.00    +0.000 A 
ATOM     34  C   UNL     1      -6.807  15.344  17.694  0.00  0.00    +0.000 A 
ATOM     35  C   UNL     1      -6.544  15.219  19.061  0.00  0.00    +0.000 A 
ENDBRANCH  26  30
ENDBRANCH   1  20
TORSDOF 5
ENDMDL
MODEL 8
REMARK VINA RESULT:      -7.7      2.726      4.426
REMARK  Name = 
REMARK  6 active torsions:
REMARK  status: ('A' for Active; 'I' for Inactive)
REMARK    1  A    between atoms: C_1  and  O_2
REMARK    2  A    between atoms: O_2  and  C_3
REMARK    3  A    between atoms: C_6  and  C_7
REMARK    4  A    between atoms: C_15  and  C_16
REMARK    5  A    between atoms: C_16  and  C_18
REMARK    6  A    between atoms: C_24  and  C_26
REMARK                            x       y       z     vdW  Elec       q    Type
REMARK                         _______ _______ _______ _____ _____    ______ ____
ROOT
ATOM      1  C   UNL     1       0.990   9.264  19.777  0.00  0.00    +0.000 C 
ATOM      2  O   UNL     1       1.627   9.280  18.720  0.00  0.00    +0.000 OA
ENDROOT
BRANCH   1  10
ATOM      3  C   UNL     1      -1.921  10.751  18.555  0.00  0.00    +0.000 A 
ATOM      4  C   UNL     1      -3.094  11.506  18.508  0.00  0.00    +0.000 A 
ATOM      5  N   UNL     1      -3.436  12.479  19.373  0.00  0.00    +0.000 NA
ATOM      6  C   UNL     1      -2.595  12.783  20.382  0.00  0.00    +0.000 A 
ATOM      7  C   UNL     1      -1.422  12.035  20.540  0.00  0.00    +0.000 A 
ATOM      8  N   UNL     1      -0.453  12.101  21.511  0.00  0.00    +0.000 N 
ATOM      9  C   UNL     1       0.509  11.169  21.285  0.00  0.00    +0.000 A 
ATOM     10  C   UNL     1       0.161  10.408  20.178  0.00  0.00    +0.000 A 
ATOM     11  C   UNL     1      -1.061  10.990  19.663  0.00  0.00    +0.000 A 
ATOM     12  H   UNL     1      -0.466  12.740  22.294  0.00  0.00    +0.000 HD
BRANCH   6  13
ATOM     13  C   UNL     1      -3.032  13.833  21.288  0.00  0.00    +0.000 A 
ATOM     14  C   UNL     1      -2.476  15.155  21.350  0.00  0.00    +0.000 A 
ATOM     15  C   UNL     1      -3.053  15.932  22.327  0.00  0.00    +0.000 A 
ATOM     16  S   UNL     1      -4.254  15.080  23.191  0.00  0.00    +0.000 S 
ATOM     17  C   UNL     1      -3.983  13.656  22.277  0.00  0.00    +0.000 A 
ENDBRANCH   6  13
BRANCH   3  19
ATOM     18  C   UNL     1      -2.392   9.759  16.454  0.00  0.00    +0.000 C 
ATOM     19  O   UNL     1      -1.583   9.803  17.629  0.00  0.00    +0.000 OA
ENDBRANCH   3  19
ENDBRANCH   1  10
BRANCH   1  20
ATOM     20  C   UNL     1       1.061   7.957  20.557  0.00  0.00    +0.000 C 
ATOM     21  O   UNL     1       0.499   7.883  21.642  0.00  0.00    +0.000 OA
ATOM     22  N   UNL     1       1.833   6.941  19.989  0.00  0.00    +0.000 N 
ATOM     23  C   UNL     1       2.027   5.682  20.720  0.00  0.00    +0.000 C 
ATOM     24  C   UNL     1       2.161   4.469  19.771  0.00  0.00    +0.000 C 
ATOM     25  N   UNL     1       3.070   4.755  18.649  0.00  0.00    +0.000 N 
ATOM     26  C   UNL     1       4.103   3.868  18.355  0.00  0.00    +0.000 C 
ATOM     27  O   UNL     1       4.225   2.787  18.932  0.00  0.00    +0.000 OA
ATOM     28  C   UNL     1       2.706   5.970  17.912  0.00  0.00    +0.000 C 
ATOM     29  C   UNL     1       2.753   7.163  18.867  0.00  0.00    +0.000 C 
BRANCH  26  30
ATOM     30  C   UNL     1       5.105   4.197  17.297  0.00  0.00    +0.000 A 
ATOM     31  C   UNL     1       4.880   3.934  15.940  0.00  0.00    +0.000 A 
ATOM     32  C   UNL     1       5.884   4.168  14.999  0.00  0.00    +0.000 A 
ATOM     33  C   UNL     1       7.084   4.754  15.394  0.00  0.00    +0.000 A 
ATOM     34  C   UNL     1       7.276   5.118  16.726  0.00  0.00    +0.000 A 
ATOM     35  C   UNL     1       6.292   4.835  17.677  0.00  0.00    +0.000 A 
ENDBRANCH  26  30
ENDBRANCH   1  20
TORSDOF 5
ENDMDL
MODEL 9
REMARK VINA RESULT:      -7.7      4.474      9.182
REMARK  Name = 
REMARK  6 active torsions:
REMARK  status: ('A' for Active; 'I' for Inactive)
REMARK    1  A    between atoms: C_1  and  O_2
REMARK    2  A    between atoms: O_2  and  C_3
REMARK    3  A    between atoms: C_6  and  C_7
REMARK    4  A    between atoms: C_15  and  C_16
REMARK    5  A    between atoms: C_16  and  C_18
REMARK    6  A    between atoms: C_24  and  C_26
REMARK                            x       y       z     vdW  Elec       q    Type
REMARK                         _______ _______ _______ _____ _____    ______ ____
ROOT
ATOM      1  C   UNL     1      -0.052  11.073  21.741  0.00  0.00    +0.000 C 
ATOM      2  O   UNL     1      -0.158  11.291  22.951  0.00  0.00    +0.000 OA
ENDROOT
BRANCH   1  10
ATOM      3  C   UNL     1       0.653   9.754  18.587  0.00  0.00    +0.000 A 
ATOM      4  C   UNL     1       1.258   8.999  17.580  0.00  0.00    +0.000 A 
ATOM      5  N   UNL     1       2.009   7.898  17.769  0.00  0.00    +0.000 NA
ATOM      6  C   UNL     1       2.212   7.452  19.026  0.00  0.00    +0.000 A 
ATOM      7  C   UNL     1       1.691   8.182  20.101  0.00  0.00    +0.000 A 
ATOM      8  N   UNL     1       1.815   7.979  21.453  0.00  0.00    +0.000 N 
ATOM      9  C   UNL     1       1.157   8.949  22.141  0.00  0.00    +0.000 A 
ATOM     10  C   UNL     1       0.628   9.868  21.246  0.00  0.00    +0.000 A 
ATOM     11  C   UNL     1       0.928   9.357  19.925  0.00  0.00    +0.000 A 
ATOM     12  H   UNL     1       2.339   7.225  21.876  0.00  0.00    +0.000 HD
BRANCH   6  13
ATOM     13  C   UNL     1       3.044   6.268  19.160  0.00  0.00    +0.000 A 
ATOM     14  C   UNL     1       2.639   5.040  19.783  0.00  0.00    +0.000 A 
ATOM     15  C   UNL     1       3.639   4.096  19.806  0.00  0.00    +0.000 A 
ATOM     16  S   UNL     1       5.080   4.678  19.097  0.00  0.00    +0.000 S 
ATOM     17  C   UNL     1       4.374   6.208  18.784  0.00  0.00    +0.000 A 
ENDBRANCH   6  13
BRANCH   3  19
ATOM     18  C   UNL     1      -1.345  10.591  17.624  0.00  0.00    +0.000 C 
ATOM     19  O   UNL     1      -0.145  10.840  18.354  0.00  0.00    +0.000 OA
ENDBRANCH   3  19
ENDBRANCH   1  10
BRANCH   1  20
ATOM     20  C   UNL     1      -0.752  12.080  20.837  0.00  0.00    +0.000 C 
ATOM     21  O   UNL     1      -1.940  11.925  20.586  0.00  0.00    +0.000 OA
ATOM     22  N   UNL     1       0.050  13.090  20.302  0.00  0.00    +0.000 N 
ATOM     23  C   UNL     1      -0.527  14.049  19.350  0.00  0.00    +0.000 C 
ATOM     24  C   UNL     1       0.121  15.447  19.461  0.00  0.00    +0.000 C 
ATOM     25  N   UNL     1       1.589  15.360  19.539  0.00  0.00    +0.000 N 
ATOM     26  C   UNL     1       2.372  16.134  18.684  0.00  0.00    +0.000 C 
ATOM     27  O   UNL     1       1.885  16.976  17.930  0.00  0.00    +0.000 OA
ATOM     28  C   UNL     1       2.054  14.472  20.608  0.00  0.00    +0.000 C 
ATOM     29  C   UNL     1       1.517  13.063  20.353  0.00  0.00    +0.000 C 
BRANCH  26  30
ATOM     30  C   UNL     1       3.857  15.975  18.667  0.00  0.00    +0.000 A 
ATOM     31  C   UNL     1       4.710  16.796  19.413  0.00  0.00    +0.000 A 
ATOM     32  C   UNL     1       6.095  16.675  19.290  0.00  0.00    +0.000 A 
ATOM     33  C   UNL     1       6.636  15.669  18.494  0.00  0.00    +0.000 A 
ATOM     34  C   UNL     1       5.794  14.777  17.830  0.00  0.00    +0.000 A 
ATOM     35  C   UNL     1       4.408  14.933  17.911  0.00  0.00    +0.000 A 
ENDBRANCH  26  30
ENDBRANCH   1  20
TORSDOF 5
ENDMDL
