MODEL 1
REMARK VINA RESULT:      -8.7      0.000      0.000
REMARK  Name = 
REMARK  7 active torsions:
REMARK  status: ('A' for Active; 'I' for Inactive)
REMARK    1  A    between atoms: C_2  and  C_3
REMARK    2  A    between atoms: C_3  and  N_4
REMARK    3  A    between atoms: C_5  and  C_7
REMARK    4  A    between atoms: C_8  and  N_9
REMARK    5  A    between atoms: N_10  and  C_11
REMARK    6  A    between atoms: C_11  and  C_12
REMARK    7  A    between atoms: C_12  and  N_13
REMARK                            x       y       z     vdW  Elec       q    Type
REMARK                         _______ _______ _______ _____ _____    ______ ____
ROOT
ATOM      1  C   UNL     1       5.526   5.487  16.684  0.00  0.00    +0.000 A 
ATOM      2  C   UNL     1       6.098   5.054  17.877  0.00  0.00    +0.000 A 
ATOM      3  N   UNL     1       5.015   4.682  18.617  0.00  0.00    +0.000 N 
ATOM      4  C   UNL     1       4.242   5.799  18.536  0.00  0.00    +0.000 A 
ATOM      5  N   UNL     1       3.400   6.143  19.502  0.00  0.00    +0.000 NA
ATOM      6  C   UNL     1       2.703   7.208  19.209  0.00  0.00    +0.000 A 
ATOM      7  C   UNL     1       1.903   7.644  20.253  0.00  0.00    +0.000 A 
ATOM      8  C   UNL     1       1.148   8.789  20.134  0.00  0.00    +0.000 A 
ATOM      9  C   UNL     1       1.201   9.473  18.933  0.00  0.00    +0.000 A 
ATOM     10  C   UNL     1       1.996   8.998  17.861  0.00  0.00    +0.000 A 
ATOM     11  C   UNL     1       2.793   7.848  17.935  0.00  0.00    +0.000 A 
ATOM     12  N   UNL     1       3.616   7.383  16.894  0.00  0.00    +0.000 NA
ATOM     13  C   UNL     1       4.428   6.322  17.244  0.00  0.00    +0.000 A 
ENDROOT
BRANCH   1  15
ATOM     14  N   UNL     1       5.554   4.492  14.470  0.00  0.00    +0.000 N 
ATOM     15  C   UNL     1       6.302   5.206  15.451  0.00  0.00    +0.000 C 
ATOM     16  O   UNL     1       7.473   5.525  15.292  0.00  0.00    +0.000 OA
ATOM     17  H   UNL     1       4.636   4.172  14.747  0.00  0.00    +0.000 HD
BRANCH  14  18
ATOM     18  C   UNL     1       6.167   3.664  13.445  0.00  0.00    +0.000 C 
BRANCH  18  20
ATOM     19  C   UNL     1       4.464   3.088  11.547  0.00  0.00    +0.000 C 
ATOM     20  C   UNL     1       5.510   3.735  12.082  0.00  0.00    +0.000 C 
ENDBRANCH  18  20
ENDBRANCH  14  18
ENDBRANCH   1  15
BRANCH   2  21
ATOM     21  N   UNL     1       7.189   5.647  18.456  0.00  0.00    +0.000 N 
ATOM     22  H   UNL     1       7.009   6.048  19.383  0.00  0.00    +0.000 HD
ATOM     23  H   UNL     1       7.933   4.961  18.649  0.00  0.00    +0.000 HD
ENDBRANCH   2  21
BRANCH   3  24
ATOM     24  C   UNL     1       4.283   3.419  18.530  0.00  0.00    +0.000 C 
BRANCH  24  25
ATOM     25  C   UNL     1       4.024   2.787  19.880  0.00  0.00    +0.000 C 
BRANCH  25  26
ATOM     26  N   UNL     1       2.800   1.978  19.886  0.00  0.00    +0.000 NA
ATOM     27  C   UNL     1       1.899   2.248  18.734  0.00  0.00    +0.000 C 
ATOM     28  C   UNL     1       1.334   3.677  18.734  0.00  0.00    +0.000 C 
ATOM     29  O   UNL     1       0.618   3.940  19.947  0.00  0.00    +0.000 OA
ATOM     30  C   UNL     1       1.429   3.701  21.106  0.00  0.00    +0.000 C 
ATOM     31  C   UNL     1       2.028   2.282  21.111  0.00  0.00    +0.000 C 
ENDBRANCH  25  26
ENDBRANCH  24  25
ENDBRANCH   3  24
TORSDOF 7
ENDMDL
MODEL 2
REMARK VINA RESULT:      -8.6      0.873      1.001
REMARK  Name = 
REMARK  7 active torsions:
REMARK  status: ('A' for Active; 'I' for Inactive)
REMARK    1  A    between atoms: C_2  and  C_3
REMARK    2  A    between atoms: C_3  and  N_4
REMARK    3  A    between atoms: C_5  and  C_7
REMARK    4  A    between atoms: C_8  and  N_9
REMARK    5  A    between atoms: N_10  and  C_11
REMARK    6  A    between atoms: C_11  and  C_12
REMARK    7  A    between atoms: C_12  and  N_13
REMARK                            x       y       z     vdW  Elec       q    Type
REMARK                         _______ _______ _______ _____ _____    ______ ____
ROOT
ATOM      1  C   UNL     1       5.696   5.185  16.325  0.00  0.00    +0.000 A 
ATOM      2  C   UNL     1       6.193   4.534  17.449  0.00  0.00    +0.000 A 
ATOM      3  N   UNL     1       5.061   4.142  18.100  0.00  0.00    +0.000 N 
ATOM      4  C   UNL     1       4.378   5.316  18.175  0.00  0.00    +0.000 A 
ATOM      5  N   UNL     1       3.533   5.576  19.164  0.00  0.00    +0.000 NA
ATOM      6  C   UNL     1       2.928   6.726  19.022  0.00  0.00    +0.000 A 
ATOM      7  C   UNL     1       2.129   7.061  20.104  0.00  0.00    +0.000 A 
ATOM      8  C   UNL     1       1.467   8.268  20.145  0.00  0.00    +0.000 A 
ATOM      9  C   UNL     1       1.612   9.119  19.065  0.00  0.00    +0.000 A 
ATOM     10  C   UNL     1       2.403   8.749  17.950  0.00  0.00    +0.000 A 
ATOM     11  C   UNL     1       3.108   7.541  17.864  0.00  0.00    +0.000 A 
ATOM     12  N   UNL     1       3.929   7.175  16.782  0.00  0.00    +0.000 NA
ATOM     13  C   UNL     1       4.646   6.012  16.982  0.00  0.00    +0.000 A 
ENDROOT
BRANCH   1  15
ATOM     14  N   UNL     1       5.764   4.399  14.030  0.00  0.00    +0.000 N 
ATOM     15  C   UNL     1       6.488   5.033  15.080  0.00  0.00    +0.000 C 
ATOM     16  O   UNL     1       7.655   5.387  14.964  0.00  0.00    +0.000 OA
ATOM     17  H   UNL     1       4.850   4.038  14.266  0.00  0.00    +0.000 HD
BRANCH  14  18
ATOM     18  C   UNL     1       6.403   3.679  12.940  0.00  0.00    +0.000 C 
BRANCH  18  20
ATOM     19  C   UNL     1       4.324   3.280  11.405  0.00  0.00    +0.000 C 
ATOM     20  C   UNL     1       5.459   2.925  12.025  0.00  0.00    +0.000 C 
ENDBRANCH  18  20
ENDBRANCH  14  18
ENDBRANCH   1  15
BRANCH   2  21
ATOM     21  N   UNL     1       7.306   4.943  18.135  0.00  0.00    +0.000 N 
ATOM     22  H   UNL     1       8.193   4.735  17.663  0.00  0.00    +0.000 HD
ATOM     23  H   UNL     1       7.336   5.969  18.228  0.00  0.00    +0.000 HD
ENDBRANCH   2  21
BRANCH   3  24
ATOM     24  C   UNL     1       4.239   2.968  17.806  0.00  0.00    +0.000 C 
BRANCH  24  25
ATOM     25  C   UNL     1       2.754   3.251  17.864  0.00  0.00    +0.000 C 
BRANCH  25  26
ATOM     26  N   UNL     1       2.009   2.163  18.507  0.00  0.00    +0.000 NA
ATOM     27  C   UNL     1       0.649   2.557  18.963  0.00  0.00    +0.000 C 
ATOM     28  C   UNL     1       0.671   3.622  20.070  0.00  0.00    +0.000 C 
ATOM     29  O   UNL     1       1.418   3.162  21.202  0.00  0.00    +0.000 OA
ATOM     30  C   UNL     1       2.747   2.764  20.837  0.00  0.00    +0.000 C 
ATOM     31  C   UNL     1       2.748   1.716  19.708  0.00  0.00    +0.000 C 
ENDBRANCH  25  26
ENDBRANCH  24  25
ENDBRANCH   3  24
TORSDOF 7
ENDMDL
MODEL 3
REMARK VINA RESULT:      -8.5      1.085      1.217
REMARK  Name = 
REMARK  7 active torsions:
REMARK  status: ('A' for Active; 'I' for Inactive)
REMARK    1  A    between atoms: C_2  and  C_3
REMARK    2  A    between atoms: C_3  and  N_4
REMARK    3  A    between atoms: C_5  and  C_7
REMARK    4  A    between atoms: C_8  and  N_9
REMARK    5  A    between atoms: N_10  and  C_11
REMARK    6  A    between atoms: C_11  and  C_12
REMARK    7  A    between atoms: C_12  and  N_13
REMARK                            x       y       z     vdW  Elec       q    Type
REMARK                         _______ _______ _______ _____ _____    ______ ____
ROOT
ATOM      1  C   UNL     1       6.108   5.113  17.496  0.00  0.00    +0.000 A 
ATOM      2  C   UNL     1       6.511   4.809  18.793  0.00  0.00    +0.000 A 
ATOM      3  N   UNL     1       5.345   4.442  19.396  0.00  0.00    +0.000 N 
ATOM      4  C   UNL     1       4.550   5.508  19.106  0.00  0.00    +0.000 A 
ATOM      5  N   UNL     1       3.560   5.885  19.905  0.00  0.00    +0.000 NA
ATOM      6  C   UNL     1       2.874   6.886  19.421  0.00  0.00    +0.000 A 
ATOM      7  C   UNL     1       1.910   7.363  20.295  0.00  0.00    +0.000 A 
ATOM      8  C   UNL     1       1.138   8.456  19.967  0.00  0.00    +0.000 A 
ATOM      9  C   UNL     1       1.344   9.042  18.731  0.00  0.00    +0.000 A 
ATOM     10  C   UNL     1       2.308   8.522  17.832  0.00  0.00    +0.000 A 
ATOM     11  C   UNL     1       3.129   7.425  18.123  0.00  0.00    +0.000 A 
ATOM     12  N   UNL     1       4.116   6.920  17.258  0.00  0.00    +0.000 NA
ATOM     13  C   UNL     1       4.907   5.934  17.814  0.00  0.00    +0.000 A 
ENDROOT
BRANCH   1  15
ATOM     14  N   UNL     1       6.594   5.108  15.118  0.00  0.00    +0.000 N 
ATOM     15  C   UNL     1       7.070   4.773  16.418  0.00  0.00    +0.000 C 
ATOM     16  O   UNL     1       8.152   4.235  16.612  0.00  0.00    +0.000 OA
ATOM     17  H   UNL     1       5.640   5.437  15.057  0.00  0.00    +0.000 HD
BRANCH  14  18
ATOM     18  C   UNL     1       7.054   4.452  13.905  0.00  0.00    +0.000 C 
BRANCH  18  20
ATOM     19  C   UNL     1       6.004   3.074  11.947  0.00  0.00    +0.000 C 
ATOM     20  C   UNL     1       5.983   3.720  13.123  0.00  0.00    +0.000 C 
ENDBRANCH  18  20
ENDBRANCH  14  18
ENDBRANCH   1  15
BRANCH   2  21
ATOM     21  N   UNL     1       7.479   5.501  19.471  0.00  0.00    +0.000 N 
ATOM     22  H   UNL     1       8.389   5.529  18.996  0.00  0.00    +0.000 HD
ATOM     23  H   UNL     1       7.240   6.500  19.556  0.00  0.00    +0.000 HD
ENDBRANCH   2  21
BRANCH   3  24
ATOM     24  C   UNL     1       4.683   3.141  19.315  0.00  0.00    +0.000 C 
BRANCH  24  25
ATOM     25  C   UNL     1       3.402   3.072  20.115  0.00  0.00    +0.000 C 
BRANCH  25  26
ATOM     26  N   UNL     1       2.427   2.150  19.522  0.00  0.00    +0.000 NA
ATOM     27  C   UNL     1       2.607   1.950  18.059  0.00  0.00    +0.000 C 
ATOM     28  C   UNL     1       2.369   3.229  17.242  0.00  0.00    +0.000 C 
ATOM     29  O   UNL     1       1.052   3.743  17.476  0.00  0.00    +0.000 OA
ATOM     30  C   UNL     1       0.806   3.963  18.872  0.00  0.00    +0.000 C 
ATOM     31  C   UNL     1       1.067   2.698  19.712  0.00  0.00    +0.000 C 
ENDBRANCH  25  26
ENDBRANCH  24  25
ENDBRANCH   3  24
TORSDOF 7
ENDMDL
MODEL 4
REMARK VINA RESULT:      -8.4      0.755      1.018
REMARK  Name = 
REMARK  7 active torsions:
REMARK  status: ('A' for Active; 'I' for Inactive)
REMARK    1  A    between atoms: C_2  and  C_3
REMARK    2  A    between atoms: C_3  and  N_4
REMARK    3  A    between atoms: C_5  and  C_7
REMARK    4  A    between atoms: C_8  and  N_9
REMARK    5  A    between atoms: N_10  and  C_11
REMARK    6  A    between atoms: C_11  and  C_12
REMARK    7  A    between atoms: C_12  and  N_13
REMARK                            x       y       z     vdW  Elec       q    Type
REMARK                         _______ _______ _______ _____ _____    ______ ____
ROOT
ATOM      1  C   UNL     1       5.794   5.105  17.003  0.00  0.00    +0.000 A 
ATOM      2  C   UNL     1       6.266   4.726  18.256  0.00  0.00    +0.000 A 
ATOM      3  N   UNL     1       5.124   4.418  18.932  0.00  0.00    +0.000 N 
ATOM      4  C   UNL     1       4.388   5.545  18.736  0.00  0.00    +0.000 A 
ATOM      5  N   UNL     1       3.488   5.960  19.618  0.00  0.00    +0.000 NA
ATOM      6  C   UNL     1       2.841   7.022  19.218  0.00  0.00    +0.000 A 
ATOM      7  C   UNL     1       1.978   7.532  20.177  0.00  0.00    +0.000 A 
ATOM      8  C   UNL     1       1.264   8.685  19.941  0.00  0.00    +0.000 A 
ATOM      9  C   UNL     1       1.421   9.301  18.713  0.00  0.00    +0.000 A 
ATOM     10  C   UNL     1       2.278   8.750  17.729  0.00  0.00    +0.000 A 
ATOM     11  C   UNL     1       3.038   7.589  17.923  0.00  0.00    +0.000 A 
ATOM     12  N   UNL     1       3.923   7.051  16.971  0.00  0.00    +0.000 NA
ATOM     13  C   UNL     1       4.680   5.993  17.435  0.00  0.00    +0.000 A 
ENDROOT
BRANCH   1  15
ATOM     14  N   UNL     1       5.922   4.628  14.626  0.00  0.00    +0.000 N 
ATOM     15  C   UNL     1       6.649   4.740  15.846  0.00  0.00    +0.000 C 
ATOM     16  O   UNL     1       7.852   4.527  15.925  0.00  0.00    +0.000 OA
ATOM     17  H   UNL     1       4.916   4.706  14.691  0.00  0.00    +0.000 HD
BRANCH  14  18
ATOM     18  C   UNL     1       6.365   3.818  13.504  0.00  0.00    +0.000 C 
BRANCH  18  20
ATOM     19  C   UNL     1       8.062   5.573  12.568  0.00  0.00    +0.000 C 
ATOM     20  C   UNL     1       7.202   4.549  12.473  0.00  0.00    +0.000 C 
ENDBRANCH  18  20
ENDBRANCH  14  18
ENDBRANCH   1  15
BRANCH   2  21
ATOM     21  N   UNL     1       7.328   5.326  18.881  0.00  0.00    +0.000 N 
ATOM     22  H   UNL     1       7.227   6.340  19.005  0.00  0.00    +0.000 HD
ATOM     23  H   UNL     1       7.434   4.991  19.850  0.00  0.00    +0.000 HD
ENDBRANCH   2  21
BRANCH   3  24
ATOM     24  C   UNL     1       4.368   3.168  18.860  0.00  0.00    +0.000 C 
BRANCH  24  25
ATOM     25  C   UNL     1       3.888   2.683  20.209  0.00  0.00    +0.000 C 
BRANCH  25  26
ATOM     26  N   UNL     1       2.642   1.914  20.109  0.00  0.00    +0.000 NA
ATOM     27  C   UNL     1       1.905   2.133  18.836  0.00  0.00    +0.000 C 
ATOM     28  C   UNL     1       1.400   3.575  18.673  0.00  0.00    +0.000 C 
ATOM     29  O   UNL     1       0.547   3.940  19.765  0.00  0.00    +0.000 OA
ATOM     30  C   UNL     1       1.196   3.756  21.032  0.00  0.00    +0.000 C 
ATOM     31  C   UNL     1       1.734   2.323  21.203  0.00  0.00    +0.000 C 
ENDBRANCH  25  26
ENDBRANCH  24  25
ENDBRANCH   3  24
TORSDOF 7
ENDMDL
MODEL 5
REMARK VINA RESULT:      -8.2      2.652      5.944
REMARK  Name = 
REMARK  7 active torsions:
REMARK  status: ('A' for Active; 'I' for Inactive)
REMARK    1  A    between atoms: C_2  and  C_3
REMARK    2  A    between atoms: C_3  and  N_4
REMARK    3  A    between atoms: C_5  and  C_7
REMARK    4  A    between atoms: C_8  and  N_9
REMARK    5  A    between atoms: N_10  and  C_11
REMARK    6  A    between atoms: C_11  and  C_12
REMARK    7  A    between atoms: C_12  and  N_13
REMARK                            x       y       z     vdW  Elec       q    Type
REMARK                         _______ _______ _______ _____ _____    ______ ____
ROOT
ATOM      1  C   UNL     1       6.965   6.511  17.296  0.00  0.00    +0.000 A 
ATOM      2  C   UNL     1       5.602   6.525  17.576  0.00  0.00    +0.000 A 
ATOM      3  N   UNL     1       5.230   5.234  17.344  0.00  0.00    +0.000 N 
ATOM      4  C   UNL     1       5.719   5.038  16.089  0.00  0.00    +0.000 A 
ATOM      5  N   UNL     1       5.152   4.194  15.237  0.00  0.00    +0.000 NA
ATOM      6  C   UNL     1       5.807   4.098  14.111  0.00  0.00    +0.000 A 
ATOM      7  C   UNL     1       5.166   3.308  13.170  0.00  0.00    +0.000 A 
ATOM      8  C   UNL     1       5.689   3.150  11.906  0.00  0.00    +0.000 A 
ATOM      9  C   UNL     1       6.882   3.787  11.618  0.00  0.00    +0.000 A 
ATOM     10  C   UNL     1       7.546   4.563  12.601  0.00  0.00    +0.000 A 
ATOM     11  C   UNL     1       7.050   4.768  13.895  0.00  0.00    +0.000 A 
ATOM     12  N   UNL     1       7.676   5.566  14.869  0.00  0.00    +0.000 NA
ATOM     13  C   UNL     1       6.931   5.750  16.017  0.00  0.00    +0.000 A 
ENDROOT
BRANCH   1  15
ATOM     14  N   UNL     1       7.775   8.757  17.732  0.00  0.00    +0.000 N 
ATOM     15  C   UNL     1       7.812   7.392  18.138  0.00  0.00    +0.000 C 
ATOM     16  O   UNL     1       8.499   6.993  19.070  0.00  0.00    +0.000 OA
ATOM     17  H   UNL     1       7.273   8.961  16.878  0.00  0.00    +0.000 HD
BRANCH  14  18
ATOM     18  C   UNL     1       8.843   9.702  18.011  0.00  0.00    +0.000 C 
BRANCH  18  20
ATOM     19  C   UNL     1       9.737  11.032  20.077  0.00  0.00    +0.000 C 
ATOM     20  C   UNL     1       8.976  10.114  19.463  0.00  0.00    +0.000 C 
ENDBRANCH  18  20
ENDBRANCH  14  18
ENDBRANCH   1  15
BRANCH   2  21
ATOM     21  N   UNL     1       4.774   7.573  17.271  0.00  0.00    +0.000 N 
ATOM     22  H   UNL     1       4.389   8.058  18.089  0.00  0.00    +0.000 HD
ATOM     23  H   UNL     1       5.282   8.325  16.782  0.00  0.00    +0.000 HD
ENDBRANCH   2  21
BRANCH   3  24
ATOM     24  C   UNL     1       5.386   4.097  18.250  0.00  0.00    +0.000 C 
BRANCH  24  25
ATOM     25  C   UNL     1       4.303   4.022  19.303  0.00  0.00    +0.000 C 
BRANCH  25  26
ATOM     26  N   UNL     1       4.002   2.638  19.689  0.00  0.00    +0.000 NA
ATOM     27  C   UNL     1       3.531   1.792  18.561  0.00  0.00    +0.000 C 
ATOM     28  C   UNL     1       2.187   2.256  17.979  0.00  0.00    +0.000 C 
ATOM     29  O   UNL     1       1.174   2.274  18.993  0.00  0.00    +0.000 OA
ATOM     30  C   UNL     1       1.561   3.077  20.117  0.00  0.00    +0.000 C 
ATOM     31  C   UNL     1       2.920   2.643  20.698  0.00  0.00    +0.000 C 
ENDBRANCH  25  26
ENDBRANCH  24  25
ENDBRANCH   3  24
TORSDOF 7
ENDMDL
MODEL 6
REMARK VINA RESULT:      -8.1      2.607      5.915
REMARK  Name = 
REMARK  7 active torsions:
REMARK  status: ('A' for Active; 'I' for Inactive)
REMARK    1  A    between atoms: C_2  and  C_3
REMARK    2  A    between atoms: C_3  and  N_4
REMARK    3  A    between atoms: C_5  and  C_7
REMARK    4  A    between atoms: C_8  and  N_9
REMARK    5  A    between atoms: N_10  and  C_11
REMARK    6  A    between atoms: C_11  and  C_12
REMARK    7  A    between atoms: C_12  and  N_13
REMARK                            x       y       z     vdW  Elec       q    Type
REMARK                         _______ _______ _______ _____ _____    ______ ____
ROOT
ATOM      1  C   UNL     1       6.874   6.287  17.378  0.00  0.00    +0.000 A 
ATOM      2  C   UNL     1       5.504   6.321  17.621  0.00  0.00    +0.000 A 
ATOM      3  N   UNL     1       5.109   5.051  17.323  0.00  0.00    +0.000 N 
ATOM      4  C   UNL     1       5.629   4.898  16.075  0.00  0.00    +0.000 A 
ATOM      5  N   UNL     1       5.068   4.106  15.171  0.00  0.00    +0.000 NA
ATOM      6  C   UNL     1       5.752   4.043  14.060  0.00  0.00    +0.000 A 
ATOM      7  C   UNL     1       5.119   3.310  13.068  0.00  0.00    +0.000 A 
ATOM      8  C   UNL     1       5.674   3.195  11.813  0.00  0.00    +0.000 A 
ATOM      9  C   UNL     1       6.889   3.816  11.586  0.00  0.00    +0.000 A 
ATOM     10  C   UNL     1       7.542   4.532  12.619  0.00  0.00    +0.000 A 
ATOM     11  C   UNL     1       7.014   4.693  13.907  0.00  0.00    +0.000 A 
ATOM     12  N   UNL     1       7.631   5.432  14.932  0.00  0.00    +0.000 NA
ATOM     13  C   UNL     1       6.858   5.583  16.067  0.00  0.00    +0.000 A 
ENDROOT
BRANCH   1  15
ATOM     14  N   UNL     1       7.795   8.476  17.881  0.00  0.00    +0.000 N 
ATOM     15  C   UNL     1       7.716   7.110  18.281  0.00  0.00    +0.000 C 
ATOM     16  O   UNL     1       8.311   6.667  19.255  0.00  0.00    +0.000 OA
ATOM     17  H   UNL     1       7.366   8.713  16.997  0.00  0.00    +0.000 HD
BRANCH  14  18
ATOM     18  C   UNL     1       8.900   9.350  18.237  0.00  0.00    +0.000 C 
BRANCH  18  20
ATOM     19  C   UNL     1       9.258  11.922  17.929  0.00  0.00    +0.000 C 
ATOM     20  C   UNL     1       8.565  10.827  18.278  0.00  0.00    +0.000 C 
ENDBRANCH  18  20
ENDBRANCH  14  18
ENDBRANCH   1  15
BRANCH   2  21
ATOM     21  N   UNL     1       4.709   7.401  17.341  0.00  0.00    +0.000 N 
ATOM     22  H   UNL     1       5.176   8.308  17.447  0.00  0.00    +0.000 HD
ATOM     23  H   UNL     1       4.421   7.411  16.351  0.00  0.00    +0.000 HD
ENDBRANCH   2  21
BRANCH   3  24
ATOM     24  C   UNL     1       5.214   3.872  18.182  0.00  0.00    +0.000 C 
BRANCH  24  25
ATOM     25  C   UNL     1       3.870   3.312  18.592  0.00  0.00    +0.000 C 
BRANCH  25  26
ATOM     26  N   UNL     1       2.865   4.365  18.776  0.00  0.00    +0.000 NA
ATOM     27  C   UNL     1       2.710   4.802  20.189  0.00  0.00    +0.000 C 
ATOM     28  C   UNL     1       2.177   3.693  21.108  0.00  0.00    +0.000 C 
ATOM     29  O   UNL     1       0.914   3.207  20.637  0.00  0.00    +0.000 OA
ATOM     30  C   UNL     1       0.988   2.764  19.275  0.00  0.00    +0.000 C 
ATOM     31  C   UNL     1       1.547   3.854  18.341  0.00  0.00    +0.000 C 
ENDBRANCH  25  26
ENDBRANCH  24  25
ENDBRANCH   3  24
TORSDOF 7
ENDMDL
MODEL 7
REMARK VINA RESULT:      -8.0      1.813      5.343
REMARK  Name = 
REMARK  7 active torsions:
REMARK  status: ('A' for Active; 'I' for Inactive)
REMARK    1  A    between atoms: C_2  and  C_3
REMARK    2  A    between atoms: C_3  and  N_4
REMARK    3  A    between atoms: C_5  and  C_7
REMARK    4  A    between atoms: C_8  and  N_9
REMARK    5  A    between atoms: N_10  and  C_11
REMARK    6  A    between atoms: C_11  and  C_12
REMARK    7  A    between atoms: C_12  and  N_13
REMARK                            x       y       z     vdW  Elec       q    Type
REMARK                         _______ _______ _______ _____ _____    ______ ____
ROOT
ATOM      1  C   UNL     1       2.573   5.592  19.692  0.00  0.00    +0.000 A 
ATOM      2  C   UNL     1       2.432   5.488  18.312  0.00  0.00    +0.000 A 
ATOM      3  N   UNL     1       2.943   6.669  17.864  0.00  0.00    +0.000 N 
ATOM      4  C   UNL     1       2.237   7.563  18.608  0.00  0.00    +0.000 A 
ATOM      5  N   UNL     1       1.960   8.783  18.166  0.00  0.00    +0.000 NA
ATOM      6  C   UNL     1       1.332   9.510  19.052  0.00  0.00    +0.000 A 
ATOM      7  C   UNL     1       0.937  10.746  18.564  0.00  0.00    +0.000 A 
ATOM      8  C   UNL     1       0.210  11.614  19.348  0.00  0.00    +0.000 A 
ATOM      9  C   UNL     1      -0.092  11.219  20.638  0.00  0.00    +0.000 A 
ATOM     10  C   UNL     1       0.349   9.967  21.136  0.00  0.00    +0.000 A 
ATOM     11  C   UNL     1       1.077   9.042  20.376  0.00  0.00    +0.000 A 
ATOM     12  N   UNL     1       1.489   7.781  20.842  0.00  0.00    +0.000 NA
ATOM     13  C   UNL     1       2.058   6.976  19.874  0.00  0.00    +0.000 A 
ENDROOT
BRANCH   1  15
ATOM     14  N   UNL     1       4.067   3.693  19.927  0.00  0.00    +0.000 N 
ATOM     15  C   UNL     1       2.890   4.333  20.412  0.00  0.00    +0.000 C 
ATOM     16  O   UNL     1       2.202   3.867  21.311  0.00  0.00    +0.000 OA
ATOM     17  H   UNL     1       4.494   4.096  19.104  0.00  0.00    +0.000 HD
BRANCH  14  18
ATOM     18  C   UNL     1       4.316   2.268  20.065  0.00  0.00    +0.000 C 
BRANCH  18  20
ATOM     19  C   UNL     1       3.102   1.703  17.820  0.00  0.00    +0.000 C 
ATOM     20  C   UNL     1       3.779   1.408  18.940  0.00  0.00    +0.000 C 
ENDBRANCH  18  20
ENDBRANCH  14  18
ENDBRANCH   1  15
BRANCH   2  21
ATOM     21  N   UNL     1       1.359   4.895  17.700  0.00  0.00    +0.000 N 
ATOM     22  H   UNL     1       1.420   4.867  16.676  0.00  0.00    +0.000 HD
ATOM     23  H   UNL     1       1.286   3.898  17.948  0.00  0.00    +0.000 HD
ENDBRANCH   2  21
BRANCH   3  24
ATOM     24  C   UNL     1       4.355   7.003  17.676  0.00  0.00    +0.000 C 
BRANCH  24  25
ATOM     25  C   UNL     1       4.914   6.509  16.361  0.00  0.00    +0.000 C 
BRANCH  25  26
ATOM     26  N   UNL     1       4.993   5.044  16.309  0.00  0.00    +0.000 NA
ATOM     27  C   UNL     1       5.860   4.454  17.362  0.00  0.00    +0.000 C 
ATOM     28  C   UNL     1       7.337   4.855  17.221  0.00  0.00    +0.000 C 
ATOM     29  O   UNL     1       7.847   4.470  15.939  0.00  0.00    +0.000 OA
ATOM     30  C   UNL     1       7.057   5.007  14.869  0.00  0.00    +0.000 C 
ATOM     31  C   UNL     1       5.568   4.639  15.007  0.00  0.00    +0.000 C 
ENDBRANCH  25  26
ENDBRANCH  24  25
ENDBRANCH   3  24
TORSDOF 7
ENDMDL
MODEL 8
REMARK VINA RESULT:      -8.0      2.072      5.384
REMARK  Name = 
REMARK  7 active torsions:
REMARK  status: ('A' for Active; 'I' for Inactive)
REMARK    1  A    between atoms: C_2  and  C_3
REMARK    2  A    between atoms: C_3  and  N_4
REMARK    3  A    between atoms: C_5  and  C_7
REMARK    4  A    between atoms: C_8  and  N_9
REMARK    5  A    between atoms: N_10  and  C_11
REMARK    6  A    between atoms: C_11  and  C_12
REMARK    7  A    between atoms: C_12  and  N_13
REMARK                            x       y       z     vdW  Elec       q    Type
REMARK                         _______ _______ _______ _____ _____    ______ ____
ROOT
ATOM      1  C   UNL     1       2.583   5.730  19.622  0.00  0.00    +0.000 A 
ATOM      2  C   UNL     1       2.335   5.620  18.258  0.00  0.00    +0.000 A 
ATOM      3  N   UNL     1       2.792   6.807  17.768  0.00  0.00    +0.000 N 
ATOM      4  C   UNL     1       2.135   7.694  18.564  0.00  0.00    +0.000 A 
ATOM      5  N   UNL     1       1.806   8.908  18.143  0.00  0.00    +0.000 NA
ATOM      6  C   UNL     1       1.240   9.629  19.074  0.00  0.00    +0.000 A 
ATOM      7  C   UNL     1       0.790  10.858  18.617  0.00  0.00    +0.000 A 
ATOM      8  C   UNL     1       0.114  11.718  19.454  0.00  0.00    +0.000 A 
ATOM      9  C   UNL     1      -0.079  11.322  20.764  0.00  0.00    +0.000 A 
ATOM     10  C   UNL     1       0.418  10.079  21.228  0.00  0.00    +0.000 A 
ATOM     11  C   UNL     1       1.097   9.162  20.415  0.00  0.00    +0.000 A 
ATOM     12  N   UNL     1       1.563   7.908  20.850  0.00  0.00    +0.000 NA
ATOM     13  C   UNL     1       2.064   7.108  19.841  0.00  0.00    +0.000 A 
ENDROOT
BRANCH   1  15
ATOM     14  N   UNL     1       4.093   3.832  19.716  0.00  0.00    +0.000 N 
ATOM     15  C   UNL     1       2.974   4.478  20.317  0.00  0.00    +0.000 C 
ATOM     16  O   UNL     1       2.385   4.023  21.288  0.00  0.00    +0.000 OA
ATOM     17  H   UNL     1       4.430   4.226  18.848  0.00  0.00    +0.000 HD
BRANCH  14  18
ATOM     18  C   UNL     1       4.355   2.408  19.842  0.00  0.00    +0.000 C 
BRANCH  18  20
ATOM     19  C   UNL     1       2.833   1.812  17.801  0.00  0.00    +0.000 C 
ATOM     20  C   UNL     1       3.638   1.530  18.837  0.00  0.00    +0.000 C 
ENDBRANCH  18  20
ENDBRANCH  14  18
ENDBRANCH   1  15
BRANCH   2  21
ATOM     21  N   UNL     1       1.225   5.010  17.733  0.00  0.00    +0.000 N 
ATOM     22  H   UNL     1       1.187   5.014  16.708  0.00  0.00    +0.000 HD
ATOM     23  H   UNL     1       1.207   4.004  17.955  0.00  0.00    +0.000 HD
ENDBRANCH   2  21
BRANCH   3  24
ATOM     24  C   UNL     1       4.179   7.160  17.469  0.00  0.00    +0.000 C 
BRANCH  24  25
ATOM     25  C   UNL     1       4.913   6.088  16.693  0.00  0.00    +0.000 C 
BRANCH  25  26
ATOM     26  N   UNL     1       6.256   6.520  16.289  0.00  0.00    +0.000 NA
ATOM     27  C   UNL     1       6.935   5.574  15.364  0.00  0.00    +0.000 C 
ATOM     28  C   UNL     1       7.222   4.207  16.003  0.00  0.00    +0.000 C 
ATOM     29  O   UNL     1       8.027   4.356  17.179  0.00  0.00    +0.000 OA
ATOM     30  C   UNL     1       7.431   5.258  18.122  0.00  0.00    +0.000 C 
ATOM     31  C   UNL     1       7.110   6.626  17.492  0.00  0.00    +0.000 C 
ENDBRANCH  25  26
ENDBRANCH  24  25
ENDBRANCH   3  24
TORSDOF 7
ENDMDL
MODEL 9
REMARK VINA RESULT:      -7.5      1.762      5.245
REMARK  Name = 
REMARK  7 active torsions:
REMARK  status: ('A' for Active; 'I' for Inactive)
REMARK    1  A    between atoms: C_2  and  C_3
REMARK    2  A    between atoms: C_3  and  N_4
REMARK    3  A    between atoms: C_5  and  C_7
REMARK    4  A    between atoms: C_8  and  N_9
REMARK    5  A    between atoms: N_10  and  C_11
REMARK    6  A    between atoms: C_11  and  C_12
REMARK    7  A    between atoms: C_12  and  N_13
REMARK                            x       y       z     vdW  Elec       q    Type
REMARK                         _______ _______ _______ _____ _____    ______ ____
ROOT
ATOM      1  C   UNL     1       2.674   5.726  19.589  0.00  0.00    +0.000 A 
ATOM      2  C   UNL     1       2.559   5.589  18.209  0.00  0.00    +0.000 A 
ATOM      3  N   UNL     1       3.067   6.764  17.742  0.00  0.00    +0.000 N 
ATOM      4  C   UNL     1       2.340   7.669  18.453  0.00  0.00    +0.000 A 
ATOM      5  N   UNL     1       2.060   8.875  17.978  0.00  0.00    +0.000 NA
ATOM      6  C   UNL     1       1.410   9.617  18.834  0.00  0.00    +0.000 A 
ATOM      7  C   UNL     1       1.012  10.837  18.311  0.00  0.00    +0.000 A 
ATOM      8  C   UNL     1       0.263  11.717  19.061  0.00  0.00    +0.000 A 
ATOM      9  C   UNL     1      -0.058  11.348  20.355  0.00  0.00    +0.000 A 
ATOM     10  C   UNL     1       0.384  10.113  20.889  0.00  0.00    +0.000 A 
ATOM     11  C   UNL     1       1.135   9.177  20.165  0.00  0.00    +0.000 A 
ATOM     12  N   UNL     1       1.550   7.931  20.667  0.00  0.00    +0.000 NA
ATOM     13  C   UNL     1       2.143   7.110  19.729  0.00  0.00    +0.000 A 
ENDROOT
BRANCH   1  15
ATOM     14  N   UNL     1       4.089   3.764  19.796  0.00  0.00    +0.000 N 
ATOM     15  C   UNL     1       2.989   4.487  20.343  0.00  0.00    +0.000 C 
ATOM     16  O   UNL     1       2.358   4.101  21.318  0.00  0.00    +0.000 OA
ATOM     17  H   UNL     1       4.463   4.105  18.921  0.00  0.00    +0.000 HD
BRANCH  14  18
ATOM     18  C   UNL     1       4.279   2.336  19.986  0.00  0.00    +0.000 C 
BRANCH  18  20
ATOM     19  C   UNL     1       2.712   1.668  18.002  0.00  0.00    +0.000 C 
ATOM     20  C   UNL     1       3.680   1.457  18.907  0.00  0.00    +0.000 C 
ENDBRANCH  18  20
ENDBRANCH  14  18
ENDBRANCH   1  15
BRANCH   2  21
ATOM     21  N   UNL     1       1.503   4.972  17.591  0.00  0.00    +0.000 N 
ATOM     22  H   UNL     1       0.703   5.588  17.408  0.00  0.00    +0.000 HD
ATOM     23  H   UNL     1       1.756   4.645  16.648  0.00  0.00    +0.000 HD
ENDBRANCH   2  21
BRANCH   3  24
ATOM     24  C   UNL     1       4.479   7.107  17.573  0.00  0.00    +0.000 C 
BRANCH  24  25
ATOM     25  C   UNL     1       5.034   6.697  16.227  0.00  0.00    +0.000 C 
BRANCH  25  26
ATOM     26  N   UNL     1       6.345   6.048  16.344  0.00  0.00    +0.000 NA
ATOM     27  C   UNL     1       6.909   5.600  15.043  0.00  0.00    +0.000 C 
ATOM     28  C   UNL     1       6.072   4.502  14.369  0.00  0.00    +0.000 C 
ATOM     29  O   UNL     1       5.943   3.363  15.228  0.00  0.00    +0.000 OA
ATOM     30  C   UNL     1       5.401   3.720  16.508  0.00  0.00    +0.000 C 
ATOM     31  C   UNL     1       6.211   4.840  17.187  0.00  0.00    +0.000 C 
ENDBRANCH  25  26
ENDBRANCH  24  25
ENDBRANCH   3  24
TORSDOF 7
ENDMDL
