MODEL 1
REMARK VINA RESULT:      -7.0      0.000      0.000
REMARK  Name = 
REMARK  13 active torsions:
REMARK  status: ('A' for Active; 'I' for Inactive)
REMARK    1  A    between atoms: C_1  and  O_2
REMARK    2  A    between atoms: O_2  and  C_3
REMARK    3  A    between atoms: C_5  and  O_6
REMARK    4  A    between atoms: O_6  and  C_7
REMARK    5  A    between atoms: C_8  and  C_9
REMARK    6  A    between atoms: C_10  and  S_11
REMARK    7  A    between atoms: S_11  and  C_14
REMARK    8  A    between atoms: C_14  and  C_15
REMARK    9  A    between atoms: C_18  and  O_19
REMARK   10  A    between atoms: O_19  and  C_20
REMARK   11  A    between atoms: C_21  and  N_22
REMARK   12  A    between atoms: C_26  and  O_27
REMARK   13  A    between atoms: O_27  and  C_28
REMARK                            x       y       z     vdW  Elec       q    Type
REMARK                         _______ _______ _______ _____ _____    ______ ____
ROOT
ATOM      1  S   UNL     1       2.329   3.540  20.818  0.00  0.00    +0.000 S 
ATOM      2  O   UNL     1       2.350   3.686  22.265  0.00  0.00    +0.000 OA
ATOM      3  O   UNL     1       1.222   2.868  20.168  0.00  0.00    +0.000 OA
ENDROOT
BRANCH   1   5
ATOM      4  C   UNL     1       1.512   6.030  20.334  0.00  0.00    +0.000 C 
ATOM      5  C   UNL     1       2.495   5.136  20.143  0.00  0.00    +0.000 C 
BRANCH   4   9
ATOM      6  C   UNL     1       1.696  10.101  19.004  0.00  0.00    +0.000 A 
ATOM      7  C   UNL     1       2.298   9.100  18.244  0.00  0.00    +0.000 A 
ATOM      8  C   UNL     1       2.231   7.755  18.631  0.00  0.00    +0.000 A 
ATOM      9  C   UNL     1       1.580   7.408  19.828  0.00  0.00    +0.000 A 
ATOM     10  C   UNL     1       0.978   8.428  20.604  0.00  0.00    +0.000 A 
ATOM     11  C   UNL     1       1.046   9.765  20.190  0.00  0.00    +0.000 A 
BRANCH   6  13
ATOM     12  C   UNL     1       0.726  12.244  18.707  0.00  0.00    +0.000 C 
ATOM     13  O   UNL     1       1.834  11.371  18.511  0.00  0.00    +0.000 OA
ENDBRANCH   6  13
BRANCH   8  14
ATOM     14  O   UNL     1       2.910   6.914  17.788  0.00  0.00    +0.000 OA
ATOM     15  C   UNL     1       4.165   7.366  17.300  0.00  0.00    +0.000 C 
ENDBRANCH   8  14
BRANCH  10  16
ATOM     16  O   UNL     1       0.350   8.019  21.759  0.00  0.00    +0.000 OA
ATOM     17  C   UNL     1      -0.392   8.984  22.491  0.00  0.00    +0.000 C 
ENDBRANCH  10  16
ENDBRANCH   4   9
ENDBRANCH   1   5
BRANCH   1  18
ATOM     18  C   UNL     1       3.856   2.766  20.319  0.00  0.00    +0.000 C 
BRANCH  18  19
ATOM     19  C   UNL     1       4.314   3.337  19.008  0.00  0.00    +0.000 A 
ATOM     20  C   UNL     1       3.547   3.236  17.855  0.00  0.00    +0.000 A 
ATOM     21  C   UNL     1       4.044   3.734  16.650  0.00  0.00    +0.000 A 
ATOM     22  C   UNL     1       5.311   4.316  16.594  0.00  0.00    +0.000 A 
ATOM     23  C   UNL     1       6.032   4.369  17.794  0.00  0.00    +0.000 A 
ATOM     24  N   UNL     1       5.557   3.873  18.986  0.00  0.00    +0.000 NA
BRANCH  23  25
ATOM     25  N   UNL     1       7.379   4.957  17.728  0.00  0.00    +0.000 N 
ATOM     26  O   UNL     1       7.504   6.159  18.003  0.00  0.00    +0.000 OA
ATOM     27  O   UNL     1       8.311   4.187  17.437  0.00  0.00    +0.000 OA
ENDBRANCH  23  25
BRANCH  22  28
ATOM     28  O   UNL     1       5.886   4.787  15.446  0.00  0.00    +0.000 OA
ATOM     29  C   UNL     1       6.158   3.847  14.412  0.00  0.00    +0.000 C 
ENDBRANCH  22  28
ENDBRANCH  18  19
ENDBRANCH   1  18
TORSDOF 9
ENDMDL
MODEL 2
REMARK VINA RESULT:      -6.9      0.582      2.489
REMARK  Name = 
REMARK  13 active torsions:
REMARK  status: ('A' for Active; 'I' for Inactive)
REMARK    1  A    between atoms: C_1  and  O_2
REMARK    2  A    between atoms: O_2  and  C_3
REMARK    3  A    between atoms: C_5  and  O_6
REMARK    4  A    between atoms: O_6  and  C_7
REMARK    5  A    between atoms: C_8  and  C_9
REMARK    6  A    between atoms: C_10  and  S_11
REMARK    7  A    between atoms: S_11  and  C_14
REMARK    8  A    between atoms: C_14  and  C_15
REMARK    9  A    between atoms: C_18  and  O_19
REMARK   10  A    between atoms: O_19  and  C_20
REMARK   11  A    between atoms: C_21  and  N_22
REMARK   12  A    between atoms: C_26  and  O_27
REMARK   13  A    between atoms: O_27  and  C_28
REMARK                            x       y       z     vdW  Elec       q    Type
REMARK                         _______ _______ _______ _____ _____    ______ ____
ROOT
ATOM      1  S   UNL     1       2.131   3.306  20.549  0.00  0.00    +0.000 S 
ATOM      2  O   UNL     1       1.684   3.347  21.933  0.00  0.00    +0.000 OA
ATOM      3  O   UNL     1       1.651   2.270  19.656  0.00  0.00    +0.000 OA
ENDROOT
BRANCH   1   5
ATOM      4  C   UNL     1       2.127   5.971  20.517  0.00  0.00    +0.000 C 
ATOM      5  C   UNL     1       1.771   4.861  19.853  0.00  0.00    +0.000 C 
BRANCH   4   9
ATOM      6  C   UNL     1       1.462   9.860  18.840  0.00  0.00    +0.000 A 
ATOM      7  C   UNL     1       0.913   9.541  20.080  0.00  0.00    +0.000 A 
ATOM      8  C   UNL     1       1.136   8.292  20.674  0.00  0.00    +0.000 A 
ATOM      9  C   UNL     1       1.892   7.323  19.991  0.00  0.00    +0.000 A 
ATOM     10  C   UNL     1       2.441   7.646  18.726  0.00  0.00    +0.000 A 
ATOM     11  C   UNL     1       2.217   8.907  18.159  0.00  0.00    +0.000 A 
BRANCH   6  13
ATOM     12  C   UNL     1       1.533  12.198  19.227  0.00  0.00    +0.000 C 
ATOM     13  O   UNL     1       1.170  11.115  18.376  0.00  0.00    +0.000 OA
ENDBRANCH   6  13
BRANCH   8  14
ATOM     14  O   UNL     1       0.488   8.138  21.873  0.00  0.00    +0.000 OA
ATOM     15  C   UNL     1       0.282   9.310  22.648  0.00  0.00    +0.000 C 
ENDBRANCH   8  14
BRANCH  10  16
ATOM     16  O   UNL     1       3.179   6.656  18.117  0.00  0.00    +0.000 OA
ATOM     17  C   UNL     1       4.180   7.048  17.188  0.00  0.00    +0.000 C 
ENDBRANCH  10  16
ENDBRANCH   4   9
ENDBRANCH   1   5
BRANCH   1  18
ATOM     18  C   UNL     1       3.914   3.301  20.544  0.00  0.00    +0.000 C 
BRANCH  18  19
ATOM     19  C   UNL     1       4.422   3.514  19.147  0.00  0.00    +0.000 A 
ATOM     20  C   UNL     1       3.714   3.079  18.035  0.00  0.00    +0.000 A 
ATOM     21  C   UNL     1       4.256   3.250  16.761  0.00  0.00    +0.000 A 
ATOM     22  C   UNL     1       5.512   3.838  16.600  0.00  0.00    +0.000 A 
ATOM     23  C   UNL     1       6.174   4.238  17.769  0.00  0.00    +0.000 A 
ATOM     24  N   UNL     1       5.653   4.066  19.031  0.00  0.00    +0.000 NA
BRANCH  23  25
ATOM     25  N   UNL     1       7.509   4.831  17.601  0.00  0.00    +0.000 N 
ATOM     26  O   UNL     1       7.580   6.044  17.356  0.00  0.00    +0.000 OA
ATOM     27  O   UNL     1       8.481   4.072  17.758  0.00  0.00    +0.000 OA
ENDBRANCH  23  25
BRANCH  22  28
ATOM     28  O   UNL     1       6.130   4.001  15.392  0.00  0.00    +0.000 OA
ATOM     29  C   UNL     1       5.644   5.031  14.537  0.00  0.00    +0.000 C 
ENDBRANCH  22  28
ENDBRANCH  18  19
ENDBRANCH   1  18
TORSDOF 9
ENDMDL
MODEL 3
REMARK VINA RESULT:      -6.9      1.944      4.397
REMARK  Name = 
REMARK  13 active torsions:
REMARK  status: ('A' for Active; 'I' for Inactive)
REMARK    1  A    between atoms: C_1  and  O_2
REMARK    2  A    between atoms: O_2  and  C_3
REMARK    3  A    between atoms: C_5  and  O_6
REMARK    4  A    between atoms: O_6  and  C_7
REMARK    5  A    between atoms: C_8  and  C_9
REMARK    6  A    between atoms: C_10  and  S_11
REMARK    7  A    between atoms: S_11  and  C_14
REMARK    8  A    between atoms: C_14  and  C_15
REMARK    9  A    between atoms: C_18  and  O_19
REMARK   10  A    between atoms: O_19  and  C_20
REMARK   11  A    between atoms: C_21  and  N_22
REMARK   12  A    between atoms: C_26  and  O_27
REMARK   13  A    between atoms: O_27  and  C_28
REMARK                            x       y       z     vdW  Elec       q    Type
REMARK                         _______ _______ _______ _____ _____    ______ ____
ROOT
ATOM      1  S   UNL     1       5.759   6.611  16.942  0.00  0.00    +0.000 S 
ATOM      2  O   UNL     1       4.926   6.068  15.881  0.00  0.00    +0.000 OA
ATOM      3  O   UNL     1       6.855   7.506  16.624  0.00  0.00    +0.000 OA
ENDROOT
BRANCH   1   5
ATOM      4  C   UNL     1       3.381   7.453  17.801  0.00  0.00    +0.000 C 
ATOM      5  C   UNL     1       4.695   7.403  18.070  0.00  0.00    +0.000 C 
BRANCH   4   9
ATOM      6  C   UNL     1       0.593   9.170  20.568  0.00  0.00    +0.000 A 
ATOM      7  C   UNL     1       0.979   9.893  19.441  0.00  0.00    +0.000 A 
ATOM      8  C   UNL     1       1.864   9.351  18.499  0.00  0.00    +0.000 A 
ATOM      9  C   UNL     1       2.406   8.071  18.710  0.00  0.00    +0.000 A 
ATOM     10  C   UNL     1       2.019   7.343  19.862  0.00  0.00    +0.000 A 
ATOM     11  C   UNL     1       1.123   7.899  20.783  0.00  0.00    +0.000 A 
BRANCH   6  13
ATOM     12  C   UNL     1      -0.497   9.206  22.673  0.00  0.00    +0.000 C 
ATOM     13  O   UNL     1      -0.279   9.815  21.405  0.00  0.00    +0.000 OA
ENDBRANCH   6  13
BRANCH   8  14
ATOM     14  O   UNL     1       2.162  10.215  17.477  0.00  0.00    +0.000 OA
ATOM     15  C   UNL     1       2.396  11.572  17.827  0.00  0.00    +0.000 C 
ENDBRANCH   8  14
BRANCH  10  16
ATOM     16  O   UNL     1       2.580   6.093  20.003  0.00  0.00    +0.000 OA
ATOM     17  C   UNL     1       1.850   5.115  20.729  0.00  0.00    +0.000 C 
ENDBRANCH  10  16
ENDBRANCH   4   9
ENDBRANCH   1   5
BRANCH   1  18
ATOM     18  C   UNL     1       6.380   5.250  17.910  0.00  0.00    +0.000 C 
BRANCH  18  19
ATOM     19  C   UNL     1       5.281   4.258  18.162  0.00  0.00    +0.000 A 
ATOM     20  C   UNL     1       4.261   4.045  17.245  0.00  0.00    +0.000 A 
ATOM     21  C   UNL     1       3.231   3.154  17.552  0.00  0.00    +0.000 A 
ATOM     22  C   UNL     1       3.212   2.492  18.780  0.00  0.00    +0.000 A 
ATOM     23  C   UNL     1       4.267   2.768  19.660  0.00  0.00    +0.000 A 
ATOM     24  N   UNL     1       5.281   3.652  19.373  0.00  0.00    +0.000 NA
BRANCH  23  25
ATOM     25  N   UNL     1       4.231   2.091  20.966  0.00  0.00    +0.000 N 
ATOM     26  O   UNL     1       5.197   1.382  21.280  0.00  0.00    +0.000 OA
ATOM     27  O   UNL     1       3.241   2.315  21.684  0.00  0.00    +0.000 OA
ENDBRANCH  23  25
BRANCH  22  28
ATOM     28  O   UNL     1       2.219   1.639  19.173  0.00  0.00    +0.000 OA
ATOM     29  C   UNL     1       0.873   2.060  18.977  0.00  0.00    +0.000 C 
ENDBRANCH  22  28
ENDBRANCH  18  19
ENDBRANCH   1  18
TORSDOF 9
ENDMDL
MODEL 4
REMARK VINA RESULT:      -6.8      1.926      4.542
REMARK  Name = 
REMARK  13 active torsions:
REMARK  status: ('A' for Active; 'I' for Inactive)
REMARK    1  A    between atoms: C_1  and  O_2
REMARK    2  A    between atoms: O_2  and  C_3
REMARK    3  A    between atoms: C_5  and  O_6
REMARK    4  A    between atoms: O_6  and  C_7
REMARK    5  A    between atoms: C_8  and  C_9
REMARK    6  A    between atoms: C_10  and  S_11
REMARK    7  A    between atoms: S_11  and  C_14
REMARK    8  A    between atoms: C_14  and  C_15
REMARK    9  A    between atoms: C_18  and  O_19
REMARK   10  A    between atoms: O_19  and  C_20
REMARK   11  A    between atoms: C_21  and  N_22
REMARK   12  A    between atoms: C_26  and  O_27
REMARK   13  A    between atoms: O_27  and  C_28
REMARK                            x       y       z     vdW  Elec       q    Type
REMARK                         _______ _______ _______ _____ _____    ______ ____
ROOT
ATOM      1  S   UNL     1       5.702   6.584  16.743  0.00  0.00    +0.000 S 
ATOM      2  O   UNL     1       4.915   6.323  15.548  0.00  0.00    +0.000 OA
ATOM      3  O   UNL     1       6.786   7.545  16.709  0.00  0.00    +0.000 OA
ENDROOT
BRANCH   1   5
ATOM      4  C   UNL     1       3.510   7.780  17.677  0.00  0.00    +0.000 C 
ATOM      5  C   UNL     1       4.584   7.041  17.997  0.00  0.00    +0.000 C 
BRANCH   4   9
ATOM      6  C   UNL     1       0.501   9.057  20.450  0.00  0.00    +0.000 A 
ATOM      7  C   UNL     1       1.066   7.790  20.581  0.00  0.00    +0.000 A 
ATOM      8  C   UNL     1       2.074   7.350  19.712  0.00  0.00    +0.000 A 
ATOM      9  C   UNL     1       2.499   8.184  18.663  0.00  0.00    +0.000 A 
ATOM     10  C   UNL     1       1.917   9.468  18.527  0.00  0.00    +0.000 A 
ATOM     11  C   UNL     1       0.920   9.891  19.415  0.00  0.00    +0.000 A 
BRANCH   6  13
ATOM     12  C   UNL     1      -0.414   8.650  22.599  0.00  0.00    +0.000 C 
ATOM     13  O   UNL     1      -0.470   9.361  21.366  0.00  0.00    +0.000 OA
ENDBRANCH   6  13
BRANCH   8  14
ATOM     14  O   UNL     1       2.483   6.066  19.963  0.00  0.00    +0.000 OA
ATOM     15  C   UNL     1       1.626   5.260  20.758  0.00  0.00    +0.000 C 
ENDBRANCH   8  14
BRANCH  10  16
ATOM     16  O   UNL     1       2.386  10.236  17.484  0.00  0.00    +0.000 OA
ATOM     17  C   UNL     1       2.575  11.625  17.715  0.00  0.00    +0.000 C 
ENDBRANCH  10  16
ENDBRANCH   4   9
ENDBRANCH   1   5
BRANCH   1  18
ATOM     18  C   UNL     1       6.321   5.026  17.348  0.00  0.00    +0.000 C 
BRANCH  18  19
ATOM     19  C   UNL     1       5.177   4.149  17.769  0.00  0.00    +0.000 A 
ATOM     20  C   UNL     1       4.058   3.969  16.968  0.00  0.00    +0.000 A 
ATOM     21  C   UNL     1       2.996   3.189  17.430  0.00  0.00    +0.000 A 
ATOM     22  C   UNL     1       3.046   2.606  18.697  0.00  0.00    +0.000 A 
ATOM     23  C   UNL     1       4.201   2.844  19.454  0.00  0.00    +0.000 A 
ATOM     24  N   UNL     1       5.250   3.618  19.013  0.00  0.00    +0.000 NA
BRANCH  23  25
ATOM     25  N   UNL     1       4.241   2.252  20.800  0.00  0.00    +0.000 N 
ATOM     26  O   UNL     1       5.245   1.600  21.119  0.00  0.00    +0.000 OA
ATOM     27  O   UNL     1       3.271   2.486  21.541  0.00  0.00    +0.000 OA
ENDBRANCH  23  25
BRANCH  22  28
ATOM     28  O   UNL     1       2.032   1.866  19.238  0.00  0.00    +0.000 OA
ATOM     29  C   UNL     1       0.698   2.225  18.893  0.00  0.00    +0.000 C 
ENDBRANCH  22  28
ENDBRANCH  18  19
ENDBRANCH   1  18
TORSDOF 9
ENDMDL
MODEL 5
REMARK VINA RESULT:      -6.5      3.710      8.554
REMARK  Name = 
REMARK  13 active torsions:
REMARK  status: ('A' for Active; 'I' for Inactive)
REMARK    1  A    between atoms: C_1  and  O_2
REMARK    2  A    between atoms: O_2  and  C_3
REMARK    3  A    between atoms: C_5  and  O_6
REMARK    4  A    between atoms: O_6  and  C_7
REMARK    5  A    between atoms: C_8  and  C_9
REMARK    6  A    between atoms: C_10  and  S_11
REMARK    7  A    between atoms: S_11  and  C_14
REMARK    8  A    between atoms: C_14  and  C_15
REMARK    9  A    between atoms: C_18  and  O_19
REMARK   10  A    between atoms: O_19  and  C_20
REMARK   11  A    between atoms: C_21  and  N_22
REMARK   12  A    between atoms: C_26  and  O_27
REMARK   13  A    between atoms: O_27  and  C_28
REMARK                            x       y       z     vdW  Elec       q    Type
REMARK                         _______ _______ _______ _____ _____    ______ ____
ROOT
ATOM      1  S   UNL     1       1.384   9.585  18.562  0.00  0.00    +0.000 S 
ATOM      2  O   UNL     1       2.133  10.831  18.507  0.00  0.00    +0.000 OA
ATOM      3  O   UNL     1       0.006   9.541  18.112  0.00  0.00    +0.000 OA
ENDROOT
BRANCH   1   5
ATOM      4  C   UNL     1       2.957   7.444  18.357  0.00  0.00    +0.000 C 
ATOM      5  C   UNL     1       2.303   8.400  17.679  0.00  0.00    +0.000 C 
BRANCH   4   9
ATOM      6  C   UNL     1       5.081   4.286  16.383  0.00  0.00    +0.000 A 
ATOM      7  C   UNL     1       5.678   5.537  16.520  0.00  0.00    +0.000 A 
ATOM      8  C   UNL     1       5.027   6.584  17.188  0.00  0.00    +0.000 A 
ATOM      9  C   UNL     1       3.730   6.385  17.694  0.00  0.00    +0.000 A 
ATOM     10  C   UNL     1       3.122   5.115  17.544  0.00  0.00    +0.000 A 
ATOM     11  C   UNL     1       3.798   4.080  16.886  0.00  0.00    +0.000 A 
BRANCH   6  13
ATOM     12  C   UNL     1       6.364   3.761  14.459  0.00  0.00    +0.000 C 
ATOM     13  O   UNL     1       5.827   3.353  15.714  0.00  0.00    +0.000 OA
ENDBRANCH   6  13
BRANCH   8  14
ATOM     14  O   UNL     1       5.745   7.752  17.193  0.00  0.00    +0.000 OA
ATOM     15  C   UNL     1       7.147   7.647  17.396  0.00  0.00    +0.000 C 
ENDBRANCH   8  14
BRANCH  10  16
ATOM     16  O   UNL     1       1.856   4.986  18.071  0.00  0.00    +0.000 OA
ATOM     17  C   UNL     1       1.481   3.720  18.596  0.00  0.00    +0.000 C 
ENDBRANCH  10  16
ENDBRANCH   4   9
ENDBRANCH   1   5
BRANCH   1  18
ATOM     18  C   UNL     1       1.474   8.958  20.228  0.00  0.00    +0.000 C 
BRANCH  18  19
ATOM     19  C   UNL     1       0.664   9.829  21.146  0.00  0.00    +0.000 A 
ATOM     20  C   UNL     1      -0.199   9.293  22.093  0.00  0.00    +0.000 A 
ATOM     21  C   UNL     1      -0.971  10.146  22.884  0.00  0.00    +0.000 A 
ATOM     22  C   UNL     1      -0.894  11.529  22.715  0.00  0.00    +0.000 A 
ATOM     23  C   UNL     1      -0.012  11.995  21.730  0.00  0.00    +0.000 A 
ATOM     24  N   UNL     1       0.747  11.164  20.939  0.00  0.00    +0.000 NA
BRANCH  23  25
ATOM     25  N   UNL     1       0.047  13.452  21.534  0.00  0.00    +0.000 N 
ATOM     26  O   UNL     1       0.888  14.092  22.182  0.00  0.00    +0.000 OA
ATOM     27  O   UNL     1      -0.732  13.934  20.694  0.00  0.00    +0.000 OA
ENDBRANCH  23  25
BRANCH  22  28
ATOM     28  O   UNL     1      -1.647  12.428  23.418  0.00  0.00    +0.000 OA
ATOM     29  C   UNL     1      -3.061  12.255  23.405  0.00  0.00    +0.000 C 
ENDBRANCH  22  28
ENDBRANCH  18  19
ENDBRANCH   1  18
TORSDOF 9
ENDMDL
MODEL 6
REMARK VINA RESULT:      -6.4      4.007      8.528
REMARK  Name = 
REMARK  13 active torsions:
REMARK  status: ('A' for Active; 'I' for Inactive)
REMARK    1  A    between atoms: C_1  and  O_2
REMARK    2  A    between atoms: O_2  and  C_3
REMARK    3  A    between atoms: C_5  and  O_6
REMARK    4  A    between atoms: O_6  and  C_7
REMARK    5  A    between atoms: C_8  and  C_9
REMARK    6  A    between atoms: C_10  and  S_11
REMARK    7  A    between atoms: S_11  and  C_14
REMARK    8  A    between atoms: C_14  and  C_15
REMARK    9  A    between atoms: C_18  and  O_19
REMARK   10  A    between atoms: O_19  and  C_20
REMARK   11  A    between atoms: C_21  and  N_22
REMARK   12  A    between atoms: C_26  and  O_27
REMARK   13  A    between atoms: O_27  and  C_28
REMARK                            x       y       z     vdW  Elec       q    Type
REMARK                         _______ _______ _______ _____ _____    ______ ____
ROOT
ATOM      1  S   UNL     1       0.619   9.460  22.105  0.00  0.00    +0.000 S 
ATOM      2  O   UNL     1      -0.771   9.413  22.530  0.00  0.00    +0.000 OA
ATOM      3  O   UNL     1       1.685   9.434  23.088  0.00  0.00    +0.000 OA
ENDROOT
BRANCH   1   5
ATOM      4  C   UNL     1       2.102   7.734  20.717  0.00  0.00    +0.000 C 
ATOM      5  C   UNL     1       0.854   8.148  20.985  0.00  0.00    +0.000 C 
BRANCH   4   9
ATOM      6  C   UNL     1       3.037   4.561  17.990  0.00  0.00    +0.000 A 
ATOM      7  C   UNL     1       2.672   4.259  19.300  0.00  0.00    +0.000 A 
ATOM      8  C   UNL     1       2.329   5.268  20.210  0.00  0.00    +0.000 A 
ATOM      9  C   UNL     1       2.392   6.614  19.811  0.00  0.00    +0.000 A 
ATOM     10  C   UNL     1       2.773   6.920  18.482  0.00  0.00    +0.000 A 
ATOM     11  C   UNL     1       3.098   5.894  17.585  0.00  0.00    +0.000 A 
BRANCH   6  13
ATOM     12  C   UNL     1       2.695   2.260  17.538  0.00  0.00    +0.000 C 
ATOM     13  O   UNL     1       3.344   3.482  17.205  0.00  0.00    +0.000 OA
ENDBRANCH   6  13
BRANCH   8  14
ATOM     14  O   UNL     1       2.035   4.791  21.462  0.00  0.00    +0.000 OA
ATOM     15  C   UNL     1       1.833   3.390  21.587  0.00  0.00    +0.000 C 
ENDBRANCH   8  14
BRANCH  10  16
ATOM     16  O   UNL     1       2.805   8.257  18.155  0.00  0.00    +0.000 OA
ATOM     17  C   UNL     1       1.644   8.826  17.567  0.00  0.00    +0.000 C 
ENDBRANCH  10  16
ENDBRANCH   4   9
ENDBRANCH   1   5
BRANCH   1  18
ATOM     18  C   UNL     1       0.829  10.885  21.055  0.00  0.00    +0.000 C 
BRANCH  18  19
ATOM     19  C   UNL     1      -0.501  11.315  20.505  0.00  0.00    +0.000 A 
ATOM     20  C   UNL     1      -1.324  12.202  21.186  0.00  0.00    +0.000 A 
ATOM     21  C   UNL     1      -2.575  12.526  20.658  0.00  0.00    +0.000 A 
ATOM     22  C   UNL     1      -3.009  11.950  19.463  0.00  0.00    +0.000 A 
ATOM     23  C   UNL     1      -2.130  11.054  18.841  0.00  0.00    +0.000 A 
ATOM     24  N   UNL     1      -0.898  10.720  19.356  0.00  0.00    +0.000 NA
BRANCH  23  25
ATOM     25  N   UNL     1      -2.599  10.426  17.596  0.00  0.00    +0.000 N 
ATOM     26  O   UNL     1      -3.238   9.368  17.682  0.00  0.00    +0.000 OA
ATOM     27  O   UNL     1      -2.352  11.032  16.538  0.00  0.00    +0.000 OA
ENDBRANCH  23  25
BRANCH  22  28
ATOM     28  O   UNL     1      -4.235  12.181  18.904  0.00  0.00    +0.000 OA
ATOM     29  C   UNL     1      -5.201  12.866  19.696  0.00  0.00    +0.000 C 
ENDBRANCH  22  28
ENDBRANCH  18  19
ENDBRANCH   1  18
TORSDOF 9
ENDMDL
MODEL 7
REMARK VINA RESULT:      -6.3      4.382      8.666
REMARK  Name = 
REMARK  13 active torsions:
REMARK  status: ('A' for Active; 'I' for Inactive)
REMARK    1  A    between atoms: C_1  and  O_2
REMARK    2  A    between atoms: O_2  and  C_3
REMARK    3  A    between atoms: C_5  and  O_6
REMARK    4  A    between atoms: O_6  and  C_7
REMARK    5  A    between atoms: C_8  and  C_9
REMARK    6  A    between atoms: C_10  and  S_11
REMARK    7  A    between atoms: S_11  and  C_14
REMARK    8  A    between atoms: C_14  and  C_15
REMARK    9  A    between atoms: C_18  and  O_19
REMARK   10  A    between atoms: O_19  and  C_20
REMARK   11  A    between atoms: C_21  and  N_22
REMARK   12  A    between atoms: C_26  and  O_27
REMARK   13  A    between atoms: O_27  and  C_28
REMARK                            x       y       z     vdW  Elec       q    Type
REMARK                         _______ _______ _______ _____ _____    ______ ____
ROOT
ATOM      1  S   UNL     1       0.513   9.320  22.248  0.00  0.00    +0.000 S 
ATOM      2  O   UNL     1      -0.796   8.750  21.971  0.00  0.00    +0.000 OA
ATOM      3  O   UNL     1       0.915   9.598  23.613  0.00  0.00    +0.000 OA
ENDROOT
BRANCH   1   5
ATOM      4  C   UNL     1       1.280   7.334  20.645  0.00  0.00    +0.000 C 
ATOM      5  C   UNL     1       1.691   8.267  21.518  0.00  0.00    +0.000 C 
BRANCH   4   9
ATOM      6  C   UNL     1       4.063   4.802  18.591  0.00  0.00    +0.000 A 
ATOM      7  C   UNL     1       3.348   4.301  19.676  0.00  0.00    +0.000 A 
ATOM      8  C   UNL     1       2.406   5.090  20.352  0.00  0.00    +0.000 A 
ATOM      9  C   UNL     1       2.206   6.424  19.957  0.00  0.00    +0.000 A 
ATOM     10  C   UNL     1       2.942   6.933  18.859  0.00  0.00    +0.000 A 
ATOM     11  C   UNL     1       3.868   6.122  18.191  0.00  0.00    +0.000 A 
BRANCH   6  13
ATOM     12  C   UNL     1       5.263   4.155  16.651  0.00  0.00    +0.000 C 
ATOM     13  O   UNL     1       4.947   3.925  18.020  0.00  0.00    +0.000 OA
ENDBRANCH   6  13
BRANCH   8  14
ATOM     14  O   UNL     1       1.826   4.448  21.416  0.00  0.00    +0.000 OA
ATOM     15  C   UNL     1       1.899   3.030  21.432  0.00  0.00    +0.000 C 
ENDBRANCH   8  14
BRANCH  10  16
ATOM     16  O   UNL     1       2.691   8.244  18.520  0.00  0.00    +0.000 OA
ATOM     17  C   UNL     1       1.774   8.493  17.464  0.00  0.00    +0.000 C 
ENDBRANCH  10  16
ENDBRANCH   4   9
ENDBRANCH   1   5
BRANCH   1  18
ATOM     18  C   UNL     1       0.688  10.803  21.275  0.00  0.00    +0.000 C 
BRANCH  18  19
ATOM     19  C   UNL     1      -0.542  11.014  20.439  0.00  0.00    +0.000 A 
ATOM     20  C   UNL     1      -0.681  10.439  19.183  0.00  0.00    +0.000 A 
ATOM     21  C   UNL     1      -1.819  10.711  18.421  0.00  0.00    +0.000 A 
ATOM     22  C   UNL     1      -2.805  11.571  18.907  0.00  0.00    +0.000 A 
ATOM     23  C   UNL     1      -2.588  12.125  20.176  0.00  0.00    +0.000 A 
ATOM     24  N   UNL     1      -1.466  11.871  20.931  0.00  0.00    +0.000 NA
BRANCH  23  25
ATOM     25  N   UNL     1      -3.614  13.053  20.675  0.00  0.00    +0.000 N 
ATOM     26  O   UNL     1      -4.640  12.571  21.176  0.00  0.00    +0.000 OA
ATOM     27  O   UNL     1      -3.357  14.267  20.593  0.00  0.00    +0.000 OA
ENDBRANCH  23  25
BRANCH  22  28
ATOM     28  O   UNL     1      -3.925  11.922  18.207  0.00  0.00    +0.000 OA
ATOM     29  C   UNL     1      -4.087  11.372  16.903  0.00  0.00    +0.000 C 
ENDBRANCH  22  28
ENDBRANCH  18  19
ENDBRANCH   1  18
TORSDOF 9
ENDMDL
MODEL 8
REMARK VINA RESULT:      -6.3      4.602      9.334
REMARK  Name = 
REMARK  13 active torsions:
REMARK  status: ('A' for Active; 'I' for Inactive)
REMARK    1  A    between atoms: C_1  and  O_2
REMARK    2  A    between atoms: O_2  and  C_3
REMARK    3  A    between atoms: C_5  and  O_6
REMARK    4  A    between atoms: O_6  and  C_7
REMARK    5  A    between atoms: C_8  and  C_9
REMARK    6  A    between atoms: C_10  and  S_11
REMARK    7  A    between atoms: S_11  and  C_14
REMARK    8  A    between atoms: C_14  and  C_15
REMARK    9  A    between atoms: C_18  and  O_19
REMARK   10  A    between atoms: O_19  and  C_20
REMARK   11  A    between atoms: C_21  and  N_22
REMARK   12  A    between atoms: C_26  and  O_27
REMARK   13  A    between atoms: O_27  and  C_28
REMARK                            x       y       z     vdW  Elec       q    Type
REMARK                         _______ _______ _______ _____ _____    ______ ____
ROOT
ATOM      1  S   UNL     1       0.515   9.214  22.174  0.00  0.00    +0.000 S 
ATOM      2  O   UNL     1      -0.803   8.630  21.980  0.00  0.00    +0.000 OA
ATOM      3  O   UNL     1       1.017   9.456  23.512  0.00  0.00    +0.000 OA
ENDROOT
BRANCH   1   5
ATOM      4  C   UNL     1       1.210   7.075  20.743  0.00  0.00    +0.000 C 
ATOM      5  C   UNL     1       1.649   8.205  21.321  0.00  0.00    +0.000 C 
BRANCH   4   9
ATOM      6  C   UNL     1       3.829   4.588  18.433  0.00  0.00    +0.000 A 
ATOM      7  C   UNL     1       3.391   4.155  19.683  0.00  0.00    +0.000 A 
ATOM      8  C   UNL     1       2.510   4.927  20.452  0.00  0.00    +0.000 A 
ATOM      9  C   UNL     1       2.088   6.181  19.977  0.00  0.00    +0.000 A 
ATOM     10  C   UNL     1       2.542   6.623  18.710  0.00  0.00    +0.000 A 
ATOM     11  C   UNL     1       3.412   5.828  17.953  0.00  0.00    +0.000 A 
BRANCH   6  13
ATOM     12  C   UNL     1       4.955   4.037  16.422  0.00  0.00    +0.000 C 
ATOM     13  O   UNL     1       4.684   3.737  17.786  0.00  0.00    +0.000 OA
ENDBRANCH   6  13
BRANCH   8  14
ATOM     14  O   UNL     1       2.217   4.364  21.668  0.00  0.00    +0.000 OA
ATOM     15  C   UNL     1       1.840   2.995  21.672  0.00  0.00    +0.000 C 
ENDBRANCH   8  14
BRANCH  10  16
ATOM     16  O   UNL     1       2.084   7.856  18.301  0.00  0.00    +0.000 OA
ATOM     17  C   UNL     1       2.971   8.682  17.559  0.00  0.00    +0.000 C 
ENDBRANCH  10  16
ENDBRANCH   4   9
ENDBRANCH   1   5
BRANCH   1  18
ATOM     18  C   UNL     1       0.591  10.730  21.239  0.00  0.00    +0.000 C 
BRANCH  18  19
ATOM     19  C   UNL     1      -0.764  11.375  21.199  0.00  0.00    +0.000 A 
ATOM     20  C   UNL     1      -1.381  11.712  20.002  0.00  0.00    +0.000 A 
ATOM     21  C   UNL     1      -2.617  12.361  20.021  0.00  0.00    +0.000 A 
ATOM     22  C   UNL     1      -3.225  12.688  21.233  0.00  0.00    +0.000 A 
ATOM     23  C   UNL     1      -2.536  12.330  22.400  0.00  0.00    +0.000 A 
ATOM     24  N   UNL     1      -1.313  11.698  22.393  0.00  0.00    +0.000 NA
BRANCH  23  25
ATOM     25  N   UNL     1      -3.164  12.700  23.677  0.00  0.00    +0.000 N 
ATOM     26  O   UNL     1      -3.954  11.896  24.192  0.00  0.00    +0.000 OA
ATOM     27  O   UNL     1      -2.822  13.788  24.173  0.00  0.00    +0.000 OA
ENDBRANCH  23  25
BRANCH  22  28
ATOM     28  O   UNL     1      -4.410  13.361  21.337  0.00  0.00    +0.000 OA
ATOM     29  C   UNL     1      -4.418  14.741  20.983  0.00  0.00    +0.000 C 
ENDBRANCH  22  28
ENDBRANCH  18  19
ENDBRANCH   1  18
TORSDOF 9
ENDMDL
MODEL 9
REMARK VINA RESULT:      -6.3      3.354      5.553
REMARK  Name = 
REMARK  13 active torsions:
REMARK  status: ('A' for Active; 'I' for Inactive)
REMARK    1  A    between atoms: C_1  and  O_2
REMARK    2  A    between atoms: O_2  and  C_3
REMARK    3  A    between atoms: C_5  and  O_6
REMARK    4  A    between atoms: O_6  and  C_7
REMARK    5  A    between atoms: C_8  and  C_9
REMARK    6  A    between atoms: C_10  and  S_11
REMARK    7  A    between atoms: S_11  and  C_14
REMARK    8  A    between atoms: C_14  and  C_15
REMARK    9  A    between atoms: C_18  and  O_19
REMARK   10  A    between atoms: O_19  and  C_20
REMARK   11  A    between atoms: C_21  and  N_22
REMARK   12  A    between atoms: C_26  and  O_27
REMARK   13  A    between atoms: O_27  and  C_28
REMARK                            x       y       z     vdW  Elec       q    Type
REMARK                         _______ _______ _______ _____ _____    ______ ____
ROOT
ATOM      1  S   UNL     1       1.293   9.395  18.501  0.00  0.00    +0.000 S 
ATOM      2  O   UNL     1       0.789   8.721  17.315  0.00  0.00    +0.000 OA
ATOM      3  O   UNL     1       2.219  10.504  18.374  0.00  0.00    +0.000 OA
ENDROOT
BRANCH   1   5
ATOM      4  C   UNL     1      -0.020  11.067  20.109  0.00  0.00    +0.000 C 
ATOM      5  C   UNL     1      -0.093   9.921  19.414  0.00  0.00    +0.000 C 
BRANCH   4   9
ATOM      6  C   UNL     1      -3.220  12.650  22.482  0.00  0.00    +0.000 A 
ATOM      7  C   UNL     1      -3.276  12.752  21.093  0.00  0.00    +0.000 A 
ATOM      8  C   UNL     1      -2.264  12.218  20.284  0.00  0.00    +0.000 A 
ATOM      9  C   UNL     1      -1.149  11.603  20.881  0.00  0.00    +0.000 A 
ATOM     10  C   UNL     1      -1.090  11.510  22.293  0.00  0.00    +0.000 A 
ATOM     11  C   UNL     1      -2.120  12.039  23.081  0.00  0.00    +0.000 A 
BRANCH   6  13
ATOM     12  C   UNL     1      -3.944  14.142  24.175  0.00  0.00    +0.000 C 
ATOM     13  O   UNL     1      -4.275  13.210  23.151  0.00  0.00    +0.000 OA
ENDBRANCH   6  13
BRANCH   8  14
ATOM     14  O   UNL     1      -2.464  12.444  18.946  0.00  0.00    +0.000 OA
ATOM     15  C   UNL     1      -3.294  11.523  18.254  0.00  0.00    +0.000 C 
ENDBRANCH   8  14
BRANCH  10  16
ATOM     16  O   UNL     1       0.024  10.888  22.811  0.00  0.00    +0.000 OA
ATOM     17  C   UNL     1      -0.114   9.551  23.271  0.00  0.00    +0.000 C 
ENDBRANCH  10  16
ENDBRANCH   4   9
ENDBRANCH   1   5
BRANCH   1  18
ATOM     18  C   UNL     1       2.002   8.164  19.578  0.00  0.00    +0.000 C 
BRANCH  18  19
ATOM     19  C   UNL     1       2.737   7.137  18.765  0.00  0.00    +0.000 A 
ATOM     20  C   UNL     1       3.718   7.491  17.850  0.00  0.00    +0.000 A 
ATOM     21  C   UNL     1       4.332   6.502  17.078  0.00  0.00    +0.000 A 
ATOM     22  C   UNL     1       3.952   5.166  17.210  0.00  0.00    +0.000 A 
ATOM     23  C   UNL     1       2.944   4.887  18.143  0.00  0.00    +0.000 A 
ATOM     24  N   UNL     1       2.326   5.854  18.902  0.00  0.00    +0.000 NA
BRANCH  23  25
ATOM     25  N   UNL     1       2.525   3.482  18.260  0.00  0.00    +0.000 N 
ATOM     26  O   UNL     1       3.132   2.758  19.062  0.00  0.00    +0.000 OA
ATOM     27  O   UNL     1       1.554   3.129  17.568  0.00  0.00    +0.000 OA
ENDBRANCH  23  25
BRANCH  22  28
ATOM     28  O   UNL     1       4.472   4.147  16.462  0.00  0.00    +0.000 OA
ATOM     29  C   UNL     1       5.429   4.484  15.462  0.00  0.00    +0.000 C 
ENDBRANCH  22  28
ENDBRANCH  18  19
ENDBRANCH   1  18
TORSDOF 9
ENDMDL
