MODEL 1
REMARK VINA RESULT:      -6.6      0.000      0.000
REMARK  Name = 
REMARK  6 active torsions:
REMARK  status: ('A' for Active; 'I' for Inactive)
REMARK    1  A    between atoms: C_1  and  C_2
REMARK    2  A    between atoms: C_2  and  O_3
REMARK    3  A    between atoms: C_2  and  C_4
REMARK    4  A    between atoms: C_2  and  C_6
REMARK    5  A    between atoms: C_4  and  O_5
REMARK    6  A    between atoms: C_20  and  O_21
REMARK                            x       y       z     vdW  Elec       q    Type
REMARK                         _______ _______ _______ _____ _____    ______ ____
ROOT
ATOM      1  C   UNL     1      -6.207  12.270  20.593  0.00  0.00    +0.000 A 
ATOM      2  C   UNL     1      -5.281  13.268  20.333  0.00  0.00    +0.000 A 
ATOM      3  C   UNL     1      -4.710  13.443  21.566  0.00  0.00    +0.000 A 
ATOM      4  C   UNL     1      -3.316  13.321  21.634  0.00  0.00    +0.000 A 
ATOM      5  C   UNL     1      -2.746  13.212  22.907  0.00  0.00    +0.000 A 
ATOM      6  C   UNL     1      -3.499  13.081  24.078  0.00  0.00    +0.000 A 
ATOM      7  C   UNL     1      -4.878  12.769  23.892  0.00  0.00    +0.000 A 
ATOM      8  C   UNL     1      -5.367  12.822  22.584  0.00  0.00    +0.000 A 
ATOM      9  O   UNL     1      -6.396  12.118  21.972  0.00  0.00    +0.000 OA
ATOM     10  C   UNL     1      -1.316  12.811  22.706  0.00  0.00    +0.000 C 
ATOM     11  C   UNL     1      -0.362  13.969  22.404  0.00  0.00    +0.000 C 
ATOM     12  O   UNL     1       0.888  13.541  21.828  0.00  0.00    +0.000 OA
ATOM     13  C   UNL     1       0.763  12.740  20.712  0.00  0.00    +0.000 A 
ATOM     14  C   UNL     1       1.818  12.718  19.801  0.00  0.00    +0.000 A 
ATOM     15  C   UNL     1       1.726  11.919  18.661  0.00  0.00    +0.000 A 
ATOM     16  C   UNL     1       0.629  11.098  18.438  0.00  0.00    +0.000 A 
ATOM     17  C   UNL     1      -0.418  11.113  19.352  0.00  0.00    +0.000 A 
ATOM     18  C   UNL     1      -0.356  11.949  20.481  0.00  0.00    +0.000 A 
ATOM     19  C   UNL     1      -1.538  12.070  21.364  0.00  0.00    +0.000 C 
ATOM     20  O   UNL     1      -2.508  12.870  20.614  0.00  0.00    +0.000 OA
ENDROOT
BRANCH   1  22
ATOM     21  C   UNL     1      -7.275   9.988  20.259  0.00  0.00    +0.000 C 
ATOM     22  C   UNL     1      -6.747  11.263  19.616  0.00  0.00    +0.000 C 
BRANCH  22  23
ATOM     23  O   UNL     1      -7.816  11.906  18.916  0.00  0.00    +0.000 OA
ATOM     24  H   UNL     1      -7.661  12.865  19.022  0.00  0.00    +0.000 HD
ENDBRANCH  22  23
BRANCH  22  25
ATOM     25  C   UNL     1      -5.629  10.906  18.577  0.00  0.00    +0.000 C 
BRANCH  25  26
ATOM     26  O   UNL     1      -6.003  11.304  17.254  0.00  0.00    +0.000 OA
ATOM     27  H   UNL     1      -5.213  11.224  16.693  0.00  0.00    +0.000 HD
ENDBRANCH  25  26
ENDBRANCH  22  25
ENDBRANCH   1  22
BRANCH  15  28
ATOM     28  O   UNL     1       2.698  11.926  17.705  0.00  0.00    +0.000 OA
ATOM     29  H   UNL     1       3.023  11.016  17.595  0.00  0.00    +0.000 HD
ENDBRANCH  15  28
TORSDOF 5
ENDMDL
MODEL 2
REMARK VINA RESULT:      -6.5      2.754      5.805
REMARK  Name = 
REMARK  6 active torsions:
REMARK  status: ('A' for Active; 'I' for Inactive)
REMARK    1  A    between atoms: C_1  and  C_2
REMARK    2  A    between atoms: C_2  and  O_3
REMARK    3  A    between atoms: C_2  and  C_4
REMARK    4  A    between atoms: C_2  and  C_6
REMARK    5  A    between atoms: C_4  and  O_5
REMARK    6  A    between atoms: C_20  and  O_21
REMARK                            x       y       z     vdW  Elec       q    Type
REMARK                         _______ _______ _______ _____ _____    ______ ____
ROOT
ATOM      1  C   UNL     1      -4.959  11.250  17.880  0.00  0.00    +0.000 A 
ATOM      2  C   UNL     1      -5.589  12.436  18.221  0.00  0.00    +0.000 A 
ATOM      3  C   UNL     1      -6.518  12.005  19.131  0.00  0.00    +0.000 A 
ATOM      4  C   UNL     1      -6.499  12.625  20.387  0.00  0.00    +0.000 A 
ATOM      5  C   UNL     1      -7.234  12.016  21.411  0.00  0.00    +0.000 A 
ATOM      6  C   UNL     1      -7.855  10.771  21.275  0.00  0.00    +0.000 A 
ATOM      7  C   UNL     1      -7.464  10.008  20.136  0.00  0.00    +0.000 A 
ATOM      8  C   UNL     1      -6.666  10.653  19.187  0.00  0.00    +0.000 A 
ATOM      9  O   UNL     1      -5.710  10.150  18.314  0.00  0.00    +0.000 OA
ATOM     10  C   UNL     1      -6.829  12.687  22.689  0.00  0.00    +0.000 C 
ATOM     11  C   UNL     1      -7.557  14.002  22.980  0.00  0.00    +0.000 C 
ATOM     12  O   UNL     1      -6.890  14.814  23.968  0.00  0.00    +0.000 OA
ATOM     13  C   UNL     1      -5.562  15.069  23.700  0.00  0.00    +0.000 A 
ATOM     14  C   UNL     1      -4.993  16.217  24.249  0.00  0.00    +0.000 A 
ATOM     15  C   UNL     1      -3.651  16.507  24.000  0.00  0.00    +0.000 A 
ATOM     16  C   UNL     1      -2.849  15.646  23.263  0.00  0.00    +0.000 A 
ATOM     17  C   UNL     1      -3.414  14.496  22.725  0.00  0.00    +0.000 A 
ATOM     18  C   UNL     1      -4.776  14.218  22.931  0.00  0.00    +0.000 A 
ATOM     19  C   UNL     1      -5.402  13.074  22.229  0.00  0.00    +0.000 C 
ATOM     20  O   UNL     1      -5.524  13.490  20.831  0.00  0.00    +0.000 OA
ENDROOT
BRANCH   1  22
ATOM     21  C   UNL     1      -3.070   9.641  17.327  0.00  0.00    +0.000 C 
ATOM     22  C   UNL     1      -3.549  11.085  17.387  0.00  0.00    +0.000 C 
BRANCH  22  23
ATOM     23  O   UNL     1      -3.512  11.640  16.068  0.00  0.00    +0.000 OA
ATOM     24  H   UNL     1      -4.209  12.323  16.050  0.00  0.00    +0.000 HD
ENDBRANCH  22  23
BRANCH  22  25
ATOM     25  C   UNL     1      -2.586  11.923  18.295  0.00  0.00    +0.000 C 
BRANCH  25  26
ATOM     26  O   UNL     1      -1.497  12.463  17.541  0.00  0.00    +0.000 OA
ATOM     27  H   UNL     1      -0.811  12.735  18.174  0.00  0.00    +0.000 HD
ENDBRANCH  25  26
ENDBRANCH  22  25
ENDBRANCH   1  22
BRANCH  15  28
ATOM     28  O   UNL     1      -3.074  17.657  24.449  0.00  0.00    +0.000 OA
ATOM     29  H   UNL     1      -2.262  17.811  23.936  0.00  0.00    +0.000 HD
ENDBRANCH  15  28
TORSDOF 5
ENDMDL
MODEL 3
REMARK VINA RESULT:      -6.4      3.777      5.405
REMARK  Name = 
REMARK  6 active torsions:
REMARK  status: ('A' for Active; 'I' for Inactive)
REMARK    1  A    between atoms: C_1  and  C_2
REMARK    2  A    between atoms: C_2  and  O_3
REMARK    3  A    between atoms: C_2  and  C_4
REMARK    4  A    between atoms: C_2  and  C_6
REMARK    5  A    between atoms: C_4  and  O_5
REMARK    6  A    between atoms: C_20  and  O_21
REMARK                            x       y       z     vdW  Elec       q    Type
REMARK                         _______ _______ _______ _____ _____    ______ ____
ROOT
ATOM      1  C   UNL     1      -0.020  15.226  20.476  0.00  0.00    +0.000 A 
ATOM      2  C   UNL     1       0.943  14.399  21.033  0.00  0.00    +0.000 A 
ATOM      3  C   UNL     1       0.187  13.617  21.866  0.00  0.00    +0.000 A 
ATOM      4  C   UNL     1       0.294  12.230  21.692  0.00  0.00    +0.000 A 
ATOM      5  C   UNL     1      -0.665  11.431  22.324  0.00  0.00    +0.000 A 
ATOM      6  C   UNL     1      -1.781  11.950  22.988  0.00  0.00    +0.000 A 
ATOM      7  C   UNL     1      -2.057  13.327  22.746  0.00  0.00    +0.000 A 
ATOM      8  C   UNL     1      -1.091  14.052  22.041  0.00  0.00    +0.000 A 
ATOM      9  O   UNL     1      -1.216  15.150  21.201  0.00  0.00    +0.000 OA
ATOM     10  C   UNL     1      -0.512  10.050  21.762  0.00  0.00    +0.000 C 
ATOM     11  C   UNL     1       0.586   9.210  22.419  0.00  0.00    +0.000 C 
ATOM     12  O   UNL     1       0.983   8.073  21.625  0.00  0.00    +0.000 OA
ATOM     13  C   UNL     1       1.343   8.374  20.329  0.00  0.00    +0.000 A 
ATOM     14  C   UNL     1       2.214   7.505  19.673  0.00  0.00    +0.000 A 
ATOM     15  C   UNL     1       2.599   7.778  18.360  0.00  0.00    +0.000 A 
ATOM     16  C   UNL     1       2.090   8.868  17.668  0.00  0.00    +0.000 A 
ATOM     17  C   UNL     1       1.213   9.728  18.318  0.00  0.00    +0.000 A 
ATOM     18  C   UNL     1       0.854   9.488  19.656  0.00  0.00    +0.000 A 
ATOM     19  C   UNL     1       0.043  10.490  20.385  0.00  0.00    +0.000 C 
ATOM     20  O   UNL     1       0.948  11.610  20.651  0.00  0.00    +0.000 OA
ENDROOT
BRANCH   1  22
ATOM     21  C   UNL     1       1.443  16.246  18.664  0.00  0.00    +0.000 C 
ATOM     22  C   UNL     1       0.036  15.900  19.134  0.00  0.00    +0.000 C 
BRANCH  22  23
ATOM     23  O   UNL     1      -0.555  14.994  18.197  0.00  0.00    +0.000 OA
ATOM     24  H   UNL     1      -1.315  14.593  18.662  0.00  0.00    +0.000 HD
ENDBRANCH  22  23
BRANCH  22  25
ATOM     25  C   UNL     1      -0.841  17.199  19.175  0.00  0.00    +0.000 C 
BRANCH  25  26
ATOM     26  O   UNL     1      -2.231  16.884  19.295  0.00  0.00    +0.000 OA
ATOM     27  H   UNL     1      -2.672  17.200  18.488  0.00  0.00    +0.000 HD
ENDBRANCH  25  26
ENDBRANCH  22  25
ENDBRANCH   1  22
BRANCH  15  28
ATOM     28  O   UNL     1       3.510   7.001  17.707  0.00  0.00    +0.000 OA
ATOM     29  H   UNL     1       3.107   6.131  17.546  0.00  0.00    +0.000 HD
ENDBRANCH  15  28
TORSDOF 5
ENDMDL
MODEL 4
REMARK VINA RESULT:      -6.4      2.241      7.272
REMARK  Name = 
REMARK  6 active torsions:
REMARK  status: ('A' for Active; 'I' for Inactive)
REMARK    1  A    between atoms: C_1  and  C_2
REMARK    2  A    between atoms: C_2  and  O_3
REMARK    3  A    between atoms: C_2  and  C_4
REMARK    4  A    between atoms: C_2  and  C_6
REMARK    5  A    between atoms: C_4  and  O_5
REMARK    6  A    between atoms: C_20  and  O_21
REMARK                            x       y       z     vdW  Elec       q    Type
REMARK                         _______ _______ _______ _____ _____    ______ ____
ROOT
ATOM      1  C   UNL     1      -0.356  10.959  19.720  0.00  0.00    +0.000 A 
ATOM      2  C   UNL     1      -0.976  12.160  19.414  0.00  0.00    +0.000 A 
ATOM      3  C   UNL     1      -1.850  11.777  18.430  0.00  0.00    +0.000 A 
ATOM      4  C   UNL     1      -3.200  12.093  18.636  0.00  0.00    +0.000 A 
ATOM      5  C   UNL     1      -4.135  11.471  17.800  0.00  0.00    +0.000 A 
ATOM      6  C   UNL     1      -3.801  10.466  16.887  0.00  0.00    +0.000 A 
ATOM      7  C   UNL     1      -2.506   9.893  17.047  0.00  0.00    +0.000 A 
ATOM      8  C   UNL     1      -1.646  10.518  17.955  0.00  0.00    +0.000 A 
ATOM      9  O   UNL     1      -0.618  10.001  18.733  0.00  0.00    +0.000 OA
ATOM     10  C   UNL     1      -5.486  11.739  18.392  0.00  0.00    +0.000 C 
ATOM     11  C   UNL     1      -6.090  13.095  18.021  0.00  0.00    +0.000 C 
ATOM     12  O   UNL     1      -7.165  13.497  18.894  0.00  0.00    +0.000 OA
ATOM     13  C   UNL     1      -6.852  13.482  20.236  0.00  0.00    +0.000 A 
ATOM     14  C   UNL     1      -7.573  14.319  21.086  0.00  0.00    +0.000 A 
ATOM     15  C   UNL     1      -7.283  14.329  22.451  0.00  0.00    +0.000 A 
ATOM     16  C   UNL     1      -6.329  13.481  22.995  0.00  0.00    +0.000 A 
ATOM     17  C   UNL     1      -5.618  12.639  22.149  0.00  0.00    +0.000 A 
ATOM     18  C   UNL     1      -5.869  12.653  20.766  0.00  0.00    +0.000 A 
ATOM     19  C   UNL     1      -5.003  11.866  19.858  0.00  0.00    +0.000 C 
ATOM     20  O   UNL     1      -3.730  12.587  19.806  0.00  0.00    +0.000 OA
ENDROOT
BRANCH   1  22
ATOM     21  C   UNL     1       0.836   9.162  21.067  0.00  0.00    +0.000 C 
ATOM     22  C   UNL     1       0.268  10.575  21.033  0.00  0.00    +0.000 C 
BRANCH  22  23
ATOM     23  O   UNL     1       1.329  11.506  21.267  0.00  0.00    +0.000 OA
ATOM     24  H   UNL     1       1.662  11.754  20.382  0.00  0.00    +0.000 HD
ENDBRANCH  22  23
BRANCH  22  25
ATOM     25  C   UNL     1      -0.791  10.746  22.175  0.00  0.00    +0.000 C 
BRANCH  25  26
ATOM     26  O   UNL     1      -0.245  10.386  23.448  0.00  0.00    +0.000 OA
ATOM     27  H   UNL     1      -0.842  10.738  24.130  0.00  0.00    +0.000 HD
ENDBRANCH  25  26
ENDBRANCH  22  25
ENDBRANCH   1  22
BRANCH  15  28
ATOM     28  O   UNL     1      -7.907  15.188  23.306  0.00  0.00    +0.000 OA
ATOM     29  H   UNL     1      -7.330  15.323  24.076  0.00  0.00    +0.000 HD
ENDBRANCH  15  28
TORSDOF 5
ENDMDL
MODEL 5
REMARK VINA RESULT:      -6.3      2.481      4.886
REMARK  Name = 
REMARK  6 active torsions:
REMARK  status: ('A' for Active; 'I' for Inactive)
REMARK    1  A    between atoms: C_1  and  C_2
REMARK    2  A    between atoms: C_2  and  O_3
REMARK    3  A    between atoms: C_2  and  C_4
REMARK    4  A    between atoms: C_2  and  C_6
REMARK    5  A    between atoms: C_4  and  O_5
REMARK    6  A    between atoms: C_20  and  O_21
REMARK                            x       y       z     vdW  Elec       q    Type
REMARK                         _______ _______ _______ _____ _____    ______ ____
ROOT
ATOM      1  C   UNL     1      -4.789  11.079  18.124  0.00  0.00    +0.000 A 
ATOM      2  C   UNL     1      -4.867  12.408  18.509  0.00  0.00    +0.000 A 
ATOM      3  C   UNL     1      -5.889  12.372  19.422  0.00  0.00    +0.000 A 
ATOM      4  C   UNL     1      -5.609  12.887  20.695  0.00  0.00    +0.000 A 
ATOM      5  C   UNL     1      -6.526  12.605  21.713  0.00  0.00    +0.000 A 
ATOM      6  C   UNL     1      -7.609  11.735  21.553  0.00  0.00    +0.000 A 
ATOM      7  C   UNL     1      -7.575  10.917  20.387  0.00  0.00    +0.000 A 
ATOM      8  C   UNL     1      -6.584  11.202  19.443  0.00  0.00    +0.000 A 
ATOM      9  O   UNL     1      -5.927  10.376  18.540  0.00  0.00    +0.000 OA
ATOM     10  C   UNL     1      -5.874  13.005  23.003  0.00  0.00    +0.000 C 
ATOM     11  C   UNL     1      -5.989  14.493  23.343  0.00  0.00    +0.000 C 
ATOM     12  O   UNL     1      -5.041  14.922  24.341  0.00  0.00    +0.000 OA
ATOM     13  C   UNL     1      -3.728  14.612  24.059  0.00  0.00    +0.000 A 
ATOM     14  C   UNL     1      -2.731  15.401  24.629  0.00  0.00    +0.000 A 
ATOM     15  C   UNL     1      -1.391  15.115  24.366  0.00  0.00    +0.000 A 
ATOM     16  C   UNL     1      -1.022  14.024  23.591  0.00  0.00    +0.000 A 
ATOM     17  C   UNL     1      -2.016  13.230  23.031  0.00  0.00    +0.000 A 
ATOM     18  C   UNL     1      -3.370  13.537  23.253  0.00  0.00    +0.000 A 
ATOM     19  C   UNL     1      -4.417  12.779  22.530  0.00  0.00    +0.000 C 
ATOM     20  O   UNL     1      -4.360  13.253  21.145  0.00  0.00    +0.000 OA
ENDROOT
BRANCH   1  22
ATOM     21  C   UNL     1      -2.265  10.799  18.239  0.00  0.00    +0.000 C 
ATOM     22  C   UNL     1      -3.577  10.360  17.602  0.00  0.00    +0.000 C 
BRANCH  22  23
ATOM     23  O   UNL     1      -3.780   8.970  17.873  0.00  0.00    +0.000 OA
ATOM     24  H   UNL     1      -3.551   8.849  18.815  0.00  0.00    +0.000 HD
ENDBRANCH  22  23
BRANCH  22  25
ATOM     25  C   UNL     1      -3.498  10.547  16.049  0.00  0.00    +0.000 C 
BRANCH  25  26
ATOM     26  O   UNL     1      -2.485  11.492  15.689  0.00  0.00    +0.000 OA
ATOM     27  H   UNL     1      -2.460  11.535  14.718  0.00  0.00    +0.000 HD
ENDBRANCH  25  26
ENDBRANCH  22  25
ENDBRANCH   1  22
BRANCH  15  28
ATOM     28  O   UNL     1      -0.386  15.907  24.837  0.00  0.00    +0.000 OA
ATOM     29  H   UNL     1      -0.256  16.638  24.210  0.00  0.00    +0.000 HD
ENDBRANCH  15  28
TORSDOF 5
ENDMDL
MODEL 6
REMARK VINA RESULT:      -6.3      2.430      4.842
REMARK  Name = 
REMARK  6 active torsions:
REMARK  status: ('A' for Active; 'I' for Inactive)
REMARK    1  A    between atoms: C_1  and  C_2
REMARK    2  A    between atoms: C_2  and  O_3
REMARK    3  A    between atoms: C_2  and  C_4
REMARK    4  A    between atoms: C_2  and  C_6
REMARK    5  A    between atoms: C_4  and  O_5
REMARK    6  A    between atoms: C_20  and  O_21
REMARK                            x       y       z     vdW  Elec       q    Type
REMARK                         _______ _______ _______ _____ _____    ______ ____
ROOT
ATOM      1  C   UNL     1      -7.288  13.003  21.518  0.00  0.00    +0.000 A 
ATOM      2  C   UNL     1      -6.918  11.757  21.038  0.00  0.00    +0.000 A 
ATOM      3  C   UNL     1      -7.041  11.935  19.684  0.00  0.00    +0.000 A 
ATOM      4  C   UNL     1      -5.910  11.645  18.909  0.00  0.00    +0.000 A 
ATOM      5  C   UNL     1      -5.917  12.085  17.581  0.00  0.00    +0.000 A 
ATOM      6  C   UNL     1      -6.918  12.903  17.047  0.00  0.00    +0.000 A 
ATOM      7  C   UNL     1      -7.787  13.513  17.998  0.00  0.00    +0.000 A 
ATOM      8  C   UNL     1      -7.676  13.084  19.323  0.00  0.00    +0.000 A 
ATOM      9  O   UNL     1      -7.916  13.752  20.516  0.00  0.00    +0.000 OA
ATOM     10  C   UNL     1      -4.520  11.916  17.064  0.00  0.00    +0.000 C 
ATOM     11  C   UNL     1      -4.186  10.506  16.571  0.00  0.00    +0.000 C 
ATOM     12  O   UNL     1      -2.769  10.262  16.463  0.00  0.00    +0.000 OA
ATOM     13  C   UNL     1      -2.050  10.535  17.607  0.00  0.00    +0.000 A 
ATOM     14  C   UNL     1      -0.843   9.865  17.797  0.00  0.00    +0.000 A 
ATOM     15  C   UNL     1      -0.088  10.117  18.943  0.00  0.00    +0.000 A 
ATOM     16  C   UNL     1      -0.483  11.066  19.876  0.00  0.00    +0.000 A 
ATOM     17  C   UNL     1      -1.682  11.742  19.681  0.00  0.00    +0.000 A 
ATOM     18  C   UNL     1      -2.473  11.463  18.553  0.00  0.00    +0.000 A 
ATOM     19  C   UNL     1      -3.816  12.075  18.433  0.00  0.00    +0.000 C 
ATOM     20  O   UNL     1      -4.655  11.375  19.407  0.00  0.00    +0.000 OA
ENDROOT
BRANCH   1  22
ATOM     21  C   UNL     1      -5.445  14.212  22.785  0.00  0.00    +0.000 C 
ATOM     22  C   UNL     1      -6.855  13.637  22.811  0.00  0.00    +0.000 C 
BRANCH  22  23
ATOM     23  O   UNL     1      -7.781  14.695  23.076  0.00  0.00    +0.000 OA
ATOM     24  H   UNL     1      -8.654  14.357  22.795  0.00  0.00    +0.000 HD
ENDBRANCH  22  23
BRANCH  22  25
ATOM     25  C   UNL     1      -6.974  12.584  23.965  0.00  0.00    +0.000 C 
BRANCH  25  26
ATOM     26  O   UNL     1      -5.685  12.127  24.387  0.00  0.00    +0.000 OA
ATOM     27  H   UNL     1      -5.490  11.312  23.893  0.00  0.00    +0.000 HD
ENDBRANCH  25  26
ENDBRANCH  22  25
ENDBRANCH   1  22
BRANCH  15  28
ATOM     28  O   UNL     1       1.057   9.428  19.209  0.00  0.00    +0.000 OA
ATOM     29  H   UNL     1       1.433   9.770  20.038  0.00  0.00    +0.000 HD
ENDBRANCH  15  28
TORSDOF 5
ENDMDL
MODEL 7
REMARK VINA RESULT:      -6.2      2.289      6.669
REMARK  Name = 
REMARK  6 active torsions:
REMARK  status: ('A' for Active; 'I' for Inactive)
REMARK    1  A    between atoms: C_1  and  C_2
REMARK    2  A    between atoms: C_2  and  O_3
REMARK    3  A    between atoms: C_2  and  C_4
REMARK    4  A    between atoms: C_2  and  C_6
REMARK    5  A    between atoms: C_4  and  O_5
REMARK    6  A    between atoms: C_20  and  O_21
REMARK                            x       y       z     vdW  Elec       q    Type
REMARK                         _______ _______ _______ _____ _____    ______ ____
ROOT
ATOM      1  C   UNL     1      -0.663  10.703  18.767  0.00  0.00    +0.000 A 
ATOM      2  C   UNL     1      -1.140  12.002  18.683  0.00  0.00    +0.000 A 
ATOM      3  C   UNL     1      -2.435  11.796  18.285  0.00  0.00    +0.000 A 
ATOM      4  C   UNL     1      -3.434  12.368  19.085  0.00  0.00    +0.000 A 
ATOM      5  C   UNL     1      -4.748  11.939  18.867  0.00  0.00    +0.000 A 
ATOM      6  C   UNL     1      -5.082  10.889  18.007  0.00  0.00    +0.000 A 
ATOM      7  C   UNL     1      -3.994  10.075  17.576  0.00  0.00    +0.000 A 
ATOM      8  C   UNL     1      -2.707  10.521  17.892  0.00  0.00    +0.000 A 
ATOM      9  O   UNL     1      -1.534   9.815  18.125  0.00  0.00    +0.000 OA
ATOM     10  C   UNL     1      -5.567  12.464  20.008  0.00  0.00    +0.000 C 
ATOM     11  C   UNL     1      -6.036  13.912  19.846  0.00  0.00    +0.000 C 
ATOM     12  O   UNL     1      -6.458  14.515  21.086  0.00  0.00    +0.000 OA
ATOM     13  C   UNL     1      -5.533  14.440  22.106  0.00  0.00    +0.000 A 
ATOM     14  C   UNL     1      -5.590  15.401  23.114  0.00  0.00    +0.000 A 
ATOM     15  C   UNL     1      -4.670  15.355  24.162  0.00  0.00    +0.000 A 
ATOM     16  C   UNL     1      -3.731  14.337  24.257  0.00  0.00    +0.000 A 
ATOM     17  C   UNL     1      -3.681  13.373  23.257  0.00  0.00    +0.000 A 
ATOM     18  C   UNL     1      -4.573  13.436  22.173  0.00  0.00    +0.000 A 
ATOM     19  C   UNL     1      -4.412  12.495  21.040  0.00  0.00    +0.000 C 
ATOM     20  O   UNL     1      -3.228  12.956  20.312  0.00  0.00    +0.000 OA
ENDROOT
BRANCH   1  22
ATOM     21  C   UNL     1       1.167  11.297  20.428  0.00  0.00    +0.000 C 
ATOM     22  C   UNL     1       0.450  10.205  19.645  0.00  0.00    +0.000 C 
BRANCH  22  23
ATOM     23  O   UNL     1      -0.140   9.285  20.568  0.00  0.00    +0.000 OA
ATOM     24  H   UNL     1      -1.101   9.453  20.530  0.00  0.00    +0.000 HD
ENDBRANCH  22  23
BRANCH  22  25
ATOM     25  C   UNL     1       1.484   9.420  18.768  0.00  0.00    +0.000 C 
BRANCH  25  26
ATOM     26  O   UNL     1       1.480   9.887  17.415  0.00  0.00    +0.000 OA
ATOM     27  H   UNL     1       1.326  10.847  17.440  0.00  0.00    +0.000 HD
ENDBRANCH  25  26
ENDBRANCH  22  25
ENDBRANCH   1  22
BRANCH  15  28
ATOM     28  O   UNL     1      -4.638  16.318  25.126  0.00  0.00    +0.000 OA
ATOM     29  H   UNL     1      -3.766  16.748  25.097  0.00  0.00    +0.000 HD
ENDBRANCH  15  28
TORSDOF 5
ENDMDL
MODEL 8
REMARK VINA RESULT:      -6.2      2.574      4.774
REMARK  Name = 
REMARK  6 active torsions:
REMARK  status: ('A' for Active; 'I' for Inactive)
REMARK    1  A    between atoms: C_1  and  C_2
REMARK    2  A    between atoms: C_2  and  O_3
REMARK    3  A    between atoms: C_2  and  C_4
REMARK    4  A    between atoms: C_2  and  C_6
REMARK    5  A    between atoms: C_4  and  O_5
REMARK    6  A    between atoms: C_20  and  O_21
REMARK                            x       y       z     vdW  Elec       q    Type
REMARK                         _______ _______ _______ _____ _____    ______ ____
ROOT
ATOM      1  C   UNL     1      -7.245  13.061  21.779  0.00  0.00    +0.000 A 
ATOM      2  C   UNL     1      -6.911  11.823  21.254  0.00  0.00    +0.000 A 
ATOM      3  C   UNL     1      -7.101  12.031  19.913  0.00  0.00    +0.000 A 
ATOM      4  C   UNL     1      -6.013  11.749  19.076  0.00  0.00    +0.000 A 
ATOM      5  C   UNL     1      -6.084  12.217  17.759  0.00  0.00    +0.000 A 
ATOM      6  C   UNL     1      -7.102  13.054  17.294  0.00  0.00    +0.000 A 
ATOM      7  C   UNL     1      -7.917  13.651  18.300  0.00  0.00    +0.000 A 
ATOM      8  C   UNL     1      -7.743  13.192  19.609  0.00  0.00    +0.000 A 
ATOM      9  O   UNL     1      -7.916  13.837  20.826  0.00  0.00    +0.000 OA
ATOM     10  C   UNL     1      -4.716  12.047  17.168  0.00  0.00    +0.000 C 
ATOM     11  C   UNL     1      -4.421  10.645  16.630  0.00  0.00    +0.000 C 
ATOM     12  O   UNL     1      -3.014  10.391  16.445  0.00  0.00    +0.000 OA
ATOM     13  C   UNL     1      -2.235  10.634  17.557  0.00  0.00    +0.000 A 
ATOM     14  C   UNL     1      -1.026   9.949  17.671  0.00  0.00    +0.000 A 
ATOM     15  C   UNL     1      -0.212  10.170  18.783  0.00  0.00    +0.000 A 
ATOM     16  C   UNL     1      -0.551  11.102  19.754  0.00  0.00    +0.000 A 
ATOM     17  C   UNL     1      -1.751  11.793  19.634  0.00  0.00    +0.000 A 
ATOM     18  C   UNL     1      -2.600  11.544  18.542  0.00  0.00    +0.000 A 
ATOM     19  C   UNL     1      -3.942  12.171  18.504  0.00  0.00    +0.000 C 
ATOM     20  O   UNL     1      -4.738  11.456  19.504  0.00  0.00    +0.000 OA
ENDROOT
BRANCH   1  22
ATOM     21  C   UNL     1      -7.821  13.901  24.109  0.00  0.00    +0.000 C 
ATOM     22  C   UNL     1      -6.742  13.664  23.061  0.00  0.00    +0.000 C 
BRANCH  22  23
ATOM     23  O   UNL     1      -5.776  12.750  23.589  0.00  0.00    +0.000 OA
ATOM     24  H   UNL     1      -6.135  12.456  24.449  0.00  0.00    +0.000 HD
ENDBRANCH  22  23
BRANCH  22  25
ATOM     25  C   UNL     1      -6.011  15.013  22.741  0.00  0.00    +0.000 C 
BRANCH  25  26
ATOM     26  O   UNL     1      -5.210  14.904  21.561  0.00  0.00    +0.000 OA
ATOM     27  H   UNL     1      -4.645  15.694  21.519  0.00  0.00    +0.000 HD
ENDBRANCH  25  26
ENDBRANCH  22  25
ENDBRANCH   1  22
BRANCH  15  28
ATOM     28  O   UNL     1       0.939   9.466  18.976  0.00  0.00    +0.000 OA
ATOM     29  H   UNL     1       1.080   8.897  18.201  0.00  0.00    +0.000 HD
ENDBRANCH  15  28
TORSDOF 5
ENDMDL
MODEL 9
REMARK VINA RESULT:      -6.2      2.452      3.719
REMARK  Name = 
REMARK  6 active torsions:
REMARK  status: ('A' for Active; 'I' for Inactive)
REMARK    1  A    between atoms: C_1  and  C_2
REMARK    2  A    between atoms: C_2  and  O_3
REMARK    3  A    between atoms: C_2  and  C_4
REMARK    4  A    between atoms: C_2  and  C_6
REMARK    5  A    between atoms: C_4  and  O_5
REMARK    6  A    between atoms: C_20  and  O_21
REMARK                            x       y       z     vdW  Elec       q    Type
REMARK                         _______ _______ _______ _____ _____    ______ ____
ROOT
ATOM      1  C   UNL     1      -5.804  13.793  22.549  0.00  0.00    +0.000 A 
ATOM      2  C   UNL     1      -5.265  13.135  21.454  0.00  0.00    +0.000 A 
ATOM      3  C   UNL     1      -4.365  14.059  20.992  0.00  0.00    +0.000 A 
ATOM      4  C   UNL     1      -3.039  13.626  20.851  0.00  0.00    +0.000 A 
ATOM      5  C   UNL     1      -2.063  14.611  20.659  0.00  0.00    +0.000 A 
ATOM      6  C   UNL     1      -2.328  15.981  20.741  0.00  0.00    +0.000 A 
ATOM      7  C   UNL     1      -3.582  16.334  21.318  0.00  0.00    +0.000 A 
ATOM      8  C   UNL     1      -4.484  15.292  21.556  0.00  0.00    +0.000 A 
ATOM      9  O   UNL     1      -5.476  15.154  22.517  0.00  0.00    +0.000 OA
ATOM     10  C   UNL     1      -0.734  13.938  20.826  0.00  0.00    +0.000 C 
ATOM     11  C   UNL     1      -0.220  13.218  19.577  0.00  0.00    +0.000 C 
ATOM     12  O   UNL     1       0.824  12.264  19.859  0.00  0.00    +0.000 OA
ATOM     13  C   UNL     1       0.509  11.338  20.831  0.00  0.00    +0.000 A 
ATOM     14  C   UNL     1       1.171  10.112  20.805  0.00  0.00    +0.000 A 
ATOM     15  C   UNL     1       0.879   9.151  21.774  0.00  0.00    +0.000 A 
ATOM     16  C   UNL     1      -0.018   9.408  22.802  0.00  0.00    +0.000 A 
ATOM     17  C   UNL     1      -0.670  10.635  22.833  0.00  0.00    +0.000 A 
ATOM     18  C   UNL     1      -0.418  11.593  21.836  0.00  0.00    +0.000 A 
ATOM     19  C   UNL     1      -1.227  12.832  21.792  0.00  0.00    +0.000 C 
ATOM     20  O   UNL     1      -2.546  12.423  21.303  0.00  0.00    +0.000 OA
ENDROOT
BRANCH   1  22
ATOM     21  C   UNL     1      -5.422  12.350  24.606  0.00  0.00    +0.000 C 
ATOM     22  C   UNL     1      -6.404  13.163  23.774  0.00  0.00    +0.000 C 
BRANCH  22  23
ATOM     23  O   UNL     1      -6.912  14.235  24.575  0.00  0.00    +0.000 OA
ATOM     24  H   UNL     1      -7.405  14.812  23.961  0.00  0.00    +0.000 HD
ENDBRANCH  22  23
BRANCH  22  25
ATOM     25  C   UNL     1      -7.610  12.259  23.348  0.00  0.00    +0.000 C 
BRANCH  25  26
ATOM     26  O   UNL     1      -7.521  10.959  23.941  0.00  0.00    +0.000 OA
ATOM     27  H   UNL     1      -7.536  11.078  24.906  0.00  0.00    +0.000 HD
ENDBRANCH  25  26
ENDBRANCH  22  25
ENDBRANCH   1  22
BRANCH  15  28
ATOM     28  O   UNL     1       1.443   7.910  21.742  0.00  0.00    +0.000 OA
ATOM     29  H   UNL     1       2.219   7.914  22.327  0.00  0.00    +0.000 HD
ENDBRANCH  15  28
TORSDOF 5
ENDMDL
