MODEL 1
REMARK VINA RESULT:      -9.4      0.000      0.000
REMARK  Name = 
REMARK  6 active torsions:
REMARK  status: ('A' for Active; 'I' for Inactive)
REMARK    1  A    between atoms: C_2  and  O_3
REMARK    2  A    between atoms: C_2  and  C_4
REMARK    3  A    between atoms: C_7  and  N_8
REMARK    4  A    between atoms: C_9  and  C_11
REMARK    5  A    between atoms: N_13  and  C_14
REMARK    6  A    between atoms: C_14  and  C_15
REMARK                            x       y       z     vdW  Elec       q    Type
REMARK                         _______ _______ _______ _____ _____    ______ ____
ROOT
ATOM      1  C   UNL     1       3.516   6.660  17.952  0.00  0.00    +0.000 A 
ATOM      2  C   UNL     1       3.200   5.365  18.124  0.00  0.00    +0.000 A 
ATOM      3  N   UNL     1       3.815   4.272  17.502  0.00  0.00    +0.000 N 
ATOM      4  C   UNL     1       4.865   4.545  16.600  0.00  0.00    +0.000 A 
ATOM      5  C   UNL     1       5.530   3.489  15.848  0.00  0.00    +0.000 A 
ATOM      6  C   UNL     1       6.476   3.753  14.934  0.00  0.00    +0.000 A 
ATOM      7  C   UNL     1       6.904   5.145  14.693  0.00  0.00    +0.000 A 
ATOM      8  O   UNL     1       7.764   5.414  13.857  0.00  0.00    +0.000 OA
ATOM      9  N   UNL     1       6.295   6.092  15.463  0.00  0.00    +0.000 N 
ATOM     10  C   UNL     1       5.297   5.805  16.368  0.00  0.00    +0.000 A 
ATOM     11  C   UNL     1       4.670   6.952  17.077  0.00  0.00    +0.000 A 
ATOM     12  O   UNL     1       5.086   8.099  16.912  0.00  0.00    +0.000 OA
ATOM     13  H   UNL     1       6.565   7.056  15.325  0.00  0.00    +0.000 HD
ENDROOT
BRANCH   1  15
ATOM     14  N   UNL     1       2.280   8.734  17.730  0.00  0.00    +0.000 N 
ATOM     15  C   UNL     1       2.652   7.702  18.570  0.00  0.00    +0.000 C 
ATOM     16  O   UNL     1       2.278   7.557  19.732  0.00  0.00    +0.000 OA
ATOM     17  H   UNL     1       2.575   8.674  16.753  0.00  0.00    +0.000 HD
BRANCH  14  21
ATOM     18  C   UNL     1      -0.235  11.956  18.766  0.00  0.00    +0.000 A 
ATOM     19  C   UNL     1       1.147  12.140  18.754  0.00  0.00    +0.000 A 
ATOM     20  C   UNL     1       1.984  11.078  18.416  0.00  0.00    +0.000 A 
ATOM     21  C   UNL     1       1.461   9.827  18.080  0.00  0.00    +0.000 A 
ATOM     22  C   UNL     1       0.072   9.652  18.067  0.00  0.00    +0.000 A 
ATOM     23  C   UNL     1      -0.775  10.714  18.410  0.00  0.00    +0.000 A 
BRANCH  18  25
ATOM     24  O   UNL     1      -2.074  13.023  19.832  0.00  0.00    +0.000 OA
ATOM     25  C   UNL     1      -1.092  13.115  19.118  0.00  0.00    +0.000 C 
BRANCH  25  26
ATOM     26  O   UNL     1      -0.697  14.266  18.538  0.00  0.00    +0.000 OA
ATOM     27  H   UNL     1       0.264  14.337  18.387  0.00  0.00    +0.000 HD
ENDBRANCH  25  26
ENDBRANCH  18  25
ENDBRANCH  14  21
ENDBRANCH   1  15
BRANCH   3  28
ATOM     28  C   UNL     1       3.259   2.910  17.724  0.00  0.00    +0.000 C 
BRANCH  28  29
ATOM     29  C   UNL     1       2.635   2.733  19.086  0.00  0.00    +0.000 A 
ATOM     30  C   UNL     1       3.423   2.540  20.223  0.00  0.00    +0.000 A 
ATOM     31  F   UNL     1       4.758   2.470  20.110  0.00  0.00    +0.000 F 
ATOM     32  C   UNL     1       2.866   2.443  21.499  0.00  0.00    +0.000 A 
ATOM     33  C   UNL     1       1.488   2.551  21.664  0.00  0.00    +0.000 A 
ATOM     34  C   UNL     1       0.680   2.743  20.547  0.00  0.00    +0.000 A 
ATOM     35  C   UNL     1       1.256   2.831  19.278  0.00  0.00    +0.000 A 
ATOM     36  F   UNL     1       0.441   3.054  18.240  0.00  0.00    +0.000 F 
ENDBRANCH  28  29
ENDBRANCH   3  28
TORSDOF 6
ENDMDL
MODEL 2
REMARK VINA RESULT:      -9.1      1.846      1.986
REMARK  Name = 
REMARK  6 active torsions:
REMARK  status: ('A' for Active; 'I' for Inactive)
REMARK    1  A    between atoms: C_2  and  O_3
REMARK    2  A    between atoms: C_2  and  C_4
REMARK    3  A    between atoms: C_7  and  N_8
REMARK    4  A    between atoms: C_9  and  C_11
REMARK    5  A    between atoms: N_13  and  C_14
REMARK    6  A    between atoms: C_14  and  C_15
REMARK                            x       y       z     vdW  Elec       q    Type
REMARK                         _______ _______ _______ _____ _____    ______ ____
ROOT
ATOM      1  C   UNL     1       3.336   6.829  17.817  0.00  0.00    +0.000 A 
ATOM      2  C   UNL     1       2.950   5.552  17.980  0.00  0.00    +0.000 A 
ATOM      3  N   UNL     1       3.567   4.423  17.431  0.00  0.00    +0.000 N 
ATOM      4  C   UNL     1       4.703   4.634  16.621  0.00  0.00    +0.000 A 
ATOM      5  C   UNL     1       5.385   3.537  15.946  0.00  0.00    +0.000 A 
ATOM      6  C   UNL     1       6.417   3.744  15.115  0.00  0.00    +0.000 A 
ATOM      7  C   UNL     1       6.926   5.112  14.892  0.00  0.00    +0.000 A 
ATOM      8  O   UNL     1       7.866   5.328  14.131  0.00  0.00    +0.000 OA
ATOM      9  N   UNL     1       6.293   6.097  15.591  0.00  0.00    +0.000 N 
ATOM     10  C   UNL     1       5.209   5.870  16.410  0.00  0.00    +0.000 A 
ATOM     11  C   UNL     1       4.573   7.055  17.043  0.00  0.00    +0.000 A 
ATOM     12  O   UNL     1       5.052   8.181  16.898  0.00  0.00    +0.000 OA
ATOM     13  H   UNL     1       6.617   7.047  15.464  0.00  0.00    +0.000 HD
ENDROOT
BRANCH   1  15
ATOM     14  N   UNL     1       2.144   7.820  19.682  0.00  0.00    +0.000 N 
ATOM     15  C   UNL     1       2.467   7.918  18.342  0.00  0.00    +0.000 C 
ATOM     16  O   UNL     1       2.151   8.843  17.597  0.00  0.00    +0.000 OA
ATOM     17  H   UNL     1       2.565   7.054  20.212  0.00  0.00    +0.000 HD
BRANCH  14  21
ATOM     18  C   UNL     1      -0.217  10.505  21.919  0.00  0.00    +0.000 A 
ATOM     19  C   UNL     1      -0.189  10.607  20.528  0.00  0.00    +0.000 A 
ATOM     20  C   UNL     1       0.591   9.725  19.783  0.00  0.00    +0.000 A 
ATOM     21  C   UNL     1       1.347   8.729  20.406  0.00  0.00    +0.000 A 
ATOM     22  C   UNL     1       1.297   8.611  21.801  0.00  0.00    +0.000 A 
ATOM     23  C   UNL     1       0.518   9.497  22.556  0.00  0.00    +0.000 A 
BRANCH  18  25
ATOM     24  O   UNL     1      -2.026  11.101  23.342  0.00  0.00    +0.000 OA
ATOM     25  C   UNL     1      -1.071  11.453  22.673  0.00  0.00    +0.000 C 
BRANCH  25  26
ATOM     26  O   UNL     1      -0.707  12.742  22.515  0.00  0.00    +0.000 OA
ATOM     27  H   UNL     1      -0.214  13.120  23.266  0.00  0.00    +0.000 HD
ENDBRANCH  25  26
ENDBRANCH  18  25
ENDBRANCH  14  21
ENDBRANCH   1  15
BRANCH   3  28
ATOM     28  C   UNL     1       2.935   3.090  17.623  0.00  0.00    +0.000 C 
BRANCH  28  29
ATOM     29  C   UNL     1       2.478   2.843  19.039  0.00  0.00    +0.000 A 
ATOM     30  C   UNL     1       3.398   2.664  20.076  0.00  0.00    +0.000 A 
ATOM     31  F   UNL     1       4.713   2.670  19.813  0.00  0.00    +0.000 F 
ATOM     32  C   UNL     1       2.994   2.503  21.402  0.00  0.00    +0.000 A 
ATOM     33  C   UNL     1       1.639   2.530  21.722  0.00  0.00    +0.000 A 
ATOM     34  C   UNL     1       0.702   2.708  20.708  0.00  0.00    +0.000 A 
ATOM     35  C   UNL     1       1.126   2.860  19.387  0.00  0.00    +0.000 A 
ATOM     36  F   UNL     1       0.190   3.066  18.453  0.00  0.00    +0.000 F 
ENDBRANCH  28  29
ENDBRANCH   3  28
TORSDOF 6
ENDMDL
MODEL 3
REMARK VINA RESULT:      -9.0      0.166      1.440
REMARK  Name = 
REMARK  6 active torsions:
REMARK  status: ('A' for Active; 'I' for Inactive)
REMARK    1  A    between atoms: C_2  and  O_3
REMARK    2  A    between atoms: C_2  and  C_4
REMARK    3  A    between atoms: C_7  and  N_8
REMARK    4  A    between atoms: C_9  and  C_11
REMARK    5  A    between atoms: N_13  and  C_14
REMARK    6  A    between atoms: C_14  and  C_15
REMARK                            x       y       z     vdW  Elec       q    Type
REMARK                         _______ _______ _______ _____ _____    ______ ____
ROOT
ATOM      1  C   UNL     1       3.551   6.638  17.910  0.00  0.00    +0.000 A 
ATOM      2  C   UNL     1       3.313   5.341  18.174  0.00  0.00    +0.000 A 
ATOM      3  N   UNL     1       3.932   4.244  17.564  0.00  0.00    +0.000 N 
ATOM      4  C   UNL     1       4.898   4.513  16.572  0.00  0.00    +0.000 A 
ATOM      5  C   UNL     1       5.557   3.448  15.827  0.00  0.00    +0.000 A 
ATOM      6  C   UNL     1       6.419   3.703  14.831  0.00  0.00    +0.000 A 
ATOM      7  C   UNL     1       6.759   5.097  14.486  0.00  0.00    +0.000 A 
ATOM      8  O   UNL     1       7.540   5.356  13.574  0.00  0.00    +0.000 OA
ATOM      9  N   UNL     1       6.163   6.057  15.249  0.00  0.00    +0.000 N 
ATOM     10  C   UNL     1       5.250   5.776  16.242  0.00  0.00    +0.000 A 
ATOM     11  C   UNL     1       4.621   6.931  16.936  0.00  0.00    +0.000 A 
ATOM     12  O   UNL     1       4.968   8.086  16.680  0.00  0.00    +0.000 OA
ATOM     13  H   UNL     1       6.375   7.023  15.042  0.00  0.00    +0.000 HD
ENDROOT
BRANCH   1  15
ATOM     14  N   UNL     1       2.276   8.688  17.696  0.00  0.00    +0.000 N 
ATOM     15  C   UNL     1       2.685   7.672  18.538  0.00  0.00    +0.000 C 
ATOM     16  O   UNL     1       2.342   7.535  19.711  0.00  0.00    +0.000 OA
ATOM     17  H   UNL     1       2.548   8.622  16.712  0.00  0.00    +0.000 HD
BRANCH  14  21
ATOM     18  C   UNL     1      -0.267  11.883  18.750  0.00  0.00    +0.000 A 
ATOM     19  C   UNL     1       1.116  12.061  18.796  0.00  0.00    +0.000 A 
ATOM     20  C   UNL     1       1.962  11.008  18.453  0.00  0.00    +0.000 A 
ATOM     21  C   UNL     1       1.448   9.772  18.053  0.00  0.00    +0.000 A 
ATOM     22  C   UNL     1       0.060   9.604  17.981  0.00  0.00    +0.000 A 
ATOM     23  C   UNL     1      -0.797  10.657  18.329  0.00  0.00    +0.000 A 
BRANCH  18  25
ATOM     24  O   UNL     1      -2.103  12.931  19.838  0.00  0.00    +0.000 OA
ATOM     25  C   UNL     1      -1.132  13.032  19.110  0.00  0.00    +0.000 C 
BRANCH  25  26
ATOM     26  O   UNL     1      -0.760  14.186  18.521  0.00  0.00    +0.000 OA
ATOM     27  H   UNL     1       0.204  14.325  18.472  0.00  0.00    +0.000 HD
ENDBRANCH  25  26
ENDBRANCH  18  25
ENDBRANCH  14  21
ENDBRANCH   1  15
BRANCH   3  28
ATOM     28  C   UNL     1       3.462   2.873  17.899  0.00  0.00    +0.000 C 
BRANCH  28  29
ATOM     29  C   UNL     1       2.747   2.792  19.225  0.00  0.00    +0.000 A 
ATOM     30  C   UNL     1       1.359   2.934  19.307  0.00  0.00    +0.000 A 
ATOM     31  F   UNL     1       0.644   3.187  18.201  0.00  0.00    +0.000 F 
ATOM     32  C   UNL     1       0.673   2.795  20.515  0.00  0.00    +0.000 A 
ATOM     33  C   UNL     1       1.374   2.493  21.679  0.00  0.00    +0.000 A 
ATOM     34  C   UNL     1       2.757   2.346  21.624  0.00  0.00    +0.000 A 
ATOM     35  C   UNL     1       3.426   2.497  20.408  0.00  0.00    +0.000 A 
ATOM     36  F   UNL     1       4.750   2.308  20.399  0.00  0.00    +0.000 F 
ENDBRANCH  28  29
ENDBRANCH   3  28
TORSDOF 6
ENDMDL
MODEL 4
REMARK VINA RESULT:      -9.0      0.230      1.750
REMARK  Name = 
REMARK  6 active torsions:
REMARK  status: ('A' for Active; 'I' for Inactive)
REMARK    1  A    between atoms: C_2  and  O_3
REMARK    2  A    between atoms: C_2  and  C_4
REMARK    3  A    between atoms: C_7  and  N_8
REMARK    4  A    between atoms: C_9  and  C_11
REMARK    5  A    between atoms: N_13  and  C_14
REMARK    6  A    between atoms: C_14  and  C_15
REMARK                            x       y       z     vdW  Elec       q    Type
REMARK                         _______ _______ _______ _____ _____    ______ ____
ROOT
ATOM      1  C   UNL     1       3.525   6.681  17.894  0.00  0.00    +0.000 A 
ATOM      2  C   UNL     1       3.257   5.388  18.143  0.00  0.00    +0.000 A 
ATOM      3  N   UNL     1       3.864   4.283  17.534  0.00  0.00    +0.000 N 
ATOM      4  C   UNL     1       4.852   4.540  16.560  0.00  0.00    +0.000 A 
ATOM      5  C   UNL     1       5.501   3.468  15.818  0.00  0.00    +0.000 A 
ATOM      6  C   UNL     1       6.384   3.714  14.839  0.00  0.00    +0.000 A 
ATOM      7  C   UNL     1       6.758   5.103  14.510  0.00  0.00    +0.000 A 
ATOM      8  O   UNL     1       7.559   5.354  13.613  0.00  0.00    +0.000 OA
ATOM      9  N   UNL     1       6.168   6.069  15.272  0.00  0.00    +0.000 N 
ATOM     10  C   UNL     1       5.234   5.798  16.247  0.00  0.00    +0.000 A 
ATOM     11  C   UNL     1       4.617   6.961  16.940  0.00  0.00    +0.000 A 
ATOM     12  O   UNL     1       4.991   8.110  16.699  0.00  0.00    +0.000 OA
ATOM     13  H   UNL     1       6.403   7.032  15.075  0.00  0.00    +0.000 HD
ENDROOT
BRANCH   1  15
ATOM     14  N   UNL     1       2.302   8.763  17.678  0.00  0.00    +0.000 N 
ATOM     15  C   UNL     1       2.669   7.728  18.516  0.00  0.00    +0.000 C 
ATOM     16  O   UNL     1       2.298   7.585  19.679  0.00  0.00    +0.000 OA
ATOM     17  H   UNL     1       2.594   8.702  16.700  0.00  0.00    +0.000 HD
BRANCH  14  21
ATOM     18  C   UNL     1      -0.055  12.095  18.739  0.00  0.00    +0.000 A 
ATOM     19  C   UNL     1      -0.672  10.872  18.476  0.00  0.00    +0.000 A 
ATOM     20  C   UNL     1       0.101   9.768  18.121  0.00  0.00    +0.000 A 
ATOM     21  C   UNL     1       1.492   9.861  18.031  0.00  0.00    +0.000 A 
ATOM     22  C   UNL     1       2.112  11.083  18.321  0.00  0.00    +0.000 A 
ATOM     23  C   UNL     1       1.341  12.199  18.673  0.00  0.00    +0.000 A 
BRANCH  18  25
ATOM     24  O   UNL     1      -0.476  14.365  19.310  0.00  0.00    +0.000 OA
ATOM     25  C   UNL     1      -0.911  13.242  19.126  0.00  0.00    +0.000 C 
BRANCH  25  26
ATOM     26  O   UNL     1      -2.207  12.909  19.291  0.00  0.00    +0.000 OA
ATOM     27  H   UNL     1      -2.842  13.562  18.943  0.00  0.00    +0.000 HD
ENDBRANCH  25  26
ENDBRANCH  18  25
ENDBRANCH  14  21
ENDBRANCH   1  15
BRANCH   3  28
ATOM     28  C   UNL     1       3.361   2.919  17.850  0.00  0.00    +0.000 C 
BRANCH  28  29
ATOM     29  C   UNL     1       2.691   2.825  19.199  0.00  0.00    +0.000 A 
ATOM     30  C   UNL     1       1.302   2.910  19.323  0.00  0.00    +0.000 A 
ATOM     31  F   UNL     1       0.543   3.119  18.237  0.00  0.00    +0.000 F 
ATOM     32  C   UNL     1       0.660   2.757  20.553  0.00  0.00    +0.000 A 
ATOM     33  C   UNL     1       1.409   2.500  21.698  0.00  0.00    +0.000 A 
ATOM     34  C   UNL     1       2.795   2.409  21.601  0.00  0.00    +0.000 A 
ATOM     35  C   UNL     1       3.418   2.573  20.363  0.00  0.00    +0.000 A 
ATOM     36  F   UNL     1       4.749   2.439  20.315  0.00  0.00    +0.000 F 
ENDBRANCH  28  29
ENDBRANCH   3  28
TORSDOF 6
ENDMDL
MODEL 5
REMARK VINA RESULT:      -8.8      1.909      2.515
REMARK  Name = 
REMARK  6 active torsions:
REMARK  status: ('A' for Active; 'I' for Inactive)
REMARK    1  A    between atoms: C_2  and  O_3
REMARK    2  A    between atoms: C_2  and  C_4
REMARK    3  A    between atoms: C_7  and  N_8
REMARK    4  A    between atoms: C_9  and  C_11
REMARK    5  A    between atoms: N_13  and  C_14
REMARK    6  A    between atoms: C_14  and  C_15
REMARK                            x       y       z     vdW  Elec       q    Type
REMARK                         _______ _______ _______ _____ _____    ______ ____
ROOT
ATOM      1  C   UNL     1       3.432   6.842  17.891  0.00  0.00    +0.000 A 
ATOM      2  C   UNL     1       3.067   5.563  18.087  0.00  0.00    +0.000 A 
ATOM      3  N   UNL     1       3.670   4.433  17.523  0.00  0.00    +0.000 N 
ATOM      4  C   UNL     1       4.765   4.645  16.659  0.00  0.00    +0.000 A 
ATOM      5  C   UNL     1       5.425   3.547  15.966  0.00  0.00    +0.000 A 
ATOM      6  C   UNL     1       6.416   3.754  15.086  0.00  0.00    +0.000 A 
ATOM      7  C   UNL     1       6.899   5.124  14.823  0.00  0.00    +0.000 A 
ATOM      8  O   UNL     1       7.801   5.339  14.016  0.00  0.00    +0.000 OA
ATOM      9  N   UNL     1       6.290   6.112  15.539  0.00  0.00    +0.000 N 
ATOM     10  C   UNL     1       5.247   5.883  16.409  0.00  0.00    +0.000 A 
ATOM     11  C   UNL     1       4.629   7.070  17.058  0.00  0.00    +0.000 A 
ATOM     12  O   UNL     1       5.090   8.199  16.877  0.00  0.00    +0.000 OA
ATOM     13  H   UNL     1       6.598   7.062  15.385  0.00  0.00    +0.000 HD
ENDROOT
BRANCH   1  15
ATOM     14  N   UNL     1       2.195   7.766  19.761  0.00  0.00    +0.000 N 
ATOM     15  C   UNL     1       2.577   7.928  18.443  0.00  0.00    +0.000 C 
ATOM     16  O   UNL     1       2.322   8.905  17.740  0.00  0.00    +0.000 OA
ATOM     17  H   UNL     1       2.569   6.957  20.262  0.00  0.00    +0.000 HD
BRANCH  14  21
ATOM     18  C   UNL     1      -0.162  10.406  22.054  0.00  0.00    +0.000 A 
ATOM     19  C   UNL     1      -0.186  10.495  20.662  0.00  0.00    +0.000 A 
ATOM     20  C   UNL     1       0.594   9.628  19.898  0.00  0.00    +0.000 A 
ATOM     21  C   UNL     1       1.398   8.660  20.504  0.00  0.00    +0.000 A 
ATOM     22  C   UNL     1       1.400   8.555  21.900  0.00  0.00    +0.000 A 
ATOM     23  C   UNL     1       0.623   9.426  22.674  0.00  0.00    +0.000 A 
BRANCH  18  25
ATOM     24  O   UNL     1      -2.093  11.018  23.300  0.00  0.00    +0.000 OA
ATOM     25  C   UNL     1      -1.016  11.338  22.829  0.00  0.00    +0.000 C 
BRANCH  25  26
ATOM     26  O   UNL     1      -0.500  12.580  22.926  0.00  0.00    +0.000 OA
ATOM     27  H   UNL     1       0.392  12.619  23.318  0.00  0.00    +0.000 HD
ENDBRANCH  25  26
ENDBRANCH  18  25
ENDBRANCH  14  21
ENDBRANCH   1  15
BRANCH   3  28
ATOM     28  C   UNL     1       3.061   3.096  17.760  0.00  0.00    +0.000 C 
BRANCH  28  29
ATOM     29  C   UNL     1       2.516   2.926  19.156  0.00  0.00    +0.000 A 
ATOM     30  C   UNL     1       1.140   2.903  19.397  0.00  0.00    +0.000 A 
ATOM     31  F   UNL     1       0.279   3.074  18.383  0.00  0.00    +0.000 F 
ATOM     32  C   UNL     1       0.617   2.678  20.672  0.00  0.00    +0.000 A 
ATOM     33  C   UNL     1       1.477   2.457  21.744  0.00  0.00    +0.000 A 
ATOM     34  C   UNL     1       2.852   2.475  21.531  0.00  0.00    +0.000 A 
ATOM     35  C   UNL     1       3.356   2.709  20.250  0.00  0.00    +0.000 A 
ATOM     36  F   UNL     1       4.683   2.678  20.089  0.00  0.00    +0.000 F 
ENDBRANCH  28  29
ENDBRANCH   3  28
TORSDOF 6
ENDMDL
MODEL 6
REMARK VINA RESULT:      -8.2      4.199     10.275
REMARK  Name = 
REMARK  6 active torsions:
REMARK  status: ('A' for Active; 'I' for Inactive)
REMARK    1  A    between atoms: C_2  and  O_3
REMARK    2  A    between atoms: C_2  and  C_4
REMARK    3  A    between atoms: C_7  and  N_8
REMARK    4  A    between atoms: C_9  and  C_11
REMARK    5  A    between atoms: N_13  and  C_14
REMARK    6  A    between atoms: C_14  and  C_15
REMARK                            x       y       z     vdW  Elec       q    Type
REMARK                         _______ _______ _______ _____ _____    ______ ____
ROOT
ATOM      1  C   UNL     1       0.995   9.551  19.908  0.00  0.00    +0.000 A 
ATOM      2  C   UNL     1       1.030  10.656  19.145  0.00  0.00    +0.000 A 
ATOM      3  N   UNL     1       0.369  11.863  19.403  0.00  0.00    +0.000 N 
ATOM      4  C   UNL     1      -0.417  11.936  20.572  0.00  0.00    +0.000 A 
ATOM      5  C   UNL     1      -1.199  13.119  20.904  0.00  0.00    +0.000 A 
ATOM      6  C   UNL     1      -2.006  13.162  21.975  0.00  0.00    +0.000 A 
ATOM      7  C   UNL     1      -2.092  12.002  22.884  0.00  0.00    +0.000 A 
ATOM      8  O   UNL     1      -2.828  12.014  23.868  0.00  0.00    +0.000 OA
ATOM      9  N   UNL     1      -1.296  10.941  22.564  0.00  0.00    +0.000 N 
ATOM     10  C   UNL     1      -0.504  10.901  21.438  0.00  0.00    +0.000 A 
ATOM     11  C   UNL     1       0.246   9.644  21.177  0.00  0.00    +0.000 A 
ATOM     12  O   UNL     1       0.214   8.712  21.983  0.00  0.00    +0.000 OA
ATOM     13  H   UNL     1      -1.328  10.130  23.167  0.00  0.00    +0.000 HD
ENDROOT
BRANCH   1  15
ATOM     14  N   UNL     1       1.833   7.318  20.347  0.00  0.00    +0.000 N 
ATOM     15  C   UNL     1       1.627   8.303  19.400  0.00  0.00    +0.000 C 
ATOM     16  O   UNL     1       1.862   8.198  18.198  0.00  0.00    +0.000 OA
ATOM     17  H   UNL     1       1.490   7.497  21.294  0.00  0.00    +0.000 HD
BRANCH  14  21
ATOM     18  C   UNL     1       3.476   3.494  19.669  0.00  0.00    +0.000 A 
ATOM     19  C   UNL     1       4.177   4.627  19.256  0.00  0.00    +0.000 A 
ATOM     20  C   UNL     1       3.638   5.893  19.474  0.00  0.00    +0.000 A 
ATOM     21  C   UNL     1       2.404   6.052  20.109  0.00  0.00    +0.000 A 
ATOM     22  C   UNL     1       1.714   4.915  20.546  0.00  0.00    +0.000 A 
ATOM     23  C   UNL     1       2.247   3.638  20.327  0.00  0.00    +0.000 A 
BRANCH  18  25
ATOM     24  O   UNL     1       3.648   1.363  18.629  0.00  0.00    +0.000 OA
ATOM     25  C   UNL     1       4.090   2.166  19.431  0.00  0.00    +0.000 C 
BRANCH  25  26
ATOM     26  O   UNL     1       5.158   1.922  20.217  0.00  0.00    +0.000 OA
ATOM     27  H   UNL     1       5.460   0.995  20.218  0.00  0.00    +0.000 HD
ENDBRANCH  25  26
ENDBRANCH  18  25
ENDBRANCH  14  21
ENDBRANCH   1  15
BRANCH   3  28
ATOM     28  C   UNL     1       0.428  12.949  18.387  0.00  0.00    +0.000 C 
BRANCH  28  29
ATOM     29  C   UNL     1       1.558  13.922  18.615  0.00  0.00    +0.000 A 
ATOM     30  C   UNL     1       2.875  13.591  18.285  0.00  0.00    +0.000 A 
ATOM     31  F   UNL     1       3.157  12.375  17.794  0.00  0.00    +0.000 F 
ATOM     32  C   UNL     1       3.922  14.502  18.426  0.00  0.00    +0.000 A 
ATOM     33  C   UNL     1       3.664  15.787  18.895  0.00  0.00    +0.000 A 
ATOM     34  C   UNL     1       2.361  16.143  19.230  0.00  0.00    +0.000 A 
ATOM     35  C   UNL     1       1.328  15.214  19.090  0.00  0.00    +0.000 A 
ATOM     36  F   UNL     1       0.087  15.615  19.388  0.00  0.00    +0.000 F 
ENDBRANCH  28  29
ENDBRANCH   3  28
TORSDOF 6
ENDMDL
MODEL 7
REMARK VINA RESULT:      -8.1      4.192     10.312
REMARK  Name = 
REMARK  6 active torsions:
REMARK  status: ('A' for Active; 'I' for Inactive)
REMARK    1  A    between atoms: C_2  and  O_3
REMARK    2  A    between atoms: C_2  and  C_4
REMARK    3  A    between atoms: C_7  and  N_8
REMARK    4  A    between atoms: C_9  and  C_11
REMARK    5  A    between atoms: N_13  and  C_14
REMARK    6  A    between atoms: C_14  and  C_15
REMARK                            x       y       z     vdW  Elec       q    Type
REMARK                         _______ _______ _______ _____ _____    ______ ____
ROOT
ATOM      1  C   UNL     1       0.983   9.556  19.940  0.00  0.00    +0.000 A 
ATOM      2  C   UNL     1       1.002  10.662  19.175  0.00  0.00    +0.000 A 
ATOM      3  N   UNL     1       0.330  11.862  19.436  0.00  0.00    +0.000 N 
ATOM      4  C   UNL     1      -0.451  11.927  20.609  0.00  0.00    +0.000 A 
ATOM      5  C   UNL     1      -1.244  13.102  20.945  0.00  0.00    +0.000 A 
ATOM      6  C   UNL     1      -2.045  13.137  22.020  0.00  0.00    +0.000 A 
ATOM      7  C   UNL     1      -2.114  11.977  22.931  0.00  0.00    +0.000 A 
ATOM      8  O   UNL     1      -2.845  11.982  23.918  0.00  0.00    +0.000 OA
ATOM      9  N   UNL     1      -1.309  10.925  22.607  0.00  0.00    +0.000 N 
ATOM     10  C   UNL     1      -0.522  10.892  21.477  0.00  0.00    +0.000 A 
ATOM     11  C   UNL     1       0.240   9.643  21.213  0.00  0.00    +0.000 A 
ATOM     12  O   UNL     1       0.223   8.711  22.020  0.00  0.00    +0.000 OA
ATOM     13  H   UNL     1      -1.329  10.114  23.210  0.00  0.00    +0.000 HD
ENDROOT
BRANCH   1  15
ATOM     14  N   UNL     1       1.814   7.320  20.369  0.00  0.00    +0.000 N 
ATOM     15  C   UNL     1       1.626   8.315  19.430  0.00  0.00    +0.000 C 
ATOM     16  O   UNL     1       1.885   8.224  18.231  0.00  0.00    +0.000 OA
ATOM     17  H   UNL     1       1.453   7.487  21.311  0.00  0.00    +0.000 HD
BRANCH  14  21
ATOM     18  C   UNL     1       3.475   3.504  19.682  0.00  0.00    +0.000 A 
ATOM     19  C   UNL     1       4.152   4.640  19.237  0.00  0.00    +0.000 A 
ATOM     20  C   UNL     1       3.607   5.903  19.458  0.00  0.00    +0.000 A 
ATOM     21  C   UNL     1       2.391   6.056  20.127  0.00  0.00    +0.000 A 
ATOM     22  C   UNL     1       1.725   4.917  20.596  0.00  0.00    +0.000 A 
ATOM     23  C   UNL     1       2.265   3.643  20.374  0.00  0.00    +0.000 A 
BRANCH  18  25
ATOM     24  O   UNL     1       3.673   1.388  18.616  0.00  0.00    +0.000 OA
ATOM     25  C   UNL     1       4.095   2.180  19.440  0.00  0.00    +0.000 C 
BRANCH  25  26
ATOM     26  O   UNL     1       5.145   1.926  20.247  0.00  0.00    +0.000 OA
ATOM     27  H   UNL     1       5.383   2.657  20.847  0.00  0.00    +0.000 HD
ENDBRANCH  25  26
ENDBRANCH  18  25
ENDBRANCH  14  21
ENDBRANCH   1  15
BRANCH   3  28
ATOM     28  C   UNL     1       0.371  12.947  18.419  0.00  0.00    +0.000 C 
BRANCH  28  29
ATOM     29  C   UNL     1       1.522  13.904  18.611  0.00  0.00    +0.000 A 
ATOM     30  C   UNL     1       1.328  15.162  19.187  0.00  0.00    +0.000 A 
ATOM     31  F   UNL     1       0.095  15.553  19.542  0.00  0.00    +0.000 F 
ATOM     32  C   UNL     1       2.390  16.032  19.435  0.00  0.00    +0.000 A 
ATOM     33  C   UNL     1       3.690  15.647  19.116  0.00  0.00    +0.000 A 
ATOM     34  C   UNL     1       3.910  14.399  18.542  0.00  0.00    +0.000 A 
ATOM     35  C   UNL     1       2.834  13.545  18.296  0.00  0.00    +0.000 A 
ATOM     36  F   UNL     1       3.101  12.341  17.778  0.00  0.00    +0.000 F 
ENDBRANCH  28  29
ENDBRANCH   3  28
TORSDOF 6
ENDMDL
MODEL 8
REMARK VINA RESULT:      -8.0      4.059     10.039
REMARK  Name = 
REMARK  6 active torsions:
REMARK  status: ('A' for Active; 'I' for Inactive)
REMARK    1  A    between atoms: C_2  and  O_3
REMARK    2  A    between atoms: C_2  and  C_4
REMARK    3  A    between atoms: C_7  and  N_8
REMARK    4  A    between atoms: C_9  and  C_11
REMARK    5  A    between atoms: N_13  and  C_14
REMARK    6  A    between atoms: C_14  and  C_15
REMARK                            x       y       z     vdW  Elec       q    Type
REMARK                         _______ _______ _______ _____ _____    ______ ____
ROOT
ATOM      1  C   UNL     1       0.248  10.039  21.218  0.00  0.00    +0.000 A 
ATOM      2  C   UNL     1      -0.117  10.741  20.132  0.00  0.00    +0.000 A 
ATOM      3  N   UNL     1      -1.114  11.722  20.075  0.00  0.00    +0.000 N 
ATOM      4  C   UNL     1      -1.814  12.007  21.266  0.00  0.00    +0.000 A 
ATOM      5  C   UNL     1      -2.913  12.961  21.307  0.00  0.00    +0.000 A 
ATOM      6  C   UNL     1      -3.629  13.176  22.421  0.00  0.00    +0.000 A 
ATOM      7  C   UNL     1      -3.286  12.467  23.670  0.00  0.00    +0.000 A 
ATOM      8  O   UNL     1      -3.930  12.642  24.701  0.00  0.00    +0.000 OA
ATOM      9  N   UNL     1      -2.213  11.629  23.596  0.00  0.00    +0.000 N 
ATOM     10  C   UNL     1      -1.515  11.391  22.433  0.00  0.00    +0.000 A 
ATOM     11  C   UNL     1      -0.418  10.389  22.489  0.00  0.00    +0.000 A 
ATOM     12  O   UNL     1      -0.104   9.857  23.556  0.00  0.00    +0.000 OA
ATOM     13  H   UNL     1      -1.949  11.128  24.434  0.00  0.00    +0.000 HD
ENDROOT
BRANCH   1  15
ATOM     14  N   UNL     1       1.363   8.444  19.773  0.00  0.00    +0.000 N 
ATOM     15  C   UNL     1       1.216   8.920  21.062  0.00  0.00    +0.000 C 
ATOM     16  O   UNL     1       1.854   8.538  22.042  0.00  0.00    +0.000 OA
ATOM     17  H   UNL     1       0.849   8.925  19.033  0.00  0.00    +0.000 HD
BRANCH  14  21
ATOM     18  C   UNL     1       3.961   5.370  18.514  0.00  0.00    +0.000 A 
ATOM     19  C   UNL     1       3.169   5.180  19.646  0.00  0.00    +0.000 A 
ATOM     20  C   UNL     1       2.311   6.193  20.070  0.00  0.00    +0.000 A 
ATOM     21  C   UNL     1       2.223   7.400  19.373  0.00  0.00    +0.000 A 
ATOM     22  C   UNL     1       2.999   7.579  18.222  0.00  0.00    +0.000 A 
ATOM     23  C   UNL     1       3.867   6.567  17.792  0.00  0.00    +0.000 A 
BRANCH  18  25
ATOM     24  O   UNL     1       4.889   3.842  16.945  0.00  0.00    +0.000 OA
ATOM     25  C   UNL     1       4.850   4.263  18.088  0.00  0.00    +0.000 C 
BRANCH  25  26
ATOM     26  O   UNL     1       5.580   3.745  19.097  0.00  0.00    +0.000 OA
ATOM     27  H   UNL     1       6.535   3.935  19.048  0.00  0.00    +0.000 HD
ENDBRANCH  25  26
ENDBRANCH  18  25
ENDBRANCH  14  21
ENDBRANCH   1  15
BRANCH   3  28
ATOM     28  C   UNL     1      -1.464  12.319  18.758  0.00  0.00    +0.000 C 
BRANCH  28  29
ATOM     29  C   UNL     1      -2.361  11.440  17.921  0.00  0.00    +0.000 A 
ATOM     30  C   UNL     1      -3.734  11.685  17.830  0.00  0.00    +0.000 A 
ATOM     31  F   UNL     1      -4.282  12.693  18.526  0.00  0.00    +0.000 F 
ATOM     32  C   UNL     1      -4.566  10.925  17.008  0.00  0.00    +0.000 A 
ATOM     33  C   UNL     1      -4.030   9.895  16.240  0.00  0.00    +0.000 A 
ATOM     34  C   UNL     1      -2.665   9.630  16.312  0.00  0.00    +0.000 A 
ATOM     35  C   UNL     1      -1.850  10.397  17.146  0.00  0.00    +0.000 A 
ATOM     36  F   UNL     1      -0.539  10.129  17.152  0.00  0.00    +0.000 F 
ENDBRANCH  28  29
ENDBRANCH   3  28
TORSDOF 6
ENDMDL
MODEL 9
REMARK VINA RESULT:      -8.0      4.321     10.557
REMARK  Name = 
REMARK  6 active torsions:
REMARK  status: ('A' for Active; 'I' for Inactive)
REMARK    1  A    between atoms: C_2  and  O_3
REMARK    2  A    between atoms: C_2  and  C_4
REMARK    3  A    between atoms: C_7  and  N_8
REMARK    4  A    between atoms: C_9  and  C_11
REMARK    5  A    between atoms: N_13  and  C_14
REMARK    6  A    between atoms: C_14  and  C_15
REMARK                            x       y       z     vdW  Elec       q    Type
REMARK                         _______ _______ _______ _____ _____    ______ ____
ROOT
ATOM      1  C   UNL     1       0.403  10.127  21.420  0.00  0.00    +0.000 A 
ATOM      2  C   UNL     1       0.356  10.889  20.314  0.00  0.00    +0.000 A 
ATOM      3  N   UNL     1      -0.516  11.960  20.082  0.00  0.00    +0.000 N 
ATOM      4  C   UNL     1      -1.442  12.275  21.098  0.00  0.00    +0.000 A 
ATOM      5  C   UNL     1      -2.437  13.327  20.936  0.00  0.00    +0.000 A 
ATOM      6  C   UNL     1      -3.367  13.577  21.870  0.00  0.00    +0.000 A 
ATOM      7  C   UNL     1      -3.380  12.805  23.128  0.00  0.00    +0.000 A 
ATOM      8  O   UNL     1      -4.225  13.011  23.996  0.00  0.00    +0.000 OA
ATOM      9  N   UNL     1      -2.392  11.873  23.258  0.00  0.00    +0.000 N 
ATOM     10  C   UNL     1      -1.470  11.604  22.271  0.00  0.00    +0.000 A 
ATOM     11  C   UNL     1      -0.503  10.502  22.524  0.00  0.00    +0.000 A 
ATOM     12  O   UNL     1      -0.486   9.915  23.608  0.00  0.00    +0.000 OA
ATOM     13  H   UNL     1      -2.369  11.327  24.109  0.00  0.00    +0.000 HD
ENDROOT
BRANCH   1  15
ATOM     14  N   UNL     1       1.216   8.136  20.302  0.00  0.00    +0.000 N 
ATOM     15  C   UNL     1       1.283   8.927  21.432  0.00  0.00    +0.000 C 
ATOM     16  O   UNL     1       2.040   8.749  22.385  0.00  0.00    +0.000 OA
ATOM     17  H   UNL     1       0.622   8.460  19.535  0.00  0.00    +0.000 HD
BRANCH  14  21
ATOM     18  C   UNL     1       3.477   4.653  19.565  0.00  0.00    +0.000 A 
ATOM     19  C   UNL     1       2.482   4.633  20.542  0.00  0.00    +0.000 A 
ATOM     20  C   UNL     1       1.734   5.782  20.793  0.00  0.00    +0.000 A 
ATOM     21  C   UNL     1       1.957   6.958  20.075  0.00  0.00    +0.000 A 
ATOM     22  C   UNL     1       2.938   6.969  19.075  0.00  0.00    +0.000 A 
ATOM     23  C   UNL     1       3.698   5.819  18.821  0.00  0.00    +0.000 A 
BRANCH  18  25
ATOM     24  O   UNL     1       3.725   2.303  19.297  0.00  0.00    +0.000 OA
ATOM     25  C   UNL     1       4.241   3.406  19.319  0.00  0.00    +0.000 C 
BRANCH  25  26
ATOM     26  O   UNL     1       5.564   3.613  19.160  0.00  0.00    +0.000 OA
ATOM     27  H   UNL     1       5.827   4.551  19.125  0.00  0.00    +0.000 HD
ENDBRANCH  25  26
ENDBRANCH  18  25
ENDBRANCH  14  21
ENDBRANCH   1  15
BRANCH   3  28
ATOM     28  C   UNL     1      -0.505  12.622  18.749  0.00  0.00    +0.000 C 
BRANCH  28  29
ATOM     29  C   UNL     1       0.590  13.649  18.600  0.00  0.00    +0.000 A 
ATOM     30  C   UNL     1       0.361  14.997  18.888  0.00  0.00    +0.000 A 
ATOM     31  F   UNL     1      -0.860  15.404  19.266  0.00  0.00    +0.000 F 
ATOM     32  C   UNL     1       1.379  15.950  18.822  0.00  0.00    +0.000 A 
ATOM     33  C   UNL     1       2.669  15.561  18.471  0.00  0.00    +0.000 A 
ATOM     34  C   UNL     1       2.924  14.224  18.180  0.00  0.00    +0.000 A 
ATOM     35  C   UNL     1       1.891  13.288  18.245  0.00  0.00    +0.000 A 
ATOM     36  F   UNL     1       2.194  12.009  17.994  0.00  0.00    +0.000 F 
ENDBRANCH  28  29
ENDBRANCH   3  28
TORSDOF 6
ENDMDL
