MODEL 1
REMARK VINA RESULT:      -7.3      0.000      0.000
REMARK  Name = 
REMARK  19 active torsions:
REMARK  status: ('A' for Active; 'I' for Inactive)
REMARK    1  A    between atoms: C_1  and  O_2
REMARK    2  A    between atoms: O_2  and  C_3
REMARK    3  A    between atoms: C_3  and  C_5
REMARK    4  A    between atoms: C_5  and  C_6
REMARK    5  A    between atoms: C_5  and  N_13
REMARK    6  A    between atoms: C_6  and  C_7
REMARK    7  A    between atoms: C_14  and  C_16
REMARK    8  A    between atoms: C_16  and  N_17
REMARK    9  A    between atoms: C_16  and  C_29
REMARK   10  A    between atoms: C_18  and  C_20
REMARK   11  A    between atoms: C_20  and  C_21
REMARK   12  A    between atoms: C_22  and  C_23
REMARK   13  A    between atoms: C_23  and  N_24
REMARK   14  A    between atoms: C_23  and  C_25
REMARK   15  A    between atoms: C_25  and  C_26
REMARK   16  A    between atoms: C_26  and  C_27
REMARK   17  A    between atoms: C_26  and  C_28
REMARK   18  A    between atoms: C_29  and  C_30
REMARK   19  A    between atoms: C_29  and  C_31
REMARK                            x       y       z     vdW  Elec       q    Type
REMARK                         _______ _______ _______ _____ _____    ______ ____
ROOT
ATOM      1  C   UNL     1       3.335   4.963  19.309  0.00  0.00    +0.000 C 
ENDROOT
BRANCH   1   3
ATOM      2  N   UNL     1       5.509   5.826  18.550  0.00  0.00    +0.000 N 
ATOM      3  C   UNL     1       4.872   4.838  19.263  0.00  0.00    +0.000 C 
ATOM      4  O   UNL     1       5.474   3.885  19.758  0.00  0.00    +0.000 OA
ATOM      5  H   UNL     1       4.951   6.481  18.005  0.00  0.00    +0.000 HD
BRANCH   2   6
ATOM      6  C   UNL     1       6.965   5.856  18.381  0.00  0.00    +0.000 C 
BRANCH   6   7
ATOM      7  C   UNL     1       7.476   7.175  17.781  0.00  0.00    +0.000 C 
ATOM      8  O   UNL     1       7.054   7.662  16.738  0.00  0.00    +0.000 OA
BRANCH   7  10
ATOM      9  C   UNL     1       8.536   9.168  18.419  0.00  0.00    +0.000 C 
ATOM     10  O   UNL     1       8.437   7.750  18.563  0.00  0.00    +0.000 OA
ENDBRANCH   7  10
ENDBRANCH   6   7
BRANCH   6  11
ATOM     11  C   UNL     1       7.517   4.648  17.590  0.00  0.00    +0.000 C 
BRANCH  11  12
ATOM     12  C   UNL     1       6.906   4.453  16.218  0.00  0.00    +0.000 A 
ATOM     13  C   UNL     1       7.555   4.906  15.062  0.00  0.00    +0.000 A 
ATOM     14  C   UNL     1       6.939   4.804  13.814  0.00  0.00    +0.000 A 
ATOM     15  C   UNL     1       5.689   4.204  13.702  0.00  0.00    +0.000 A 
ATOM     16  C   UNL     1       5.063   3.686  14.834  0.00  0.00    +0.000 A 
ATOM     17  C   UNL     1       5.664   3.816  16.087  0.00  0.00    +0.000 A 
ENDBRANCH  11  12
ENDBRANCH   6  11
ENDBRANCH   2   6
ENDBRANCH   1   3
BRANCH   1  18
ATOM     18  N   UNL     1       2.972   6.046  18.402  0.00  0.00    +0.000 N 
ATOM     19  C   UNL     1       2.395   7.206  18.874  0.00  0.00    +0.000 C 
ATOM     20  O   UNL     1       2.082   7.359  20.048  0.00  0.00    +0.000 OA
ATOM     21  H   UNL     1       3.392   6.054  17.477  0.00  0.00    +0.000 HD
BRANCH  19  22
ATOM     22  C   UNL     1       2.128   8.269  17.807  0.00  0.00    +0.000 C 
BRANCH  22  23
ATOM     23  C   UNL     1       1.660   9.541  18.446  0.00  0.00    +0.000 C 
ATOM     24  C   UNL     1       0.416  10.039  18.360  0.00  0.00    +0.000 C 
BRANCH  24  25
ATOM     25  C   UNL     1      -0.005  11.339  18.990  0.00  0.00    +0.000 C 
BRANCH  25  26
ATOM     26  N   UNL     1      -0.368  12.276  17.926  0.00  0.00    +0.000 NA
ATOM     27  H   UNL     1      -1.361  12.203  17.717  0.00  0.00    +0.000 HD
ATOM     28  H   UNL     1       0.131  12.021  17.075  0.00  0.00    +0.000 HD
ENDBRANCH  25  26
BRANCH  25  29
ATOM     29  C   UNL     1      -1.192  11.184  19.956  0.00  0.00    +0.000 C 
BRANCH  29  30
ATOM     30  C   UNL     1      -0.846  11.317  21.455  0.00  0.00    +0.000 C 
ATOM     31  C   UNL     1       0.101  10.226  21.958  0.00  0.00    +0.000 C 
ATOM     32  C   UNL     1      -0.226  12.692  21.720  0.00  0.00    +0.000 C 
ENDBRANCH  29  30
ENDBRANCH  25  29
ENDBRANCH  24  25
ENDBRANCH  22  23
ENDBRANCH  19  22
ENDBRANCH   1  18
BRANCH   1  33
ATOM     33  C   UNL     1       2.674   3.628  18.895  0.00  0.00    +0.000 C 
ATOM     34  C   UNL     1       1.426   3.344  19.744  0.00  0.00    +0.000 C 
ATOM     35  C   UNL     1       2.271   3.632  17.418  0.00  0.00    +0.000 C 
ENDBRANCH   1  33
TORSDOF 14
ENDMDL
MODEL 2
REMARK VINA RESULT:      -7.2      2.646      7.442
REMARK  Name = 
REMARK  19 active torsions:
REMARK  status: ('A' for Active; 'I' for Inactive)
REMARK    1  A    between atoms: C_1  and  O_2
REMARK    2  A    between atoms: O_2  and  C_3
REMARK    3  A    between atoms: C_3  and  C_5
REMARK    4  A    between atoms: C_5  and  C_6
REMARK    5  A    between atoms: C_5  and  N_13
REMARK    6  A    between atoms: C_6  and  C_7
REMARK    7  A    between atoms: C_14  and  C_16
REMARK    8  A    between atoms: C_16  and  N_17
REMARK    9  A    between atoms: C_16  and  C_29
REMARK   10  A    between atoms: C_18  and  C_20
REMARK   11  A    between atoms: C_20  and  C_21
REMARK   12  A    between atoms: C_22  and  C_23
REMARK   13  A    between atoms: C_23  and  N_24
REMARK   14  A    between atoms: C_23  and  C_25
REMARK   15  A    between atoms: C_25  and  C_26
REMARK   16  A    between atoms: C_26  and  C_27
REMARK   17  A    between atoms: C_26  and  C_28
REMARK   18  A    between atoms: C_29  and  C_30
REMARK   19  A    between atoms: C_29  and  C_31
REMARK                            x       y       z     vdW  Elec       q    Type
REMARK                         _______ _______ _______ _____ _____    ______ ____
ROOT
ATOM      1  C   UNL     1       5.632   5.898  16.818  0.00  0.00    +0.000 C 
ENDROOT
BRANCH   1   3
ATOM      2  N   UNL     1       3.794   7.015  18.007  0.00  0.00    +0.000 N 
ATOM      3  C   UNL     1       4.171   5.891  17.312  0.00  0.00    +0.000 C 
ATOM      4  O   UNL     1       3.426   4.923  17.163  0.00  0.00    +0.000 OA
ATOM      5  H   UNL     1       4.503   7.701  18.263  0.00  0.00    +0.000 HD
BRANCH   2   6
ATOM      6  C   UNL     1       2.449   7.174  18.570  0.00  0.00    +0.000 C 
BRANCH   6   7
ATOM      7  C   UNL     1       1.885   8.592  18.394  0.00  0.00    +0.000 C 
ATOM      8  O   UNL     1       1.807   9.170  17.315  0.00  0.00    +0.000 OA
BRANCH   7  10
ATOM      9  C   UNL     1       0.163   9.721  19.519  0.00  0.00    +0.000 C 
ATOM     10  O   UNL     1       1.459   9.120  19.579  0.00  0.00    +0.000 OA
ENDBRANCH   7  10
ENDBRANCH   6   7
BRANCH   6  11
ATOM     11  C   UNL     1       2.344   6.725  20.046  0.00  0.00    +0.000 C 
BRANCH  11  12
ATOM     12  C   UNL     1       2.137   5.239  20.247  0.00  0.00    +0.000 A 
ATOM     13  C   UNL     1       3.217   4.380  20.488  0.00  0.00    +0.000 A 
ATOM     14  C   UNL     1       3.022   3.001  20.577  0.00  0.00    +0.000 A 
ATOM     15  C   UNL     1       1.741   2.471  20.476  0.00  0.00    +0.000 A 
ATOM     16  C   UNL     1       0.649   3.320  20.307  0.00  0.00    +0.000 A 
ATOM     17  C   UNL     1       0.845   4.696  20.185  0.00  0.00    +0.000 A 
ENDBRANCH  11  12
ENDBRANCH   6  11
ENDBRANCH   2   6
ENDBRANCH   1   3
BRANCH   1  18
ATOM     18  N   UNL     1       6.395   6.700  17.766  0.00  0.00    +0.000 N 
ATOM     19  C   UNL     1       7.534   7.373  17.376  0.00  0.00    +0.000 C 
ATOM     20  O   UNL     1       8.010   7.270  16.252  0.00  0.00    +0.000 OA
ATOM     21  H   UNL     1       5.939   6.979  18.630  0.00  0.00    +0.000 HD
BRANCH  19  22
ATOM     22  C   UNL     1       8.188   8.217  18.471  0.00  0.00    +0.000 C 
BRANCH  22  23
ATOM     23  C   UNL     1       8.453   9.604  17.969  0.00  0.00    +0.000 C 
ATOM     24  C   UNL     1       9.301  10.481  18.530  0.00  0.00    +0.000 C 
BRANCH  24  25
ATOM     25  C   UNL     1       9.513  11.878  18.013  0.00  0.00    +0.000 C 
BRANCH  25  26
ATOM     26  N   UNL     1       8.237  12.385  17.506  0.00  0.00    +0.000 NA
ATOM     27  H   UNL     1       7.921  11.821  16.721  0.00  0.00    +0.000 HD
ATOM     28  H   UNL     1       8.374  13.331  17.153  0.00  0.00    +0.000 HD
ENDBRANCH  25  26
BRANCH  25  29
ATOM     29  C   UNL     1      10.052  12.842  19.084  0.00  0.00    +0.000 C 
BRANCH  29  30
ATOM     30  C   UNL     1      11.584  13.037  19.087  0.00  0.00    +0.000 C 
ATOM     31  C   UNL     1      12.330  11.965  19.883  0.00  0.00    +0.000 C 
ATOM     32  C   UNL     1      12.102  13.057  17.647  0.00  0.00    +0.000 C 
ENDBRANCH  29  30
ENDBRANCH  25  29
ENDBRANCH  24  25
ENDBRANCH  22  23
ENDBRANCH  19  22
ENDBRANCH   1  18
BRANCH   1  33
ATOM     33  C   UNL     1       6.176   4.453  16.727  0.00  0.00    +0.000 C 
ATOM     34  C   UNL     1       6.449   4.056  15.270  0.00  0.00    +0.000 C 
ATOM     35  C   UNL     1       7.469   4.285  17.531  0.00  0.00    +0.000 C 
ENDBRANCH   1  33
TORSDOF 14
ENDMDL
MODEL 3
REMARK VINA RESULT:      -7.2      2.152      3.101
REMARK  Name = 
REMARK  19 active torsions:
REMARK  status: ('A' for Active; 'I' for Inactive)
REMARK    1  A    between atoms: C_1  and  O_2
REMARK    2  A    between atoms: O_2  and  C_3
REMARK    3  A    between atoms: C_3  and  C_5
REMARK    4  A    between atoms: C_5  and  C_6
REMARK    5  A    between atoms: C_5  and  N_13
REMARK    6  A    between atoms: C_6  and  C_7
REMARK    7  A    between atoms: C_14  and  C_16
REMARK    8  A    between atoms: C_16  and  N_17
REMARK    9  A    between atoms: C_16  and  C_29
REMARK   10  A    between atoms: C_18  and  C_20
REMARK   11  A    between atoms: C_20  and  C_21
REMARK   12  A    between atoms: C_22  and  C_23
REMARK   13  A    between atoms: C_23  and  N_24
REMARK   14  A    between atoms: C_23  and  C_25
REMARK   15  A    between atoms: C_25  and  C_26
REMARK   16  A    between atoms: C_26  and  C_27
REMARK   17  A    between atoms: C_26  and  C_28
REMARK   18  A    between atoms: C_29  and  C_30
REMARK   19  A    between atoms: C_29  and  C_31
REMARK                            x       y       z     vdW  Elec       q    Type
REMARK                         _______ _______ _______ _____ _____    ______ ____
ROOT
ATOM      1  C   UNL     1       3.164   5.017  18.506  0.00  0.00    +0.000 C 
ENDROOT
BRANCH   1   3
ATOM      2  N   UNL     1       4.709   5.141  16.599  0.00  0.00    +0.000 N 
ATOM      3  C   UNL     1       4.229   4.348  17.614  0.00  0.00    +0.000 C 
ATOM      4  O   UNL     1       4.563   3.172  17.751  0.00  0.00    +0.000 OA
ATOM      5  H   UNL     1       4.262   6.038  16.416  0.00  0.00    +0.000 HD
BRANCH   2   6
ATOM      6  C   UNL     1       5.710   4.664  15.639  0.00  0.00    +0.000 C 
BRANCH   6   7
ATOM      7  C   UNL     1       7.146   5.060  16.018  0.00  0.00    +0.000 C 
ATOM      8  O   UNL     1       7.770   5.968  15.480  0.00  0.00    +0.000 OA
BRANCH   7  10
ATOM      9  C   UNL     1       7.723   4.982  18.291  0.00  0.00    +0.000 C 
ATOM     10  O   UNL     1       7.631   4.295  17.040  0.00  0.00    +0.000 OA
ENDBRANCH   7  10
ENDBRANCH   6   7
BRANCH   6  11
ATOM     11  C   UNL     1       5.402   5.066  14.179  0.00  0.00    +0.000 C 
BRANCH  11  12
ATOM     12  C   UNL     1       5.726   4.008  13.145  0.00  0.00    +0.000 A 
ATOM     13  C   UNL     1       7.051   3.718  12.793  0.00  0.00    +0.000 A 
ATOM     14  C   UNL     1       7.332   2.809  11.772  0.00  0.00    +0.000 A 
ATOM     15  C   UNL     1       6.295   2.142  11.128  0.00  0.00    +0.000 A 
ATOM     16  C   UNL     1       4.976   2.369  11.516  0.00  0.00    +0.000 A 
ATOM     17  C   UNL     1       4.692   3.302  12.515  0.00  0.00    +0.000 A 
ENDBRANCH  11  12
ENDBRANCH   6  11
ENDBRANCH   2   6
ENDBRANCH   1   3
BRANCH   1  18
ATOM     18  N   UNL     1       2.834   6.295  17.886  0.00  0.00    +0.000 N 
ATOM     19  C   UNL     1       2.580   7.414  18.651  0.00  0.00    +0.000 C 
ATOM     20  O   UNL     1       2.533   7.381  19.874  0.00  0.00    +0.000 OA
ATOM     21  H   UNL     1       3.061   6.421  16.904  0.00  0.00    +0.000 HD
BRANCH  19  22
ATOM     22  C   UNL     1       2.308   8.690  17.852  0.00  0.00    +0.000 C 
BRANCH  22  23
ATOM     23  C   UNL     1       1.114   9.405  18.406  0.00  0.00    +0.000 C 
ATOM     24  C   UNL     1      -0.058   9.563  17.769  0.00  0.00    +0.000 C 
BRANCH  24  25
ATOM     25  C   UNL     1      -1.222  10.319  18.349  0.00  0.00    +0.000 C 
BRANCH  25  26
ATOM     26  N   UNL     1      -0.986  11.752  18.164  0.00  0.00    +0.000 NA
ATOM     27  H   UNL     1      -1.742  12.166  17.625  0.00  0.00    +0.000 HD
ATOM     28  H   UNL     1      -0.133  11.879  17.620  0.00  0.00    +0.000 HD
ENDBRANCH  25  26
BRANCH  25  29
ATOM     29  C   UNL     1      -2.567   9.941  17.705  0.00  0.00    +0.000 C 
BRANCH  29  30
ATOM     30  C   UNL     1      -3.032  10.862  16.556  0.00  0.00    +0.000 C 
ATOM     31  C   UNL     1      -2.891  10.225  15.172  0.00  0.00    +0.000 C 
ATOM     32  C   UNL     1      -4.490  11.270  16.782  0.00  0.00    +0.000 C 
ENDBRANCH  29  30
ENDBRANCH  25  29
ENDBRANCH  24  25
ENDBRANCH  22  23
ENDBRANCH  19  22
ENDBRANCH   1  18
BRANCH   1  33
ATOM     33  C   UNL     1       1.918   4.109  18.633  0.00  0.00    +0.000 C 
ATOM     34  C   UNL     1       1.171   4.377  19.946  0.00  0.00    +0.000 C 
ATOM     35  C   UNL     1       0.949   4.314  17.466  0.00  0.00    +0.000 C 
ENDBRANCH   1  33
TORSDOF 14
ENDMDL
MODEL 4
REMARK VINA RESULT:      -7.1      1.709      2.573
REMARK  Name = 
REMARK  19 active torsions:
REMARK  status: ('A' for Active; 'I' for Inactive)
REMARK    1  A    between atoms: C_1  and  O_2
REMARK    2  A    between atoms: O_2  and  C_3
REMARK    3  A    between atoms: C_3  and  C_5
REMARK    4  A    between atoms: C_5  and  C_6
REMARK    5  A    between atoms: C_5  and  N_13
REMARK    6  A    between atoms: C_6  and  C_7
REMARK    7  A    between atoms: C_14  and  C_16
REMARK    8  A    between atoms: C_16  and  N_17
REMARK    9  A    between atoms: C_16  and  C_29
REMARK   10  A    between atoms: C_18  and  C_20
REMARK   11  A    between atoms: C_20  and  C_21
REMARK   12  A    between atoms: C_22  and  C_23
REMARK   13  A    between atoms: C_23  and  N_24
REMARK   14  A    between atoms: C_23  and  C_25
REMARK   15  A    between atoms: C_25  and  C_26
REMARK   16  A    between atoms: C_26  and  C_27
REMARK   17  A    between atoms: C_26  and  C_28
REMARK   18  A    between atoms: C_29  and  C_30
REMARK   19  A    between atoms: C_29  and  C_31
REMARK                            x       y       z     vdW  Elec       q    Type
REMARK                         _______ _______ _______ _____ _____    ______ ____
ROOT
ATOM      1  C   UNL     1       3.306   5.154  19.228  0.00  0.00    +0.000 C 
ENDROOT
BRANCH   1   3
ATOM      2  N   UNL     1       5.325   5.726  17.948  0.00  0.00    +0.000 N 
ATOM      3  C   UNL     1       4.748   4.814  18.800  0.00  0.00    +0.000 C 
ATOM      4  O   UNL     1       5.308   3.769  19.131  0.00  0.00    +0.000 OA
ATOM      5  H   UNL     1       4.751   6.472  17.558  0.00  0.00    +0.000 HD
BRANCH   2   6
ATOM      6  C   UNL     1       6.682   5.555  17.421  0.00  0.00    +0.000 C 
BRANCH   6   7
ATOM      7  C   UNL     1       7.772   6.036  18.392  0.00  0.00    +0.000 C 
ATOM      8  O   UNL     1       8.164   7.196  18.462  0.00  0.00    +0.000 OA
BRANCH   7  10
ATOM      9  C   UNL     1       8.210   5.314  20.581  0.00  0.00    +0.000 C 
ATOM     10  O   UNL     1       8.233   5.021  19.182  0.00  0.00    +0.000 OA
ENDBRANCH   7  10
ENDBRANCH   6   7
BRANCH   6  11
ATOM     11  C   UNL     1       6.883   6.185  16.023  0.00  0.00    +0.000 C 
BRANCH  11  12
ATOM     12  C   UNL     1       6.583   5.262  14.860  0.00  0.00    +0.000 A 
ATOM     13  C   UNL     1       5.457   4.429  14.865  0.00  0.00    +0.000 A 
ATOM     14  C   UNL     1       5.244   3.516  13.831  0.00  0.00    +0.000 A 
ATOM     15  C   UNL     1       6.126   3.462  12.757  0.00  0.00    +0.000 A 
ATOM     16  C   UNL     1       7.212   4.334  12.705  0.00  0.00    +0.000 A 
ATOM     17  C   UNL     1       7.444   5.225  13.754  0.00  0.00    +0.000 A 
ENDBRANCH  11  12
ENDBRANCH   6  11
ENDBRANCH   2   6
ENDBRANCH   1   3
BRANCH   1  18
ATOM     18  N   UNL     1       2.877   6.283  18.410  0.00  0.00    +0.000 N 
ATOM     19  C   UNL     1       2.323   7.408  18.984  0.00  0.00    +0.000 C 
ATOM     20  O   UNL     1       2.086   7.490  20.182  0.00  0.00    +0.000 OA
ATOM     21  H   UNL     1       3.235   6.348  17.462  0.00  0.00    +0.000 HD
BRANCH  19  22
ATOM     22  C   UNL     1       1.980   8.527  17.999  0.00  0.00    +0.000 C 
BRANCH  22  23
ATOM     23  C   UNL     1       0.809   9.318  18.499  0.00  0.00    +0.000 C 
ATOM     24  C   UNL     1       0.124  10.223  17.782  0.00  0.00    +0.000 C 
BRANCH  24  25
ATOM     25  C   UNL     1      -1.026  11.021  18.334  0.00  0.00    +0.000 C 
BRANCH  25  26
ATOM     26  N   UNL     1      -0.977  12.367  17.759  0.00  0.00    +0.000 NA
ATOM     27  H   UNL     1      -1.883  12.821  17.849  0.00  0.00    +0.000 HD
ATOM     28  H   UNL     1      -0.782  12.294  16.762  0.00  0.00    +0.000 HD
ENDBRANCH  25  26
BRANCH  25  29
ATOM     29  C   UNL     1      -2.397  10.392  18.032  0.00  0.00    +0.000 C 
BRANCH  29  30
ATOM     30  C   UNL     1      -3.117  10.945  16.783  0.00  0.00    +0.000 C 
ATOM     31  C   UNL     1      -3.076   9.992  15.587  0.00  0.00    +0.000 C 
ATOM     32  C   UNL     1      -4.574  11.264  17.129  0.00  0.00    +0.000 C 
ENDBRANCH  29  30
ENDBRANCH  25  29
ENDBRANCH  24  25
ENDBRANCH  22  23
ENDBRANCH  19  22
ENDBRANCH   1  18
BRANCH   1  33
ATOM     33  C   UNL     1       2.383   3.928  19.034  0.00  0.00    +0.000 C 
ATOM     34  C   UNL     1       1.379   3.805  20.188  0.00  0.00    +0.000 C 
ATOM     35  C   UNL     1       1.608   4.007  17.716  0.00  0.00    +0.000 C 
ENDBRANCH   1  33
TORSDOF 14
ENDMDL
MODEL 5
REMARK VINA RESULT:      -7.1      1.942      2.910
REMARK  Name = 
REMARK  19 active torsions:
REMARK  status: ('A' for Active; 'I' for Inactive)
REMARK    1  A    between atoms: C_1  and  O_2
REMARK    2  A    between atoms: O_2  and  C_3
REMARK    3  A    between atoms: C_3  and  C_5
REMARK    4  A    between atoms: C_5  and  C_6
REMARK    5  A    between atoms: C_5  and  N_13
REMARK    6  A    between atoms: C_6  and  C_7
REMARK    7  A    between atoms: C_14  and  C_16
REMARK    8  A    between atoms: C_16  and  N_17
REMARK    9  A    between atoms: C_16  and  C_29
REMARK   10  A    between atoms: C_18  and  C_20
REMARK   11  A    between atoms: C_20  and  C_21
REMARK   12  A    between atoms: C_22  and  C_23
REMARK   13  A    between atoms: C_23  and  N_24
REMARK   14  A    between atoms: C_23  and  C_25
REMARK   15  A    between atoms: C_25  and  C_26
REMARK   16  A    between atoms: C_26  and  C_27
REMARK   17  A    between atoms: C_26  and  C_28
REMARK   18  A    between atoms: C_29  and  C_30
REMARK   19  A    between atoms: C_29  and  C_31
REMARK                            x       y       z     vdW  Elec       q    Type
REMARK                         _______ _______ _______ _____ _____    ______ ____
ROOT
ATOM      1  C   UNL     1       3.410   4.343  18.579  0.00  0.00    +0.000 C 
ENDROOT
BRANCH   1   3
ATOM      2  N   UNL     1       5.154   3.884  16.907  0.00  0.00    +0.000 N 
ATOM      3  C   UNL     1       4.397   4.860  17.512  0.00  0.00    +0.000 C 
ATOM      4  O   UNL     1       4.552   6.058  17.278  0.00  0.00    +0.000 OA
ATOM      5  H   UNL     1       5.119   2.933  17.273  0.00  0.00    +0.000 HD
BRANCH   2   6
ATOM      6  C   UNL     1       6.158   4.192  15.885  0.00  0.00    +0.000 C 
BRANCH   6   7
ATOM      7  C   UNL     1       7.301   5.077  16.409  0.00  0.00    +0.000 C 
ATOM      8  O   UNL     1       7.649   6.128  15.883  0.00  0.00    +0.000 OA
BRANCH   7  10
ATOM      9  C   UNL     1       7.800   5.438  18.673  0.00  0.00    +0.000 C 
ATOM     10  O   UNL     1       7.861   4.564  17.544  0.00  0.00    +0.000 OA
ENDBRANCH   7  10
ENDBRANCH   6   7
BRANCH   6  11
ATOM     11  C   UNL     1       5.557   4.789  14.592  0.00  0.00    +0.000 C 
BRANCH  11  12
ATOM     12  C   UNL     1       5.788   3.965  13.343  0.00  0.00    +0.000 A 
ATOM     13  C   UNL     1       4.733   3.301  12.705  0.00  0.00    +0.000 A 
ATOM     14  C   UNL     1       4.975   2.469  11.611  0.00  0.00    +0.000 A 
ATOM     15  C   UNL     1       6.266   2.332  11.112  0.00  0.00    +0.000 A 
ATOM     16  C   UNL     1       7.314   3.042  11.693  0.00  0.00    +0.000 A 
ATOM     17  C   UNL     1       7.079   3.849  12.808  0.00  0.00    +0.000 A 
ENDBRANCH  11  12
ENDBRANCH   6  11
ENDBRANCH   2   6
ENDBRANCH   1   3
BRANCH   1  18
ATOM     18  N   UNL     1       2.655   5.498  19.051  0.00  0.00    +0.000 N 
ATOM     19  C   UNL     1       2.251   5.595  20.366  0.00  0.00    +0.000 C 
ATOM     20  O   UNL     1       2.425   4.697  21.179  0.00  0.00    +0.000 OA
ATOM     21  H   UNL     1       2.668   6.341  18.484  0.00  0.00    +0.000 HD
BRANCH  19  22
ATOM     22  C   UNL     1       1.520   6.893  20.718  0.00  0.00    +0.000 C 
BRANCH  22  23
ATOM     23  C   UNL     1       1.691   7.898  19.620  0.00  0.00    +0.000 C 
ATOM     24  C   UNL     1       1.525   9.224  19.753  0.00  0.00    +0.000 C 
BRANCH  24  25
ATOM     25  C   UNL     1       1.673  10.198  18.616  0.00  0.00    +0.000 C 
BRANCH  25  26
ATOM     26  N   UNL     1       1.875   9.442  17.379  0.00  0.00    +0.000 NA
ATOM     27  H   UNL     1       2.869   9.356  17.178  0.00  0.00    +0.000 HD
ATOM     28  H   UNL     1       1.461   9.958  16.604  0.00  0.00    +0.000 HD
ENDBRANCH  25  26
BRANCH  25  29
ATOM     29  C   UNL     1       0.455  11.123  18.451  0.00  0.00    +0.000 C 
BRANCH  29  30
ATOM     30  C   UNL     1      -0.897  10.519  18.889  0.00  0.00    +0.000 C 
ATOM     31  C   UNL     1      -1.730  11.462  19.759  0.00  0.00    +0.000 C 
ATOM     32  C   UNL     1      -1.706  10.120  17.652  0.00  0.00    +0.000 C 
ENDBRANCH  29  30
ENDBRANCH  25  29
ENDBRANCH  24  25
ENDBRANCH  22  23
ENDBRANCH  19  22
ENDBRANCH   1  18
BRANCH   1  33
ATOM     33  C   UNL     1       2.481   3.264  17.975  0.00  0.00    +0.000 C 
ATOM     34  C   UNL     1       2.283   2.097  18.953  0.00  0.00    +0.000 C 
ATOM     35  C   UNL     1       1.110   3.839  17.612  0.00  0.00    +0.000 C 
ENDBRANCH   1  33
TORSDOF 14
ENDMDL
MODEL 6
REMARK VINA RESULT:      -7.1      2.636      7.286
REMARK  Name = 
REMARK  19 active torsions:
REMARK  status: ('A' for Active; 'I' for Inactive)
REMARK    1  A    between atoms: C_1  and  O_2
REMARK    2  A    between atoms: O_2  and  C_3
REMARK    3  A    between atoms: C_3  and  C_5
REMARK    4  A    between atoms: C_5  and  C_6
REMARK    5  A    between atoms: C_5  and  N_13
REMARK    6  A    between atoms: C_6  and  C_7
REMARK    7  A    between atoms: C_14  and  C_16
REMARK    8  A    between atoms: C_16  and  N_17
REMARK    9  A    between atoms: C_16  and  C_29
REMARK   10  A    between atoms: C_18  and  C_20
REMARK   11  A    between atoms: C_20  and  C_21
REMARK   12  A    between atoms: C_22  and  C_23
REMARK   13  A    between atoms: C_23  and  N_24
REMARK   14  A    between atoms: C_23  and  C_25
REMARK   15  A    between atoms: C_25  and  C_26
REMARK   16  A    between atoms: C_26  and  C_27
REMARK   17  A    between atoms: C_26  and  C_28
REMARK   18  A    between atoms: C_29  and  C_30
REMARK   19  A    between atoms: C_29  and  C_31
REMARK                            x       y       z     vdW  Elec       q    Type
REMARK                         _______ _______ _______ _____ _____    ______ ____
ROOT
ATOM      1  C   UNL     1       6.219   6.211  16.826  0.00  0.00    +0.000 C 
ENDROOT
BRANCH   1   3
ATOM      2  N   UNL     1       3.903   6.858  17.338  0.00  0.00    +0.000 N 
ATOM      3  C   UNL     1       5.011   6.177  17.784  0.00  0.00    +0.000 C 
ATOM      4  O   UNL     1       5.062   5.649  18.895  0.00  0.00    +0.000 OA
ATOM      5  H   UNL     1       3.979   7.433  16.500  0.00  0.00    +0.000 HD
BRANCH   2   6
ATOM      6  C   UNL     1       2.671   6.951  18.126  0.00  0.00    +0.000 C 
BRANCH   6   7
ATOM      7  C   UNL     1       2.156   8.391  18.274  0.00  0.00    +0.000 C 
ATOM      8  O   UNL     1       2.192   9.227  17.377  0.00  0.00    +0.000 OA
BRANCH   7  10
ATOM      9  C   UNL     1       0.767   9.754  19.584  0.00  0.00    +0.000 C 
ATOM     10  O   UNL     1       1.633   8.619  19.515  0.00  0.00    +0.000 OA
ENDBRANCH   7  10
ENDBRANCH   6   7
BRANCH   6  11
ATOM     11  C   UNL     1       2.771   6.264  19.508  0.00  0.00    +0.000 C 
BRANCH  11  12
ATOM     12  C   UNL     1       2.074   4.924  19.605  0.00  0.00    +0.000 A 
ATOM     13  C   UNL     1       1.763   4.354  20.846  0.00  0.00    +0.000 A 
ATOM     14  C   UNL     1       1.206   3.077  20.922  0.00  0.00    +0.000 A 
ATOM     15  C   UNL     1       0.907   2.376  19.758  0.00  0.00    +0.000 A 
ATOM     16  C   UNL     1       1.146   2.960  18.516  0.00  0.00    +0.000 A 
ATOM     17  C   UNL     1       1.733   4.224  18.438  0.00  0.00    +0.000 A 
ENDBRANCH  11  12
ENDBRANCH   6  11
ENDBRANCH   2   6
ENDBRANCH   1   3
BRANCH   1  18
ATOM     18  N   UNL     1       7.360   6.687  17.600  0.00  0.00    +0.000 N 
ATOM     19  C   UNL     1       7.624   8.035  17.721  0.00  0.00    +0.000 C 
ATOM     20  O   UNL     1       6.980   8.892  17.128  0.00  0.00    +0.000 OA
ATOM     21  H   UNL     1       7.787   6.047  18.263  0.00  0.00    +0.000 HD
BRANCH  19  22
ATOM     22  C   UNL     1       8.820   8.376  18.613  0.00  0.00    +0.000 C 
BRANCH  22  23
ATOM     23  C   UNL     1       8.812   9.835  18.955  0.00  0.00    +0.000 C 
ATOM     24  C   UNL     1       9.671  10.437  19.794  0.00  0.00    +0.000 C 
BRANCH  24  25
ATOM     25  C   UNL     1       9.608  11.901  20.137  0.00  0.00    +0.000 C 
BRANCH  25  26
ATOM     26  N   UNL     1       9.559  12.036  21.594  0.00  0.00    +0.000 NA
ATOM     27  H   UNL     1       8.612  12.251  21.896  0.00  0.00    +0.000 HD
ATOM     28  H   UNL     1      10.143  12.823  21.873  0.00  0.00    +0.000 HD
ENDBRANCH  25  26
BRANCH  25  29
ATOM     29  C   UNL     1      10.805  12.700  19.594  0.00  0.00    +0.000 C 
BRANCH  29  30
ATOM     30  C   UNL     1      10.536  13.493  18.296  0.00  0.00    +0.000 C 
ATOM     31  C   UNL     1      11.117  12.828  17.047  0.00  0.00    +0.000 C 
ATOM     32  C   UNL     1       9.028  13.687  18.115  0.00  0.00    +0.000 C 
ENDBRANCH  29  30
ENDBRANCH  25  29
ENDBRANCH  24  25
ENDBRANCH  22  23
ENDBRANCH  19  22
ENDBRANCH   1  18
BRANCH   1  33
ATOM     33  C   UNL     1       6.479   4.804  16.237  0.00  0.00    +0.000 C 
ATOM     34  C   UNL     1       5.184   3.981  16.183  0.00  0.00    +0.000 C 
ATOM     35  C   UNL     1       7.069   4.883  14.827  0.00  0.00    +0.000 C 
ENDBRANCH   1  33
TORSDOF 14
ENDMDL
MODEL 7
REMARK VINA RESULT:      -7.0      0.749      1.368
REMARK  Name = 
REMARK  19 active torsions:
REMARK  status: ('A' for Active; 'I' for Inactive)
REMARK    1  A    between atoms: C_1  and  O_2
REMARK    2  A    between atoms: O_2  and  C_3
REMARK    3  A    between atoms: C_3  and  C_5
REMARK    4  A    between atoms: C_5  and  C_6
REMARK    5  A    between atoms: C_5  and  N_13
REMARK    6  A    between atoms: C_6  and  C_7
REMARK    7  A    between atoms: C_14  and  C_16
REMARK    8  A    between atoms: C_16  and  N_17
REMARK    9  A    between atoms: C_16  and  C_29
REMARK   10  A    between atoms: C_18  and  C_20
REMARK   11  A    between atoms: C_20  and  C_21
REMARK   12  A    between atoms: C_22  and  C_23
REMARK   13  A    between atoms: C_23  and  N_24
REMARK   14  A    between atoms: C_23  and  C_25
REMARK   15  A    between atoms: C_25  and  C_26
REMARK   16  A    between atoms: C_26  and  C_27
REMARK   17  A    between atoms: C_26  and  C_28
REMARK   18  A    between atoms: C_29  and  C_30
REMARK   19  A    between atoms: C_29  and  C_31
REMARK                            x       y       z     vdW  Elec       q    Type
REMARK                         _______ _______ _______ _____ _____    ______ ____
ROOT
ATOM      1  C   UNL     1       3.300   4.751  19.247  0.00  0.00    +0.000 C 
ENDROOT
BRANCH   1   3
ATOM      2  N   UNL     1       5.416   5.604  18.330  0.00  0.00    +0.000 N 
ATOM      3  C   UNL     1       4.839   4.830  19.310  0.00  0.00    +0.000 C 
ATOM      4  O   UNL     1       5.502   4.188  20.123  0.00  0.00    +0.000 OA
ATOM      5  H   UNL     1       4.834   5.958  17.572  0.00  0.00    +0.000 HD
BRANCH   2   6
ATOM      6  C   UNL     1       6.867   5.776  18.222  0.00  0.00    +0.000 C 
BRANCH   6   7
ATOM      7  C   UNL     1       7.275   7.179  17.743  0.00  0.00    +0.000 C 
ATOM      8  O   UNL     1       6.705   7.788  16.843  0.00  0.00    +0.000 OA
BRANCH   7  10
ATOM      9  C   UNL     1       8.541   9.076  18.289  0.00  0.00    +0.000 C 
ATOM     10  O   UNL     1       8.329   7.673  18.457  0.00  0.00    +0.000 OA
ENDBRANCH   7  10
ENDBRANCH   6   7
BRANCH   6  11
ATOM     11  C   UNL     1       7.553   4.688  17.364  0.00  0.00    +0.000 C 
BRANCH  11  12
ATOM     12  C   UNL     1       6.951   4.488  15.989  0.00  0.00    +0.000 A 
ATOM     13  C   UNL     1       5.763   3.768  15.813  0.00  0.00    +0.000 A 
ATOM     14  C   UNL     1       5.270   3.511  14.533  0.00  0.00    +0.000 A 
ATOM     15  C   UNL     1       5.932   4.014  13.418  0.00  0.00    +0.000 A 
ATOM     16  C   UNL     1       7.077   4.791  13.582  0.00  0.00    +0.000 A 
ATOM     17  C   UNL     1       7.589   5.022  14.860  0.00  0.00    +0.000 A 
ENDBRANCH  11  12
ENDBRANCH   6  11
ENDBRANCH   2   6
ENDBRANCH   1   3
BRANCH   1  18
ATOM     18  N   UNL     1       2.864   5.752  18.279  0.00  0.00    +0.000 N 
ATOM     19  C   UNL     1       2.445   7.001  18.685  0.00  0.00    +0.000 C 
ATOM     20  O   UNL     1       2.337   7.310  19.865  0.00  0.00    +0.000 OA
ATOM     21  H   UNL     1       3.128   5.621  17.306  0.00  0.00    +0.000 HD
BRANCH  19  22
ATOM     22  C   UNL     1       2.077   7.956  17.548  0.00  0.00    +0.000 C 
BRANCH  22  23
ATOM     23  C   UNL     1       2.068   9.371  18.041  0.00  0.00    +0.000 C 
ATOM     24  C   UNL     1       0.967  10.071  18.362  0.00  0.00    +0.000 C 
BRANCH  24  25
ATOM     25  C   UNL     1       0.999  11.503  18.821  0.00  0.00    +0.000 C 
BRANCH  25  26
ATOM     26  N   UNL     1       1.937  12.242  17.976  0.00  0.00    +0.000 NA
ATOM     27  H   UNL     1       2.434  11.603  17.359  0.00  0.00    +0.000 HD
ATOM     28  H   UNL     1       2.639  12.684  18.568  0.00  0.00    +0.000 HD
ENDBRANCH  25  26
BRANCH  25  29
ATOM     29  C   UNL     1      -0.379  12.185  18.765  0.00  0.00    +0.000 C 
BRANCH  29  30
ATOM     30  C   UNL     1      -1.474  11.536  19.640  0.00  0.00    +0.000 C 
ATOM     31  C   UNL     1      -1.280  11.783  21.137  0.00  0.00    +0.000 C 
ATOM     32  C   UNL     1      -2.849  12.056  19.212  0.00  0.00    +0.000 C 
ENDBRANCH  29  30
ENDBRANCH  25  29
ENDBRANCH  24  25
ENDBRANCH  22  23
ENDBRANCH  19  22
ENDBRANCH   1  18
BRANCH   1  33
ATOM     33  C   UNL     1       2.850   3.329  18.837  0.00  0.00    +0.000 C 
ATOM     34  C   UNL     1       1.608   2.894  19.628  0.00  0.00    +0.000 C 
ATOM     35  C   UNL     1       2.533   3.247  17.341  0.00  0.00    +0.000 C 
ENDBRANCH   1  33
TORSDOF 14
ENDMDL
MODEL 8
REMARK VINA RESULT:      -7.0      2.750      7.449
REMARK  Name = 
REMARK  19 active torsions:
REMARK  status: ('A' for Active; 'I' for Inactive)
REMARK    1  A    between atoms: C_1  and  O_2
REMARK    2  A    between atoms: O_2  and  C_3
REMARK    3  A    between atoms: C_3  and  C_5
REMARK    4  A    between atoms: C_5  and  C_6
REMARK    5  A    between atoms: C_5  and  N_13
REMARK    6  A    between atoms: C_6  and  C_7
REMARK    7  A    between atoms: C_14  and  C_16
REMARK    8  A    between atoms: C_16  and  N_17
REMARK    9  A    between atoms: C_16  and  C_29
REMARK   10  A    between atoms: C_18  and  C_20
REMARK   11  A    between atoms: C_20  and  C_21
REMARK   12  A    between atoms: C_22  and  C_23
REMARK   13  A    between atoms: C_23  and  N_24
REMARK   14  A    between atoms: C_23  and  C_25
REMARK   15  A    between atoms: C_25  and  C_26
REMARK   16  A    between atoms: C_26  and  C_27
REMARK   17  A    between atoms: C_26  and  C_28
REMARK   18  A    between atoms: C_29  and  C_30
REMARK   19  A    between atoms: C_29  and  C_31
REMARK                            x       y       z     vdW  Elec       q    Type
REMARK                         _______ _______ _______ _____ _____    ______ ____
ROOT
ATOM      1  C   UNL     1       6.324   6.336  17.284  0.00  0.00    +0.000 C 
ENDROOT
BRANCH   1   3
ATOM      2  N   UNL     1       3.942   6.894  17.526  0.00  0.00    +0.000 N 
ATOM      3  C   UNL     1       5.041   6.340  18.140  0.00  0.00    +0.000 C 
ATOM      4  O   UNL     1       5.022   5.952  19.307  0.00  0.00    +0.000 OA
ATOM      5  H   UNL     1       4.061   7.370  16.632  0.00  0.00    +0.000 HD
BRANCH   2   6
ATOM      6  C   UNL     1       2.643   7.003  18.196  0.00  0.00    +0.000 C 
BRANCH   6   7
ATOM      7  C   UNL     1       2.173   8.456  18.368  0.00  0.00    +0.000 C 
ATOM      8  O   UNL     1       2.186   9.292  17.470  0.00  0.00    +0.000 OA
BRANCH   7  10
ATOM      9  C   UNL     1       0.677   9.674  19.702  0.00  0.00    +0.000 C 
ATOM     10  O   UNL     1       1.716   8.696  19.632  0.00  0.00    +0.000 OA
ENDBRANCH   7  10
ENDBRANCH   6   7
BRANCH   6  11
ATOM     11  C   UNL     1       2.581   6.248  19.543  0.00  0.00    +0.000 C 
BRANCH  11  12
ATOM     12  C   UNL     1       1.961   4.868  19.471  0.00  0.00    +0.000 A 
ATOM     13  C   UNL     1       1.345   4.289  20.588  0.00  0.00    +0.000 A 
ATOM     14  C   UNL     1       0.862   2.981  20.535  0.00  0.00    +0.000 A 
ATOM     15  C   UNL     1       0.943   2.256  19.350  0.00  0.00    +0.000 A 
ATOM     16  C   UNL     1       1.490   2.845  18.212  0.00  0.00    +0.000 A 
ATOM     17  C   UNL     1       2.003   4.141  18.273  0.00  0.00    +0.000 A 
ENDBRANCH  11  12
ENDBRANCH   6  11
ENDBRANCH   2   6
ENDBRANCH   1   3
BRANCH   1  18
ATOM     18  N   UNL     1       7.373   6.951  18.090  0.00  0.00    +0.000 N 
ATOM     19  C   UNL     1       7.705   8.280  17.931  0.00  0.00    +0.000 C 
ATOM     20  O   UNL     1       7.208   8.987  17.064  0.00  0.00    +0.000 OA
ATOM     21  H   UNL     1       7.659   6.477  18.942  0.00  0.00    +0.000 HD
BRANCH  19  22
ATOM     22  C   UNL     1       8.782   8.790  18.891  0.00  0.00    +0.000 C 
BRANCH  22  23
ATOM     23  C   UNL     1       8.909  10.279  18.783  0.00  0.00    +0.000 C 
ATOM     24  C   UNL     1       9.659  10.928  17.877  0.00  0.00    +0.000 C 
BRANCH  24  25
ATOM     25  C   UNL     1       9.787  12.426  17.825  0.00  0.00    +0.000 C 
BRANCH  25  26
ATOM     26  N   UNL     1       8.523  12.984  17.342  0.00  0.00    +0.000 NA
ATOM     27  H   UNL     1       8.653  13.951  17.054  0.00  0.00    +0.000 HD
ATOM     28  H   UNL     1       7.851  12.993  18.107  0.00  0.00    +0.000 HD
ENDBRANCH  25  26
BRANCH  25  29
ATOM     29  C   UNL     1      10.128  13.050  19.189  0.00  0.00    +0.000 C 
BRANCH  29  30
ATOM     30  C   UNL     1      11.633  13.254  19.466  0.00  0.00    +0.000 C 
ATOM     31  C   UNL     1      12.328  11.999  19.997  0.00  0.00    +0.000 C 
ATOM     32  C   UNL     1      12.332  13.719  18.185  0.00  0.00    +0.000 C 
ENDBRANCH  29  30
ENDBRANCH  25  29
ENDBRANCH  24  25
ENDBRANCH  22  23
ENDBRANCH  19  22
ENDBRANCH   1  18
BRANCH   1  33
ATOM     33  C   UNL     1       6.694   4.890  16.876  0.00  0.00    +0.000 C 
ATOM     34  C   UNL     1       7.037   4.809  15.382  0.00  0.00    +0.000 C 
ATOM     35  C   UNL     1       7.885   4.364  17.682  0.00  0.00    +0.000 C 
ENDBRANCH   1  33
TORSDOF 14
ENDMDL
MODEL 9
REMARK VINA RESULT:      -6.9      1.866      2.464
REMARK  Name = 
REMARK  19 active torsions:
REMARK  status: ('A' for Active; 'I' for Inactive)
REMARK    1  A    between atoms: C_1  and  O_2
REMARK    2  A    between atoms: O_2  and  C_3
REMARK    3  A    between atoms: C_3  and  C_5
REMARK    4  A    between atoms: C_5  and  C_6
REMARK    5  A    between atoms: C_5  and  N_13
REMARK    6  A    between atoms: C_6  and  C_7
REMARK    7  A    between atoms: C_14  and  C_16
REMARK    8  A    between atoms: C_16  and  N_17
REMARK    9  A    between atoms: C_16  and  C_29
REMARK   10  A    between atoms: C_18  and  C_20
REMARK   11  A    between atoms: C_20  and  C_21
REMARK   12  A    between atoms: C_22  and  C_23
REMARK   13  A    between atoms: C_23  and  N_24
REMARK   14  A    between atoms: C_23  and  C_25
REMARK   15  A    between atoms: C_25  and  C_26
REMARK   16  A    between atoms: C_26  and  C_27
REMARK   17  A    between atoms: C_26  and  C_28
REMARK   18  A    between atoms: C_29  and  C_30
REMARK   19  A    between atoms: C_29  and  C_31
REMARK                            x       y       z     vdW  Elec       q    Type
REMARK                         _______ _______ _______ _____ _____    ______ ____
ROOT
ATOM      1  C   UNL     1       3.394   4.298  19.916  0.00  0.00    +0.000 C 
ENDROOT
BRANCH   1   3
ATOM      2  N   UNL     1       4.612   4.734  17.825  0.00  0.00    +0.000 N 
ATOM      3  C   UNL     1       4.629   4.059  19.023  0.00  0.00    +0.000 C 
ATOM      4  O   UNL     1       5.520   3.266  19.324  0.00  0.00    +0.000 OA
ATOM      5  H   UNL     1       3.765   5.227  17.546  0.00  0.00    +0.000 HD
BRANCH   2   6
ATOM      6  C   UNL     1       5.692   4.611  16.841  0.00  0.00    +0.000 C 
BRANCH   6   7
ATOM      7  C   UNL     1       7.079   4.923  17.425  0.00  0.00    +0.000 C 
ATOM      8  O   UNL     1       8.056   4.192  17.297  0.00  0.00    +0.000 OA
BRANCH   7  10
ATOM      9  C   UNL     1       7.997   6.168  19.189  0.00  0.00    +0.000 C 
ATOM     10  O   UNL     1       7.097   6.121  18.079  0.00  0.00    +0.000 OA
ENDBRANCH   7  10
ENDBRANCH   6   7
BRANCH   6  11
ATOM     11  C   UNL     1       5.446   5.430  15.554  0.00  0.00    +0.000 C 
BRANCH  11  12
ATOM     12  C   UNL     1       6.043   4.834  14.296  0.00  0.00    +0.000 A 
ATOM     13  C   UNL     1       7.265   5.290  13.785  0.00  0.00    +0.000 A 
ATOM     14  C   UNL     1       7.757   4.798  12.575  0.00  0.00    +0.000 A 
ATOM     15  C   UNL     1       7.058   3.810  11.889  0.00  0.00    +0.000 A 
ATOM     16  C   UNL     1       5.877   3.298  12.422  0.00  0.00    +0.000 A 
ATOM     17  C   UNL     1       5.367   3.812  13.615  0.00  0.00    +0.000 A 
ENDBRANCH  11  12
ENDBRANCH   6  11
ENDBRANCH   2   6
ENDBRANCH   1   3
BRANCH   1  18
ATOM     18  N   UNL     1       3.160   5.737  19.937  0.00  0.00    +0.000 N 
ATOM     19  C   UNL     1       2.425   6.354  18.947  0.00  0.00    +0.000 C 
ATOM     20  O   UNL     1       2.005   5.755  17.965  0.00  0.00    +0.000 OA
ATOM     21  H   UNL     1       3.302   6.231  20.814  0.00  0.00    +0.000 HD
BRANCH  19  22
ATOM     22  C   UNL     1       2.219   7.857  19.143  0.00  0.00    +0.000 C 
BRANCH  22  23
ATOM     23  C   UNL     1       1.770   8.141  20.544  0.00  0.00    +0.000 C 
ATOM     24  C   UNL     1       0.655   8.811  20.878  0.00  0.00    +0.000 C 
BRANCH  24  25
ATOM     25  C   UNL     1       0.257   9.104  22.299  0.00  0.00    +0.000 C 
BRANCH  25  26
ATOM     26  N   UNL     1       1.443   9.550  23.032  0.00  0.00    +0.000 NA
ATOM     27  H   UNL     1       1.518  10.564  22.996  0.00  0.00    +0.000 HD
ATOM     28  H   UNL     1       2.274   9.177  22.575  0.00  0.00    +0.000 HD
ENDBRANCH  25  26
BRANCH  25  29
ATOM     29  C   UNL     1      -0.839  10.178  22.410  0.00  0.00    +0.000 C 
BRANCH  29  30
ATOM     30  C   UNL     1      -0.420  11.598  21.971  0.00  0.00    +0.000 C 
ATOM     31  C   UNL     1      -0.782  11.917  20.520  0.00  0.00    +0.000 C 
ATOM     32  C   UNL     1      -1.066  12.633  22.896  0.00  0.00    +0.000 C 
ENDBRANCH  29  30
ENDBRANCH  25  29
ENDBRANCH  24  25
ENDBRANCH  22  23
ENDBRANCH  19  22
ENDBRANCH   1  18
BRANCH   1  33
ATOM     33  C   UNL     1       2.171   3.531  19.360  0.00  0.00    +0.000 C 
ATOM     34  C   UNL     1       2.554   2.099  18.962  0.00  0.00    +0.000 C 
ATOM     35  C   UNL     1       1.032   3.468  20.380  0.00  0.00    +0.000 C 
ENDBRANCH   1  33
TORSDOF 14
ENDMDL
