MODEL 1
REMARK VINA RESULT:      -6.3      0.000      0.000
REMARK  Name = 
REMARK  3 active torsions:
REMARK  status: ('A' for Active; 'I' for Inactive)
REMARK    1  A    between atoms: C_1  and  N_2
REMARK    2  A    between atoms: N_2  and  C_3
REMARK    3  A    between atoms: C_11  and  C_12
REMARK                            x       y       z     vdW  Elec       q    Type
REMARK                         _______ _______ _______ _____ _____    ______ ____
ROOT
ATOM      1  C   UNL     1       0.920  12.298  19.510  0.00  0.00    +0.000 C 
ATOM      2  N   UNL     1       1.414  11.006  19.056  0.00  0.00    +0.000 N 
ATOM      3  C   UNL     1       2.119  10.964  17.788  0.00  0.00    +0.000 C 
ATOM      4  C   UNL     1       1.192   9.861  19.825  0.00  0.00    +0.000 A 
ATOM      5  N   UNL     1       0.471   9.994  20.927  0.00  0.00    +0.000 NA
ATOM      6  C   UNL     1       0.225   8.903  21.728  0.00  0.00    +0.000 A 
ATOM      7  C   UNL     1       0.691   7.671  21.484  0.00  0.00    +0.000 A 
ATOM      8  N   UNL     1       1.460   7.478  20.350  0.00  0.00    +0.000 N 
ATOM      9  C   UNL     1       2.120   6.375  19.854  0.00  0.00    +0.000 A 
ATOM     10  I   UNL     1       2.273   4.573  20.841  0.00  0.00    +0.000 I 
ATOM     11  C   UNL     1       2.693   6.797  18.661  0.00  0.00    +0.000 A 
ATOM     12  N   UNL     1       2.439   8.148  18.462  0.00  0.00    +0.000 NA
ATOM     13  C   UNL     1       1.710   8.522  19.497  0.00  0.00    +0.000 A 
ENDROOT
BRANCH  11  14
ATOM     14  C   UNL     1       3.543   6.049  17.739  0.00  0.00    +0.000 A 
ATOM     15  C   UNL     1       3.358   4.682  17.482  0.00  0.00    +0.000 A 
ATOM     16  C   UNL     1       4.259   3.976  16.677  0.00  0.00    +0.000 A 
ATOM     17  C   UNL     1       5.312   4.648  16.077  0.00  0.00    +0.000 A 
ATOM     18  F   UNL     1       6.180   3.969  15.315  0.00  0.00    +0.000 F 
ATOM     19  C   UNL     1       5.473   6.017  16.249  0.00  0.00    +0.000 A 
ATOM     20  C   UNL     1       4.589   6.715  17.078  0.00  0.00    +0.000 A 
ENDBRANCH  11  14
TORSDOF 1
ENDMDL
MODEL 2
REMARK VINA RESULT:      -6.3      3.308      6.424
REMARK  Name = 
REMARK  3 active torsions:
REMARK  status: ('A' for Active; 'I' for Inactive)
REMARK    1  A    between atoms: C_1  and  N_2
REMARK    2  A    between atoms: N_2  and  C_3
REMARK    3  A    between atoms: C_11  and  C_12
REMARK                            x       y       z     vdW  Elec       q    Type
REMARK                         _______ _______ _______ _____ _____    ______ ____
ROOT
ATOM      1  C   UNL     1       6.356   4.612  14.441  0.00  0.00    +0.000 C 
ATOM      2  N   UNL     1       5.551   5.293  15.445  0.00  0.00    +0.000 N 
ATOM      3  C   UNL     1       5.454   6.739  15.362  0.00  0.00    +0.000 C 
ATOM      4  C   UNL     1       4.916   4.559  16.449  0.00  0.00    +0.000 A 
ATOM      5  N   UNL     1       5.129   3.253  16.481  0.00  0.00    +0.000 NA
ATOM      6  C   UNL     1       4.525   2.477  17.444  0.00  0.00    +0.000 A 
ATOM      7  C   UNL     1       3.688   2.952  18.376  0.00  0.00    +0.000 A 
ATOM      8  N   UNL     1       3.420   4.310  18.380  0.00  0.00    +0.000 N 
ATOM      9  C   UNL     1       2.583   5.087  19.150  0.00  0.00    +0.000 A 
ATOM     10  I   UNL     1       1.265   4.341  20.546  0.00  0.00    +0.000 I 
ATOM     11  C   UNL     1       2.774   6.387  18.700  0.00  0.00    +0.000 A 
ATOM     12  N   UNL     1       3.665   6.397  17.635  0.00  0.00    +0.000 NA
ATOM     13  C   UNL     1       4.021   5.137  17.466  0.00  0.00    +0.000 A 
ENDROOT
BRANCH  11  14
ATOM     14  C   UNL     1       2.109   7.613  19.133  0.00  0.00    +0.000 A 
ATOM     15  C   UNL     1       1.715   7.829  20.463  0.00  0.00    +0.000 A 
ATOM     16  C   UNL     1       0.984   8.967  20.818  0.00  0.00    +0.000 A 
ATOM     17  C   UNL     1       0.697   9.924  19.857  0.00  0.00    +0.000 A 
ATOM     18  F   UNL     1      -0.012  11.008  20.196  0.00  0.00    +0.000 F 
ATOM     19  C   UNL     1       1.144   9.774  18.550  0.00  0.00    +0.000 A 
ATOM     20  C   UNL     1       1.849   8.622  18.190  0.00  0.00    +0.000 A 
ENDBRANCH  11  14
TORSDOF 1
ENDMDL
MODEL 3
REMARK VINA RESULT:      -6.3      0.123      1.085
REMARK  Name = 
REMARK  3 active torsions:
REMARK  status: ('A' for Active; 'I' for Inactive)
REMARK    1  A    between atoms: C_1  and  N_2
REMARK    2  A    between atoms: N_2  and  C_3
REMARK    3  A    between atoms: C_11  and  C_12
REMARK                            x       y       z     vdW  Elec       q    Type
REMARK                         _______ _______ _______ _____ _____    ______ ____
ROOT
ATOM      1  C   UNL     1       0.897  12.283  19.499  0.00  0.00    +0.000 C 
ATOM      2  N   UNL     1       1.424  11.003  19.046  0.00  0.00    +0.000 N 
ATOM      3  C   UNL     1       2.172  10.986  17.803  0.00  0.00    +0.000 C 
ATOM      4  C   UNL     1       1.192   9.847  19.794  0.00  0.00    +0.000 A 
ATOM      5  N   UNL     1       0.433   9.957  20.873  0.00  0.00    +0.000 NA
ATOM      6  C   UNL     1       0.175   8.853  21.653  0.00  0.00    +0.000 A 
ATOM      7  C   UNL     1       0.666   7.630  21.410  0.00  0.00    +0.000 A 
ATOM      8  N   UNL     1       1.475   7.461  20.301  0.00  0.00    +0.000 N 
ATOM      9  C   UNL     1       2.166   6.373  19.814  0.00  0.00    +0.000 A 
ATOM     10  I   UNL     1       2.311   4.562  20.785  0.00  0.00    +0.000 I 
ATOM     11  C   UNL     1       2.773   6.817  18.647  0.00  0.00    +0.000 A 
ATOM     12  N   UNL     1       2.508   8.166  18.455  0.00  0.00    +0.000 NA
ATOM     13  C   UNL     1       1.739   8.519  19.468  0.00  0.00    +0.000 A 
ENDROOT
BRANCH  11  14
ATOM     14  C   UNL     1       3.664   6.092  17.745  0.00  0.00    +0.000 A 
ATOM     15  C   UNL     1       4.733   6.710  17.080  0.00  0.00    +0.000 A 
ATOM     16  C   UNL     1       5.496   6.008  16.141  0.00  0.00    +0.000 A 
ATOM     17  C   UNL     1       5.232   4.667  15.910  0.00  0.00    +0.000 A 
ATOM     18  F   UNL     1       5.956   3.998  15.004  0.00  0.00    +0.000 F 
ATOM     19  C   UNL     1       4.232   4.008  16.614  0.00  0.00    +0.000 A 
ATOM     20  C   UNL     1       3.451   4.719  17.530  0.00  0.00    +0.000 A 
ENDBRANCH  11  14
TORSDOF 1
ENDMDL
MODEL 4
REMARK VINA RESULT:      -6.1      3.830      7.192
REMARK  Name = 
REMARK  3 active torsions:
REMARK  status: ('A' for Active; 'I' for Inactive)
REMARK    1  A    between atoms: C_1  and  N_2
REMARK    2  A    between atoms: N_2  and  C_3
REMARK    3  A    between atoms: C_11  and  C_12
REMARK                            x       y       z     vdW  Elec       q    Type
REMARK                         _______ _______ _______ _____ _____    ______ ____
ROOT
ATOM      1  C   UNL     1       3.776   2.639  20.171  0.00  0.00    +0.000 C 
ATOM      2  N   UNL     1       3.034   3.880  20.348  0.00  0.00    +0.000 N 
ATOM      3  C   UNL     1       2.174   3.990  21.511  0.00  0.00    +0.000 C 
ATOM      4  C   UNL     1       3.154   4.907  19.408  0.00  0.00    +0.000 A 
ATOM      5  N   UNL     1       3.905   4.678  18.342  0.00  0.00    +0.000 NA
ATOM      6  C   UNL     1       4.066   5.654  17.386  0.00  0.00    +0.000 A 
ATOM      7  C   UNL     1       3.518   6.875  17.460  0.00  0.00    +0.000 A 
ATOM      8  N   UNL     1       2.732   7.172  18.559  0.00  0.00    +0.000 N 
ATOM      9  C   UNL     1       2.087   8.323  18.954  0.00  0.00    +0.000 A 
ATOM     10  I   UNL     1       2.253  10.135  17.989  0.00  0.00    +0.000 I 
ATOM     11  C   UNL     1       1.433   7.990  20.133  0.00  0.00    +0.000 A 
ATOM     12  N   UNL     1       1.722   6.679  20.485  0.00  0.00    +0.000 NA
ATOM     13  C   UNL     1       2.509   6.225  19.527  0.00  0.00    +0.000 A 
ENDROOT
BRANCH  11  14
ATOM     14  C   UNL     1       0.631   8.842  21.007  0.00  0.00    +0.000 A 
ATOM     15  C   UNL     1      -0.252   9.814  20.512  0.00  0.00    +0.000 A 
ATOM     16  C   UNL     1      -0.920  10.684  21.379  0.00  0.00    +0.000 A 
ATOM     17  C   UNL     1      -0.756  10.546  22.748  0.00  0.00    +0.000 A 
ATOM     18  F   UNL     1      -1.388  11.386  23.577  0.00  0.00    +0.000 F 
ATOM     19  C   UNL     1       0.050   9.541  23.269  0.00  0.00    +0.000 A 
ATOM     20  C   UNL     1       0.740   8.691  22.400  0.00  0.00    +0.000 A 
ENDBRANCH  11  14
TORSDOF 1
ENDMDL
MODEL 5
REMARK VINA RESULT:      -6.0      3.839      7.179
REMARK  Name = 
REMARK  3 active torsions:
REMARK  status: ('A' for Active; 'I' for Inactive)
REMARK    1  A    between atoms: C_1  and  N_2
REMARK    2  A    between atoms: N_2  and  C_3
REMARK    3  A    between atoms: C_11  and  C_12
REMARK                            x       y       z     vdW  Elec       q    Type
REMARK                         _______ _______ _______ _____ _____    ______ ____
ROOT
ATOM      1  C   UNL     1       3.839   2.828  20.045  0.00  0.00    +0.000 C 
ATOM      2  N   UNL     1       3.094   4.059  20.270  0.00  0.00    +0.000 N 
ATOM      3  C   UNL     1       2.271   4.139  21.463  0.00  0.00    +0.000 C 
ATOM      4  C   UNL     1       3.176   5.105  19.348  0.00  0.00    +0.000 A 
ATOM      5  N   UNL     1       3.894   4.903  18.254  0.00  0.00    +0.000 NA
ATOM      6  C   UNL     1       4.016   5.899  17.313  0.00  0.00    +0.000 A 
ATOM      7  C   UNL     1       3.462   7.114  17.429  0.00  0.00    +0.000 A 
ATOM      8  N   UNL     1       2.711   7.383  18.559  0.00  0.00    +0.000 N 
ATOM      9  C   UNL     1       2.070   8.521  18.998  0.00  0.00    +0.000 A 
ATOM     10  I   UNL     1       2.192  10.354  18.065  0.00  0.00    +0.000 I 
ATOM     11  C   UNL     1       1.457   8.160  20.190  0.00  0.00    +0.000 A 
ATOM     12  N   UNL     1       1.767   6.844  20.506  0.00  0.00    +0.000 NA
ATOM     13  C   UNL     1       2.526   6.416  19.514  0.00  0.00    +0.000 A 
ENDROOT
BRANCH  11  14
ATOM     14  C   UNL     1       0.678   8.988  21.107  0.00  0.00    +0.000 A 
ATOM     15  C   UNL     1       0.793   8.885  22.501  0.00  0.00    +0.000 A 
ATOM     16  C   UNL     1      -0.048   9.618  23.346  0.00  0.00    +0.000 A 
ATOM     17  C   UNL     1      -0.965  10.502  22.799  0.00  0.00    +0.000 A 
ATOM     18  F   UNL     1      -1.777  11.195  23.608  0.00  0.00    +0.000 F 
ATOM     19  C   UNL     1      -1.044  10.684  21.424  0.00  0.00    +0.000 A 
ATOM     20  C   UNL     1      -0.224   9.929  20.581  0.00  0.00    +0.000 A 
ENDBRANCH  11  14
TORSDOF 1
ENDMDL
MODEL 6
REMARK VINA RESULT:      -6.0      3.310      6.470
REMARK  Name = 
REMARK  3 active torsions:
REMARK  status: ('A' for Active; 'I' for Inactive)
REMARK    1  A    between atoms: C_1  and  N_2
REMARK    2  A    between atoms: N_2  and  C_3
REMARK    3  A    between atoms: C_11  and  C_12
REMARK                            x       y       z     vdW  Elec       q    Type
REMARK                         _______ _______ _______ _____ _____    ______ ____
ROOT
ATOM      1  C   UNL     1       6.458   4.462  14.534  0.00  0.00    +0.000 C 
ATOM      2  N   UNL     1       5.622   5.181  15.486  0.00  0.00    +0.000 N 
ATOM      3  C   UNL     1       5.531   6.622  15.346  0.00  0.00    +0.000 C 
ATOM      4  C   UNL     1       4.953   4.485  16.496  0.00  0.00    +0.000 A 
ATOM      5  N   UNL     1       5.163   3.181  16.584  0.00  0.00    +0.000 NA
ATOM      6  C   UNL     1       4.526   2.441  17.554  0.00  0.00    +0.000 A 
ATOM      7  C   UNL     1       3.660   2.952  18.440  0.00  0.00    +0.000 A 
ATOM      8  N   UNL     1       3.395   4.309  18.386  0.00  0.00    +0.000 N 
ATOM      9  C   UNL     1       2.536   5.115  19.098  0.00  0.00    +0.000 A 
ATOM     10  I   UNL     1       1.171   4.422  20.478  0.00  0.00    +0.000 I 
ATOM     11  C   UNL     1       2.743   6.397  18.606  0.00  0.00    +0.000 A 
ATOM     12  N   UNL     1       3.668   6.366  17.571  0.00  0.00    +0.000 NA
ATOM     13  C   UNL     1       4.027   5.101  17.461  0.00  0.00    +0.000 A 
ENDROOT
BRANCH  11  14
ATOM     14  C   UNL     1       2.066   7.638  18.972  0.00  0.00    +0.000 A 
ATOM     15  C   UNL     1       1.740   8.626  18.031  0.00  0.00    +0.000 A 
ATOM     16  C   UNL     1       1.191   9.848  18.435  0.00  0.00    +0.000 A 
ATOM     17  C   UNL     1       0.910  10.062  19.776  0.00  0.00    +0.000 A 
ATOM     18  F   UNL     1       0.394  11.236  20.163  0.00  0.00    +0.000 F 
ATOM     19  C   UNL     1       1.148   9.070  20.719  0.00  0.00    +0.000 A 
ATOM     20  C   UNL     1       1.724   7.861  20.317  0.00  0.00    +0.000 A 
ENDBRANCH  11  14
TORSDOF 1
ENDMDL
MODEL 7
REMARK VINA RESULT:      -6.0      7.001      8.408
REMARK  Name = 
REMARK  3 active torsions:
REMARK  status: ('A' for Active; 'I' for Inactive)
REMARK    1  A    between atoms: C_1  and  N_2
REMARK    2  A    between atoms: N_2  and  C_3
REMARK    3  A    between atoms: C_11  and  C_12
REMARK                            x       y       z     vdW  Elec       q    Type
REMARK                         _______ _______ _______ _____ _____    ______ ____
ROOT
ATOM      1  C   UNL     1      -1.339  14.720  23.823  0.00  0.00    +0.000 C 
ATOM      2  N   UNL     1      -1.775  14.123  22.568  0.00  0.00    +0.000 N 
ATOM      3  C   UNL     1      -0.782  13.956  21.523  0.00  0.00    +0.000 C 
ATOM      4  C   UNL     1      -3.108  13.745  22.398  0.00  0.00    +0.000 A 
ATOM      5  N   UNL     1      -3.951  14.010  23.384  0.00  0.00    +0.000 NA
ATOM      6  C   UNL     1      -5.276  13.655  23.277  0.00  0.00    +0.000 A 
ATOM      7  C   UNL     1      -5.800  13.019  22.220  0.00  0.00    +0.000 A 
ATOM      8  N   UNL     1      -4.961  12.707  21.165  0.00  0.00    +0.000 N 
ATOM      9  C   UNL     1      -5.167  12.025  19.986  0.00  0.00    +0.000 A 
ATOM     10  I   UNL     1      -6.922  11.065  19.494  0.00  0.00    +0.000 I 
ATOM     11  C   UNL     1      -3.949  12.066  19.321  0.00  0.00    +0.000 A 
ATOM     12  N   UNL     1      -2.999  12.707  20.105  0.00  0.00    +0.000 NA
ATOM     13  C   UNL     1      -3.638  13.067  21.203  0.00  0.00    +0.000 A 
ENDROOT
BRANCH  11  14
ATOM     14  C   UNL     1      -3.584  11.462  18.042  0.00  0.00    +0.000 A 
ATOM     15  C   UNL     1      -4.335  11.657  16.874  0.00  0.00    +0.000 A 
ATOM     16  C   UNL     1      -4.016  10.975  15.694  0.00  0.00    +0.000 A 
ATOM     17  C   UNL     1      -2.907  10.144  15.663  0.00  0.00    +0.000 A 
ATOM     18  F   UNL     1      -2.609   9.484  14.537  0.00  0.00    +0.000 F 
ATOM     19  C   UNL     1      -2.099   9.995  16.783  0.00  0.00    +0.000 A 
ATOM     20  C   UNL     1      -2.436  10.654  17.969  0.00  0.00    +0.000 A 
ENDBRANCH  11  14
TORSDOF 1
ENDMDL
MODEL 8
REMARK VINA RESULT:      -6.0      1.491      2.046
REMARK  Name = 
REMARK  3 active torsions:
REMARK  status: ('A' for Active; 'I' for Inactive)
REMARK    1  A    between atoms: C_1  and  N_2
REMARK    2  A    between atoms: N_2  and  C_3
REMARK    3  A    between atoms: C_11  and  C_12
REMARK                            x       y       z     vdW  Elec       q    Type
REMARK                         _______ _______ _______ _____ _____    ______ ____
ROOT
ATOM      1  C   UNL     1       0.819  10.370  19.775  0.00  0.00    +0.000 C 
ATOM      2  N   UNL     1       1.609   9.377  19.059  0.00  0.00    +0.000 N 
ATOM      3  C   UNL     1       2.238   9.787  17.817  0.00  0.00    +0.000 C 
ATOM      4  C   UNL     1       1.728   8.081  19.564  0.00  0.00    +0.000 A 
ATOM      5  N   UNL     1       1.053   7.787  20.664  0.00  0.00    +0.000 NA
ATOM      6  C   UNL     1       1.137   6.527  21.212  0.00  0.00    +0.000 A 
ATOM      7  C   UNL     1       1.894   5.541  20.714  0.00  0.00    +0.000 A 
ATOM      8  N   UNL     1       2.631   5.797  19.571  0.00  0.00    +0.000 N 
ATOM      9  C   UNL     1       3.529   5.036  18.856  0.00  0.00    +0.000 A 
ATOM     10  I   UNL     1       4.192   3.173  19.438  0.00  0.00    +0.000 I 
ATOM     11  C   UNL     1       3.914   5.832  17.786  0.00  0.00    +0.000 A 
ATOM     12  N   UNL     1       3.310   7.078  17.878  0.00  0.00    +0.000 NA
ATOM     13  C   UNL     1       2.559   7.024  18.962  0.00  0.00    +0.000 A 
ENDROOT
BRANCH  11  14
ATOM     14  C   UNL     1       4.883   5.543  16.732  0.00  0.00    +0.000 A 
ATOM     15  C   UNL     1       4.634   4.612  15.712  0.00  0.00    +0.000 A 
ATOM     16  C   UNL     1       5.628   4.283  14.784  0.00  0.00    +0.000 A 
ATOM     17  C   UNL     1       6.854   4.928  14.836  0.00  0.00    +0.000 A 
ATOM     18  F   UNL     1       7.808   4.604  13.954  0.00  0.00    +0.000 F 
ATOM     19  C   UNL     1       7.099   5.912  15.786  0.00  0.00    +0.000 A 
ATOM     20  C   UNL     1       6.115   6.219  16.730  0.00  0.00    +0.000 A 
ENDBRANCH  11  14
TORSDOF 1
ENDMDL
MODEL 9
REMARK VINA RESULT:      -5.9      4.502      6.028
REMARK  Name = 
REMARK  3 active torsions:
REMARK  status: ('A' for Active; 'I' for Inactive)
REMARK    1  A    between atoms: C_1  and  N_2
REMARK    2  A    between atoms: N_2  and  C_3
REMARK    3  A    between atoms: C_11  and  C_12
REMARK                            x       y       z     vdW  Elec       q    Type
REMARK                         _______ _______ _______ _____ _____    ______ ____
ROOT
ATOM      1  C   UNL     1       1.117   2.914  21.279  0.00  0.00    +0.000 C 
ATOM      2  N   UNL     1       2.145   3.694  20.604  0.00  0.00    +0.000 N 
ATOM      3  C   UNL     1       2.717   4.818  21.323  0.00  0.00    +0.000 C 
ATOM      4  C   UNL     1       2.539   3.360  19.306  0.00  0.00    +0.000 A 
ATOM      5  N   UNL     1       1.901   2.364  18.710  0.00  0.00    +0.000 NA
ATOM      6  C   UNL     1       2.249   1.985  17.434  0.00  0.00    +0.000 A 
ATOM      7  C   UNL     1       3.235   2.552  16.725  0.00  0.00    +0.000 A 
ATOM      8  N   UNL     1       3.942   3.590  17.304  0.00  0.00    +0.000 N 
ATOM      9  C   UNL     1       5.022   4.329  16.876  0.00  0.00    +0.000 A 
ATOM     10  I   UNL     1       6.071   3.954  15.142  0.00  0.00    +0.000 I 
ATOM     11  C   UNL     1       5.260   5.251  17.888  0.00  0.00    +0.000 A 
ATOM     12  N   UNL     1       4.381   5.039  18.941  0.00  0.00    +0.000 NA
ATOM     13  C   UNL     1       3.616   4.032  18.561  0.00  0.00    +0.000 A 
ENDROOT
BRANCH  11  14
ATOM     14  C   UNL     1       6.315   6.256  17.980  0.00  0.00    +0.000 A 
ATOM     15  C   UNL     1       7.444   6.094  18.797  0.00  0.00    +0.000 A 
ATOM     16  C   UNL     1       8.378   7.125  18.943  0.00  0.00    +0.000 A 
ATOM     17  C   UNL     1       8.218   8.300  18.224  0.00  0.00    +0.000 A 
ATOM     18  F   UNL     1       9.107   9.290  18.373  0.00  0.00    +0.000 F 
ATOM     19  C   UNL     1       7.153   8.456  17.346  0.00  0.00    +0.000 A 
ATOM     20  C   UNL     1       6.205   7.436  17.224  0.00  0.00    +0.000 A 
ENDBRANCH  11  14
TORSDOF 1
ENDMDL
