MODEL 1
REMARK VINA RESULT:      -8.2      0.000      0.000
REMARK  Name = 
REMARK  9 active torsions:
REMARK  status: ('A' for Active; 'I' for Inactive)
REMARK    1  A    between atoms: C_1  and  C_2
REMARK    2  A    between atoms: C_5  and  C_6
REMARK    3  A    between atoms: C_13  and  C_14
REMARK    4  A    between atoms: C_17  and  C_18
REMARK    5  A    between atoms: C_19  and  C_20
REMARK    6  A    between atoms: C_20  and  C_21
REMARK    7  A    between atoms: C_21  and  C_22
REMARK    8  A    between atoms: N_24  and  C_25
REMARK    9  A    between atoms: C_25  and  C_26
REMARK                            x       y       z     vdW  Elec       q    Type
REMARK                         _______ _______ _______ _____ _____    ______ ____
ROOT
ATOM      1  C   UNL     1       3.559   7.517  16.933  0.00  0.00    +0.000 C 
ATOM      2  C   UNL     1       2.785   7.536  18.234  0.00  0.00    +0.000 A 
ATOM      3  N   UNL     1       2.212   8.672  18.523  0.00  0.00    +0.000 NA
ATOM      4  C   UNL     1       1.482   8.749  19.677  0.00  0.00    +0.000 A 
ATOM      5  C   UNL     1       0.745   9.774  20.271  0.00  0.00    +0.000 A 
ATOM      6  C   UNL     1       0.225   9.180  21.459  0.00  0.00    +0.000 A 
ATOM      7  C   UNL     1      -0.615   9.743  22.551  0.00  0.00    +0.000 C 
ATOM      8  N   UNL     1       0.592   7.904  21.587  0.00  0.00    +0.000 NA
ATOM      9  N   UNL     1       1.364   7.635  20.512  0.00  0.00    +0.000 N 
ATOM     10  C   UNL     1       1.989   6.411  20.211  0.00  0.00    +0.000 A 
ATOM     11  C   UNL     1       1.755   5.279  21.178  0.00  0.00    +0.000 C 
ATOM     12  C   UNL     1       2.734   6.274  19.085  0.00  0.00    +0.000 A 
ENDROOT
BRANCH   5  13
ATOM     13  C   UNL     1       0.603  11.143  19.758  0.00  0.00    +0.000 A 
ATOM     14  C   UNL     1      -0.413  11.466  18.838  0.00  0.00    +0.000 A 
ATOM     15  C   UNL     1      -0.629  12.785  18.422  0.00  0.00    +0.000 A 
ATOM     16  C   UNL     1       0.201  13.791  18.885  0.00  0.00    +0.000 A 
ATOM     17  F   UNL     1       0.002  15.054  18.482  0.00  0.00    +0.000 F 
ATOM     18  C   UNL     1       1.240  13.503  19.760  0.00  0.00    +0.000 A 
ATOM     19  C   UNL     1       1.435  12.185  20.199  0.00  0.00    +0.000 A 
ENDBRANCH   5  13
BRANCH  12  20
ATOM     20  C   UNL     1       3.349   4.949  18.647  0.00  0.00    +0.000 C 
BRANCH  20  21
ATOM     21  C   UNL     1       4.481   4.372  19.506  0.00  0.00    +0.000 C 
BRANCH  21  22
ATOM     22  C   UNL     1       5.867   4.760  18.992  0.00  0.00    +0.000 C 
ATOM     23  O   UNL     1       6.724   5.301  19.688  0.00  0.00    +0.000 OA
ATOM     24  N   UNL     1       6.042   4.439  17.665  0.00  0.00    +0.000 N 
ATOM     25  H   UNL     1       5.305   3.967  17.157  0.00  0.00    +0.000 HD
BRANCH  24  26
ATOM     26  C   UNL     1       7.265   4.686  16.927  0.00  0.00    +0.000 C 
BRANCH  26  27
ATOM     27  C   UNL     1       6.997   4.545  15.471  0.00  0.00    +0.000 A 
ATOM     28  C   UNL     1       6.105   3.785  14.740  0.00  0.00    +0.000 A 
ATOM     29  C   UNL     1       6.356   4.069  13.375  0.00  0.00    +0.000 A 
ATOM     30  C   UNL     1       7.387   4.979  13.357  0.00  0.00    +0.000 A 
ATOM     31  O   UNL     1       7.784   5.275  14.623  0.00  0.00    +0.000 OA
ENDBRANCH  26  27
ENDBRANCH  24  26
ENDBRANCH  21  22
ENDBRANCH  20  21
ENDBRANCH  12  20
TORSDOF 6
ENDMDL
MODEL 2
REMARK VINA RESULT:      -8.1      1.900      3.176
REMARK  Name = 
REMARK  9 active torsions:
REMARK  status: ('A' for Active; 'I' for Inactive)
REMARK    1  A    between atoms: C_1  and  C_2
REMARK    2  A    between atoms: C_5  and  C_6
REMARK    3  A    between atoms: C_13  and  C_14
REMARK    4  A    between atoms: C_17  and  C_18
REMARK    5  A    between atoms: C_19  and  C_20
REMARK    6  A    between atoms: C_20  and  C_21
REMARK    7  A    between atoms: C_21  and  C_22
REMARK    8  A    between atoms: N_24  and  C_25
REMARK    9  A    between atoms: C_25  and  C_26
REMARK                            x       y       z     vdW  Elec       q    Type
REMARK                         _______ _______ _______ _____ _____    ______ ____
ROOT
ATOM      1  C   UNL     1       1.751   4.272  21.240  0.00  0.00    +0.000 C 
ATOM      2  C   UNL     1       2.024   5.394  20.262  0.00  0.00    +0.000 A 
ATOM      3  N   UNL     1       1.491   6.544  20.572  0.00  0.00    +0.000 NA
ATOM      4  C   UNL     1       1.717   7.604  19.737  0.00  0.00    +0.000 A 
ATOM      5  C   UNL     1       1.324   8.943  19.770  0.00  0.00    +0.000 A 
ATOM      6  C   UNL     1       1.914   9.503  18.598  0.00  0.00    +0.000 A 
ATOM      7  C   UNL     1       1.855  10.878  18.032  0.00  0.00    +0.000 C 
ATOM      8  N   UNL     1       2.618   8.604  17.909  0.00  0.00    +0.000 NA
ATOM      9  N   UNL     1       2.497   7.444  18.590  0.00  0.00    +0.000 N 
ATOM     10  C   UNL     1       3.066   6.204  18.244  0.00  0.00    +0.000 A 
ATOM     11  C   UNL     1       3.912   6.174  16.998  0.00  0.00    +0.000 C 
ATOM     12  C   UNL     1       2.870   5.112  19.027  0.00  0.00    +0.000 A 
ENDROOT
BRANCH   5  13
ATOM     13  C   UNL     1       0.467   9.565  20.788  0.00  0.00    +0.000 A 
ATOM     14  C   UNL     1       0.504   9.128  22.126  0.00  0.00    +0.000 A 
ATOM     15  C   UNL     1      -0.225   9.779  23.128  0.00  0.00    +0.000 A 
ATOM     16  C   UNL     1      -1.038  10.848  22.793  0.00  0.00    +0.000 A 
ATOM     17  F   UNL     1      -1.744  11.469  23.749  0.00  0.00    +0.000 F 
ATOM     18  C   UNL     1      -1.132  11.279  21.478  0.00  0.00    +0.000 A 
ATOM     19  C   UNL     1      -0.377  10.644  20.481  0.00  0.00    +0.000 A 
ENDBRANCH   5  13
BRANCH  12  20
ATOM     20  C   UNL     1       3.543   3.768  18.767  0.00  0.00    +0.000 C 
BRANCH  20  21
ATOM     21  C   UNL     1       4.857   3.477  19.501  0.00  0.00    +0.000 C 
BRANCH  21  22
ATOM     22  C   UNL     1       6.025   4.305  18.968  0.00  0.00    +0.000 C 
ATOM     23  O   UNL     1       6.635   5.134  19.641  0.00  0.00    +0.000 OA
ATOM     24  N   UNL     1       6.312   4.020  17.652  0.00  0.00    +0.000 N 
ATOM     25  H   UNL     1       5.790   3.304  17.164  0.00  0.00    +0.000 HD
BRANCH  24  26
ATOM     26  C   UNL     1       7.378   4.652  16.901  0.00  0.00    +0.000 C 
BRANCH  26  27
ATOM     27  C   UNL     1       7.079   4.556  15.448  0.00  0.00    +0.000 A 
ATOM     28  C   UNL     1       7.579   5.198  14.332  0.00  0.00    +0.000 A 
ATOM     29  C   UNL     1       6.865   4.690  13.219  0.00  0.00    +0.000 A 
ATOM     30  C   UNL     1       5.970   3.775  13.724  0.00  0.00    +0.000 A 
ATOM     31  O   UNL     1       6.091   3.686  15.075  0.00  0.00    +0.000 OA
ENDBRANCH  26  27
ENDBRANCH  24  26
ENDBRANCH  21  22
ENDBRANCH  20  21
ENDBRANCH  12  20
TORSDOF 6
ENDMDL
MODEL 3
REMARK VINA RESULT:      -7.9      1.803      3.121
REMARK  Name = 
REMARK  9 active torsions:
REMARK  status: ('A' for Active; 'I' for Inactive)
REMARK    1  A    between atoms: C_1  and  C_2
REMARK    2  A    between atoms: C_5  and  C_6
REMARK    3  A    between atoms: C_13  and  C_14
REMARK    4  A    between atoms: C_17  and  C_18
REMARK    5  A    between atoms: C_19  and  C_20
REMARK    6  A    between atoms: C_20  and  C_21
REMARK    7  A    between atoms: C_21  and  C_22
REMARK    8  A    between atoms: N_24  and  C_25
REMARK    9  A    between atoms: C_25  and  C_26
REMARK                            x       y       z     vdW  Elec       q    Type
REMARK                         _______ _______ _______ _____ _____    ______ ____
ROOT
ATOM      1  C   UNL     1       2.176   4.763  20.863  0.00  0.00    +0.000 C 
ATOM      2  C   UNL     1       2.322   5.957  19.944  0.00  0.00    +0.000 A 
ATOM      3  N   UNL     1       1.680   7.030  20.321  0.00  0.00    +0.000 NA
ATOM      4  C   UNL     1       1.787   8.150  19.542  0.00  0.00    +0.000 A 
ATOM      5  C   UNL     1       1.263   9.438  19.650  0.00  0.00    +0.000 A 
ATOM      6  C   UNL     1       1.777  10.116  18.506  0.00  0.00    +0.000 A 
ATOM      7  C   UNL     1       1.572  11.506  18.015  0.00  0.00    +0.000 C 
ATOM      8  N   UNL     1       2.558   9.330  17.763  0.00  0.00    +0.000 NA
ATOM      9  N   UNL     1       2.564   8.130  18.382  0.00  0.00    +0.000 N 
ATOM     10  C   UNL     1       3.249   6.973  17.964  0.00  0.00    +0.000 A 
ATOM     11  C   UNL     1       4.077   7.095  16.711  0.00  0.00    +0.000 C 
ATOM     12  C   UNL     1       3.175   5.828  18.689  0.00  0.00    +0.000 A 
ENDROOT
BRANCH   5  13
ATOM     13  C   UNL     1       0.362   9.916  20.708  0.00  0.00    +0.000 A 
ATOM     14  C   UNL     1       0.457   9.410  22.018  0.00  0.00    +0.000 A 
ATOM     15  C   UNL     1      -0.320   9.930  23.061  0.00  0.00    +0.000 A 
ATOM     16  C   UNL     1      -1.236  10.932  22.792  0.00  0.00    +0.000 A 
ATOM     17  F   UNL     1      -1.987  11.427  23.787  0.00  0.00    +0.000 F 
ATOM     18  C   UNL     1      -1.387  11.426  21.504  0.00  0.00    +0.000 A 
ATOM     19  C   UNL     1      -0.586  10.923  20.468  0.00  0.00    +0.000 A 
ENDBRANCH   5  13
BRANCH  12  20
ATOM     20  C   UNL     1       3.975   4.574  18.352  0.00  0.00    +0.000 C 
BRANCH  20  21
ATOM     21  C   UNL     1       5.296   4.350  19.098  0.00  0.00    +0.000 C 
BRANCH  21  22
ATOM     22  C   UNL     1       6.519   4.670  18.240  0.00  0.00    +0.000 C 
ATOM     23  O   UNL     1       7.646   4.844  18.700  0.00  0.00    +0.000 OA
ATOM     24  N   UNL     1       6.214   4.742  16.900  0.00  0.00    +0.000 N 
ATOM     25  H   UNL     1       5.270   4.557  16.586  0.00  0.00    +0.000 HD
BRANCH  24  26
ATOM     26  C   UNL     1       7.187   5.019  15.863  0.00  0.00    +0.000 C 
BRANCH  26  27
ATOM     27  C   UNL     1       6.672   4.519  14.560  0.00  0.00    +0.000 A 
ATOM     28  C   UNL     1       5.525   3.845  14.190  0.00  0.00    +0.000 A 
ATOM     29  C   UNL     1       5.621   3.620  12.795  0.00  0.00    +0.000 A 
ATOM     30  C   UNL     1       6.821   4.164  12.401  0.00  0.00    +0.000 A 
ATOM     31  O   UNL     1       7.468   4.712  13.464  0.00  0.00    +0.000 OA
ENDBRANCH  26  27
ENDBRANCH  24  26
ENDBRANCH  21  22
ENDBRANCH  20  21
ENDBRANCH  12  20
TORSDOF 6
ENDMDL
MODEL 4
REMARK VINA RESULT:      -7.8      1.133      1.331
REMARK  Name = 
REMARK  9 active torsions:
REMARK  status: ('A' for Active; 'I' for Inactive)
REMARK    1  A    between atoms: C_1  and  C_2
REMARK    2  A    between atoms: C_5  and  C_6
REMARK    3  A    between atoms: C_13  and  C_14
REMARK    4  A    between atoms: C_17  and  C_18
REMARK    5  A    between atoms: C_19  and  C_20
REMARK    6  A    between atoms: C_20  and  C_21
REMARK    7  A    between atoms: C_21  and  C_22
REMARK    8  A    between atoms: N_24  and  C_25
REMARK    9  A    between atoms: C_25  and  C_26
REMARK                            x       y       z     vdW  Elec       q    Type
REMARK                         _______ _______ _______ _____ _____    ______ ____
ROOT
ATOM      1  C   UNL     1       4.162   7.321  16.440  0.00  0.00    +0.000 C 
ATOM      2  C   UNL     1       3.400   7.215  17.744  0.00  0.00    +0.000 A 
ATOM      3  N   UNL     1       2.654   8.245  18.037  0.00  0.00    +0.000 NA
ATOM      4  C   UNL     1       1.925   8.203  19.193  0.00  0.00    +0.000 A 
ATOM      5  C   UNL     1       1.035   9.096  19.791  0.00  0.00    +0.000 A 
ATOM      6  C   UNL     1       0.620   8.426  20.980  0.00  0.00    +0.000 A 
ATOM      7  C   UNL     1      -0.295   8.846  22.075  0.00  0.00    +0.000 C 
ATOM      8  N   UNL     1       1.187   7.224  21.105  0.00  0.00    +0.000 NA
ATOM      9  N   UNL     1       1.988   7.083  20.026  0.00  0.00    +0.000 N 
ATOM     10  C   UNL     1       2.800   5.975  19.722  0.00  0.00    +0.000 A 
ATOM     11  C   UNL     1       2.753   4.819  20.688  0.00  0.00    +0.000 C 
ATOM     12  C   UNL     1       3.554   5.960  18.593  0.00  0.00    +0.000 A 
ENDROOT
BRANCH   5  13
ATOM     13  C   UNL     1       0.675  10.426  19.280  0.00  0.00    +0.000 A 
ATOM     14  C   UNL     1      -0.674  10.789  19.104  0.00  0.00    +0.000 A 
ATOM     15  C   UNL     1      -1.038  12.086  18.721  0.00  0.00    +0.000 A 
ATOM     16  C   UNL     1      -0.051  13.022  18.464  0.00  0.00    +0.000 A 
ATOM     17  F   UNL     1      -0.395  14.262  18.089  0.00  0.00    +0.000 F 
ATOM     18  C   UNL     1       1.291  12.687  18.585  0.00  0.00    +0.000 A 
ATOM     19  C   UNL     1       1.651  11.396  18.999  0.00  0.00    +0.000 A 
ENDBRANCH   5  13
BRANCH  12  20
ATOM     20  C   UNL     1       4.371   4.750  18.152  0.00  0.00    +0.000 C 
BRANCH  20  21
ATOM     21  C   UNL     1       5.774   4.583  18.749  0.00  0.00    +0.000 C 
BRANCH  21  22
ATOM     22  C   UNL     1       6.870   4.584  17.685  0.00  0.00    +0.000 C 
ATOM     23  O   UNL     1       8.056   4.369  17.930  0.00  0.00    +0.000 OA
ATOM     24  N   UNL     1       6.380   4.853  16.428  0.00  0.00    +0.000 N 
ATOM     25  H   UNL     1       5.387   4.990  16.291  0.00  0.00    +0.000 HD
BRANCH  24  26
ATOM     26  C   UNL     1       7.199   4.904  15.233  0.00  0.00    +0.000 C 
BRANCH  26  27
ATOM     27  C   UNL     1       6.438   4.331  14.091  0.00  0.00    +0.000 A 
ATOM     28  C   UNL     1       5.093   4.123  13.857  0.00  0.00    +0.000 A 
ATOM     29  C   UNL     1       4.995   3.510  12.584  0.00  0.00    +0.000 A 
ATOM     30  C   UNL     1       6.283   3.376  12.123  0.00  0.00    +0.000 A 
ATOM     31  O   UNL     1       7.168   3.871  13.029  0.00  0.00    +0.000 OA
ENDBRANCH  26  27
ENDBRANCH  24  26
ENDBRANCH  21  22
ENDBRANCH  20  21
ENDBRANCH  12  20
TORSDOF 6
ENDMDL
MODEL 5
REMARK VINA RESULT:      -7.7      4.995      9.692
REMARK  Name = 
REMARK  9 active torsions:
REMARK  status: ('A' for Active; 'I' for Inactive)
REMARK    1  A    between atoms: C_1  and  C_2
REMARK    2  A    between atoms: C_5  and  C_6
REMARK    3  A    between atoms: C_13  and  C_14
REMARK    4  A    between atoms: C_17  and  C_18
REMARK    5  A    between atoms: C_19  and  C_20
REMARK    6  A    between atoms: C_20  and  C_21
REMARK    7  A    between atoms: C_21  and  C_22
REMARK    8  A    between atoms: N_24  and  C_25
REMARK    9  A    between atoms: C_25  and  C_26
REMARK                            x       y       z     vdW  Elec       q    Type
REMARK                         _______ _______ _______ _____ _____    ______ ____
ROOT
ATOM      1  C   UNL     1       1.999  11.147  17.706  0.00  0.00    +0.000 C 
ATOM      2  C   UNL     1       1.756   9.994  18.655  0.00  0.00    +0.000 A 
ATOM      3  N   UNL     1       2.325   8.868  18.320  0.00  0.00    +0.000 NA
ATOM      4  C   UNL     1       2.159   7.792  19.148  0.00  0.00    +0.000 A 
ATOM      5  C   UNL     1       2.626   6.477  19.106  0.00  0.00    +0.000 A 
ATOM      6  C   UNL     1       2.089   5.884  20.287  0.00  0.00    +0.000 A 
ATOM      7  C   UNL     1       2.184   4.497  20.818  0.00  0.00    +0.000 C 
ATOM      8  N   UNL     1       1.368   6.749  21.003  0.00  0.00    +0.000 NA
ATOM      9  N   UNL     1       1.399   7.910  20.314  0.00  0.00    +0.000 N 
ATOM     10  C   UNL     1       0.773   9.118  20.675  0.00  0.00    +0.000 A 
ATOM     11  C   UNL     1       0.009   9.119  21.973  0.00  0.00    +0.000 C 
ATOM     12  C   UNL     1       0.893  10.219  19.890  0.00  0.00    +0.000 A 
ENDROOT
BRANCH   5  13
ATOM     13  C   UNL     1       3.450   5.889  18.042  0.00  0.00    +0.000 A 
ATOM     14  C   UNL     1       4.486   6.628  17.440  0.00  0.00    +0.000 A 
ATOM     15  C   UNL     1       5.349   6.049  16.503  0.00  0.00    +0.000 A 
ATOM     16  C   UNL     1       5.153   4.733  16.120  0.00  0.00    +0.000 A 
ATOM     17  F   UNL     1       5.973   4.177  15.216  0.00  0.00    +0.000 F 
ATOM     18  C   UNL     1       4.116   3.986  16.660  0.00  0.00    +0.000 A 
ATOM     19  C   UNL     1       3.272   4.561  17.622  0.00  0.00    +0.000 A 
ENDBRANCH   5  13
BRANCH  12  20
ATOM     20  C   UNL     1       0.330  11.583  20.275  0.00  0.00    +0.000 C 
BRANCH  20  21
ATOM     21  C   UNL     1      -0.903  12.085  19.514  0.00  0.00    +0.000 C 
BRANCH  21  22
ATOM     22  C   UNL     1      -2.116  12.282  20.422  0.00  0.00    +0.000 C 
ATOM     23  O   UNL     1      -2.125  11.993  21.617  0.00  0.00    +0.000 OA
ATOM     24  N   UNL     1      -3.192  12.817  19.750  0.00  0.00    +0.000 N 
ATOM     25  H   UNL     1      -3.106  13.061  18.772  0.00  0.00    +0.000 HD
BRANCH  24  26
ATOM     26  C   UNL     1      -4.465  13.118  20.372  0.00  0.00    +0.000 C 
BRANCH  26  27
ATOM     27  C   UNL     1      -5.477  12.123  19.925  0.00  0.00    +0.000 A 
ATOM     28  C   UNL     1      -5.804  11.590  18.694  0.00  0.00    +0.000 A 
ATOM     29  C   UNL     1      -6.885  10.702  18.913  0.00  0.00    +0.000 A 
ATOM     30  C   UNL     1      -7.155  10.750  20.261  0.00  0.00    +0.000 A 
ATOM     31  O   UNL     1      -6.307  11.610  20.885  0.00  0.00    +0.000 OA
ENDBRANCH  26  27
ENDBRANCH  24  26
ENDBRANCH  21  22
ENDBRANCH  20  21
ENDBRANCH  12  20
TORSDOF 6
ENDMDL
MODEL 6
REMARK VINA RESULT:      -7.5      4.922      9.389
REMARK  Name = 
REMARK  9 active torsions:
REMARK  status: ('A' for Active; 'I' for Inactive)
REMARK    1  A    between atoms: C_1  and  C_2
REMARK    2  A    between atoms: C_5  and  C_6
REMARK    3  A    between atoms: C_13  and  C_14
REMARK    4  A    between atoms: C_17  and  C_18
REMARK    5  A    between atoms: C_19  and  C_20
REMARK    6  A    between atoms: C_20  and  C_21
REMARK    7  A    between atoms: C_21  and  C_22
REMARK    8  A    between atoms: N_24  and  C_25
REMARK    9  A    between atoms: C_25  and  C_26
REMARK                            x       y       z     vdW  Elec       q    Type
REMARK                         _______ _______ _______ _____ _____    ______ ____
ROOT
ATOM      1  C   UNL     1       2.184  10.508  17.706  0.00  0.00    +0.000 C 
ATOM      2  C   UNL     1       1.878   9.419  18.712  0.00  0.00    +0.000 A 
ATOM      3  N   UNL     1       2.477   8.279  18.496  0.00  0.00    +0.000 NA
ATOM      4  C   UNL     1       2.257   7.259  19.381  0.00  0.00    +0.000 A 
ATOM      5  C   UNL     1       2.734   5.950  19.462  0.00  0.00    +0.000 A 
ATOM      6  C   UNL     1       2.116   5.432  20.639  0.00  0.00    +0.000 A 
ATOM      7  C   UNL     1       2.180   4.085  21.268  0.00  0.00    +0.000 C 
ATOM      8  N   UNL     1       1.339   6.335  21.240  0.00  0.00    +0.000 NA
ATOM      9  N   UNL     1       1.414   7.447  20.478  0.00  0.00    +0.000 N 
ATOM     10  C   UNL     1       0.756   8.670  20.709  0.00  0.00    +0.000 A 
ATOM     11  C   UNL     1      -0.102   8.750  21.946  0.00  0.00    +0.000 C 
ATOM     12  C   UNL     1       0.926   9.717  19.863  0.00  0.00    +0.000 A 
ENDROOT
BRANCH   5  13
ATOM     13  C   UNL     1       3.637   5.300  18.503  0.00  0.00    +0.000 A 
ATOM     14  C   UNL     1       3.140   4.400  17.541  0.00  0.00    +0.000 A 
ATOM     15  C   UNL     1       3.968   3.856  16.553  0.00  0.00    +0.000 A 
ATOM     16  C   UNL     1       5.316   4.170  16.545  0.00  0.00    +0.000 A 
ATOM     17  F   UNL     1       6.114   3.644  15.605  0.00  0.00    +0.000 F 
ATOM     18  C   UNL     1       5.849   5.020  17.504  0.00  0.00    +0.000 A 
ATOM     19  C   UNL     1       5.011   5.588  18.474  0.00  0.00    +0.000 A 
ENDBRANCH   5  13
BRANCH  12  20
ATOM     20  C   UNL     1       0.328  11.098  20.112  0.00  0.00    +0.000 C 
BRANCH  20  21
ATOM     21  C   UNL     1      -1.198  11.232  20.063  0.00  0.00    +0.000 C 
BRANCH  21  22
ATOM     22  C   UNL     1      -1.707  11.664  18.689  0.00  0.00    +0.000 C 
ATOM     23  O   UNL     1      -1.093  12.427  17.945  0.00  0.00    +0.000 OA
ATOM     24  N   UNL     1      -2.926  11.104  18.381  0.00  0.00    +0.000 N 
ATOM     25  H   UNL     1      -3.363  10.458  19.026  0.00  0.00    +0.000 HD
BRANCH  24  26
ATOM     26  C   UNL     1      -3.632  11.334  17.137  0.00  0.00    +0.000 C 
BRANCH  26  27
ATOM     27  C   UNL     1      -5.056  11.646  17.430  0.00  0.00    +0.000 A 
ATOM     28  C   UNL     1      -6.012  11.050  18.229  0.00  0.00    +0.000 A 
ATOM     29  C   UNL     1      -7.201  11.803  18.067  0.00  0.00    +0.000 A 
ATOM     30  C   UNL     1      -6.899  12.807  17.177  0.00  0.00    +0.000 A 
ATOM     31  O   UNL     1      -5.601  12.721  16.783  0.00  0.00    +0.000 OA
ENDBRANCH  26  27
ENDBRANCH  24  26
ENDBRANCH  21  22
ENDBRANCH  20  21
ENDBRANCH  12  20
TORSDOF 6
ENDMDL
MODEL 7
REMARK VINA RESULT:      -7.5      4.732      9.631
REMARK  Name = 
REMARK  9 active torsions:
REMARK  status: ('A' for Active; 'I' for Inactive)
REMARK    1  A    between atoms: C_1  and  C_2
REMARK    2  A    between atoms: C_5  and  C_6
REMARK    3  A    between atoms: C_13  and  C_14
REMARK    4  A    between atoms: C_17  and  C_18
REMARK    5  A    between atoms: C_19  and  C_20
REMARK    6  A    between atoms: C_20  and  C_21
REMARK    7  A    between atoms: C_21  and  C_22
REMARK    8  A    between atoms: N_24  and  C_25
REMARK    9  A    between atoms: C_25  and  C_26
REMARK                            x       y       z     vdW  Elec       q    Type
REMARK                         _______ _______ _______ _____ _____    ______ ____
ROOT
ATOM      1  C   UNL     1       2.098  10.359  17.787  0.00  0.00    +0.000 C 
ATOM      2  C   UNL     1       1.821   9.214  18.737  0.00  0.00    +0.000 A 
ATOM      3  N   UNL     1       2.565   8.156  18.564  0.00  0.00    +0.000 NA
ATOM      4  C   UNL     1       2.376   7.093  19.404  0.00  0.00    +0.000 A 
ATOM      5  C   UNL     1       2.988   5.843  19.511  0.00  0.00    +0.000 A 
ATOM      6  C   UNL     1       2.319   5.225  20.609  0.00  0.00    +0.000 A 
ATOM      7  C   UNL     1       2.474   3.877  21.218  0.00  0.00    +0.000 C 
ATOM      8  N   UNL     1       1.388   6.018  21.143  0.00  0.00    +0.000 NA
ATOM      9  N   UNL     1       1.411   7.153  20.412  0.00  0.00    +0.000 N 
ATOM     10  C   UNL     1       0.597   8.287  20.596  0.00  0.00    +0.000 A 
ATOM     11  C   UNL     1      -0.383   8.236  21.739  0.00  0.00    +0.000 C 
ATOM     12  C   UNL     1       0.730   9.371  19.789  0.00  0.00    +0.000 A 
ENDROOT
BRANCH   5  13
ATOM     13  C   UNL     1       4.051   5.327  18.638  0.00  0.00    +0.000 A 
ATOM     14  C   UNL     1       3.767   4.919  17.321  0.00  0.00    +0.000 A 
ATOM     15  C   UNL     1       4.784   4.526  16.442  0.00  0.00    +0.000 A 
ATOM     16  C   UNL     1       6.094   4.492  16.888  0.00  0.00    +0.000 A 
ATOM     17  F   UNL     1       7.069   4.109  16.052  0.00  0.00    +0.000 F 
ATOM     18  C   UNL     1       6.405   4.846  18.193  0.00  0.00    +0.000 A 
ATOM     19  C   UNL     1       5.388   5.268  19.062  0.00  0.00    +0.000 A 
ENDBRANCH   5  13
BRANCH  12  20
ATOM     20  C   UNL     1      -0.044  10.668  20.000  0.00  0.00    +0.000 C 
BRANCH  20  21
ATOM     21  C   UNL     1       0.372  11.561  21.175  0.00  0.00    +0.000 C 
BRANCH  21  22
ATOM     22  C   UNL     1      -0.779  11.837  22.140  0.00  0.00    +0.000 C 
ATOM     23  O   UNL     1      -0.841  11.372  23.277  0.00  0.00    +0.000 OA
ATOM     24  N   UNL     1      -1.735  12.662  21.593  0.00  0.00    +0.000 N 
ATOM     25  H   UNL     1      -1.607  13.036  20.662  0.00  0.00    +0.000 HD
BRANCH  24  26
ATOM     26  C   UNL     1      -2.928  13.095  22.293  0.00  0.00    +0.000 C 
BRANCH  26  27
ATOM     27  C   UNL     1      -4.124  12.770  21.473  0.00  0.00    +0.000 A 
ATOM     28  C   UNL     1      -4.365  12.747  20.113  0.00  0.00    +0.000 A 
ATOM     29  C   UNL     1      -5.723  12.381  19.949  0.00  0.00    +0.000 A 
ATOM     30  C   UNL     1      -6.230  12.210  21.216  0.00  0.00    +0.000 A 
ATOM     31  O   UNL     1      -5.269  12.443  22.149  0.00  0.00    +0.000 OA
ENDBRANCH  26  27
ENDBRANCH  24  26
ENDBRANCH  21  22
ENDBRANCH  20  21
ENDBRANCH  12  20
TORSDOF 6
ENDMDL
MODEL 8
REMARK VINA RESULT:      -7.4      4.845      9.266
REMARK  Name = 
REMARK  9 active torsions:
REMARK  status: ('A' for Active; 'I' for Inactive)
REMARK    1  A    between atoms: C_1  and  C_2
REMARK    2  A    between atoms: C_5  and  C_6
REMARK    3  A    between atoms: C_13  and  C_14
REMARK    4  A    between atoms: C_17  and  C_18
REMARK    5  A    between atoms: C_19  and  C_20
REMARK    6  A    between atoms: C_20  and  C_21
REMARK    7  A    between atoms: C_21  and  C_22
REMARK    8  A    between atoms: N_24  and  C_25
REMARK    9  A    between atoms: C_25  and  C_26
REMARK                            x       y       z     vdW  Elec       q    Type
REMARK                         _______ _______ _______ _____ _____    ______ ____
ROOT
ATOM      1  C   UNL     1       1.959  10.883  17.746  0.00  0.00    +0.000 C 
ATOM      2  C   UNL     1       1.795   9.721  18.702  0.00  0.00    +0.000 A 
ATOM      3  N   UNL     1       2.370   8.610  18.330  0.00  0.00    +0.000 NA
ATOM      4  C   UNL     1       2.274   7.527  19.160  0.00  0.00    +0.000 A 
ATOM      5  C   UNL     1       2.767   6.224  19.086  0.00  0.00    +0.000 A 
ATOM      6  C   UNL     1       2.311   5.614  20.292  0.00  0.00    +0.000 A 
ATOM      7  C   UNL     1       2.466   4.228  20.810  0.00  0.00    +0.000 C 
ATOM      8  N   UNL     1       1.611   6.459  21.051  0.00  0.00    +0.000 NA
ATOM      9  N   UNL     1       1.578   7.623  20.367  0.00  0.00    +0.000 N 
ATOM     10  C   UNL     1       0.945   8.815  20.768  0.00  0.00    +0.000 A 
ATOM     11  C   UNL     1       0.254   8.794  22.107  0.00  0.00    +0.000 C 
ATOM     12  C   UNL     1       0.997   9.922  19.983  0.00  0.00    +0.000 A 
ENDROOT
BRANCH   5  13
ATOM     13  C   UNL     1       3.545   5.658  17.975  0.00  0.00    +0.000 A 
ATOM     14  C   UNL     1       4.549   6.413  17.340  0.00  0.00    +0.000 A 
ATOM     15  C   UNL     1       5.371   5.855  16.354  0.00  0.00    +0.000 A 
ATOM     16  C   UNL     1       5.163   4.545  15.957  0.00  0.00    +0.000 A 
ATOM     17  F   UNL     1       5.943   4.009  15.007  0.00  0.00    +0.000 F 
ATOM     18  C   UNL     1       4.154   3.784  16.530  0.00  0.00    +0.000 A 
ATOM     19  C   UNL     1       3.353   4.337  17.539  0.00  0.00    +0.000 A 
ENDBRANCH   5  13
BRANCH  12  20
ATOM     20  C   UNL     1       0.425  11.271  20.406  0.00  0.00    +0.000 C 
BRANCH  20  21
ATOM     21  C   UNL     1      -1.100  11.400  20.501  0.00  0.00    +0.000 C 
BRANCH  21  22
ATOM     22  C   UNL     1      -1.719  11.996  19.238  0.00  0.00    +0.000 C 
ATOM     23  O   UNL     1      -1.559  13.164  18.887  0.00  0.00    +0.000 OA
ATOM     24  N   UNL     1      -2.476  11.080  18.542  0.00  0.00    +0.000 N 
ATOM     25  H   UNL     1      -2.541  10.125  18.871  0.00  0.00    +0.000 HD
BRANCH  24  26
ATOM     26  C   UNL     1      -3.166  11.375  17.303  0.00  0.00    +0.000 C 
BRANCH  26  27
ATOM     27  C   UNL     1      -4.623  11.506  17.571  0.00  0.00    +0.000 A 
ATOM     28  C   UNL     1      -5.501  10.825  18.392  0.00  0.00    +0.000 A 
ATOM     29  C   UNL     1      -6.777  11.404  18.185  0.00  0.00    +0.000 A 
ATOM     30  C   UNL     1      -6.602  12.396  17.249  0.00  0.00    +0.000 A 
ATOM     31  O   UNL     1      -5.298  12.467  16.869  0.00  0.00    +0.000 OA
ENDBRANCH  26  27
ENDBRANCH  24  26
ENDBRANCH  21  22
ENDBRANCH  20  21
ENDBRANCH  12  20
TORSDOF 6
ENDMDL
MODEL 9
REMARK VINA RESULT:      -7.4      4.940     10.086
REMARK  Name = 
REMARK  9 active torsions:
REMARK  status: ('A' for Active; 'I' for Inactive)
REMARK    1  A    between atoms: C_1  and  C_2
REMARK    2  A    between atoms: C_5  and  C_6
REMARK    3  A    between atoms: C_13  and  C_14
REMARK    4  A    between atoms: C_17  and  C_18
REMARK    5  A    between atoms: C_19  and  C_20
REMARK    6  A    between atoms: C_20  and  C_21
REMARK    7  A    between atoms: C_21  and  C_22
REMARK    8  A    between atoms: N_24  and  C_25
REMARK    9  A    between atoms: C_25  and  C_26
REMARK                            x       y       z     vdW  Elec       q    Type
REMARK                         _______ _______ _______ _____ _____    ______ ____
ROOT
ATOM      1  C   UNL     1       1.946  11.009  17.778  0.00  0.00    +0.000 C 
ATOM      2  C   UNL     1       1.771   9.798  18.669  0.00  0.00    +0.000 A 
ATOM      3  N   UNL     1       2.398   8.723  18.275  0.00  0.00    +0.000 NA
ATOM      4  C   UNL     1       2.295   7.599  19.048  0.00  0.00    +0.000 A 
ATOM      5  C   UNL     1       2.831   6.315  18.938  0.00  0.00    +0.000 A 
ATOM      6  C   UNL     1       2.334   5.635  20.090  0.00  0.00    +0.000 A 
ATOM      7  C   UNL     1       2.507   4.231  20.550  0.00  0.00    +0.000 C 
ATOM      8  N   UNL     1       1.573   6.423  20.851  0.00  0.00    +0.000 NA
ATOM      9  N   UNL     1       1.537   7.617  20.222  0.00  0.00    +0.000 N 
ATOM     10  C   UNL     1       0.849   8.770  20.645  0.00  0.00    +0.000 A 
ATOM     11  C   UNL     1       0.094   8.665  21.945  0.00  0.00    +0.000 C 
ATOM     12  C   UNL     1       0.905   9.914  19.917  0.00  0.00    +0.000 A 
ENDROOT
BRANCH   5  13
ATOM     13  C   UNL     1       3.678   5.826  17.842  0.00  0.00    +0.000 A 
ATOM     14  C   UNL     1       4.578   6.688  17.188  0.00  0.00    +0.000 A 
ATOM     15  C   UNL     1       5.468   6.215  16.216  0.00  0.00    +0.000 A 
ATOM     16  C   UNL     1       5.435   4.880  15.855  0.00  0.00    +0.000 A 
ATOM     17  F   UNL     1       6.280   4.425  14.919  0.00  0.00    +0.000 F 
ATOM     18  C   UNL     1       4.531   4.009  16.448  0.00  0.00    +0.000 A 
ATOM     19  C   UNL     1       3.662   4.480  17.443  0.00  0.00    +0.000 A 
ENDBRANCH   5  13
BRANCH  12  20
ATOM     20  C   UNL     1       0.272  11.225  20.373  0.00  0.00    +0.000 C 
BRANCH  20  21
ATOM     21  C   UNL     1      -1.104  11.587  19.802  0.00  0.00    +0.000 C 
BRANCH  21  22
ATOM     22  C   UNL     1      -1.753  12.762  20.531  0.00  0.00    +0.000 C 
ATOM     23  O   UNL     1      -1.120  13.712  20.990  0.00  0.00    +0.000 OA
ATOM     24  N   UNL     1      -3.121  12.636  20.615  0.00  0.00    +0.000 N 
ATOM     25  H   UNL     1      -3.583  11.844  20.188  0.00  0.00    +0.000 HD
BRANCH  24  26
ATOM     26  C   UNL     1      -3.986  13.613  21.244  0.00  0.00    +0.000 C 
BRANCH  26  27
ATOM     27  C   UNL     1      -4.328  13.155  22.617  0.00  0.00    +0.000 A 
ATOM     28  C   UNL     1      -3.577  12.670  23.669  0.00  0.00    +0.000 A 
ATOM     29  C   UNL     1      -4.488  12.375  24.713  0.00  0.00    +0.000 A 
ATOM     30  C   UNL     1      -5.737  12.693  24.233  0.00  0.00    +0.000 A 
ATOM     31  O   UNL     1      -5.652  13.166  22.962  0.00  0.00    +0.000 OA
ENDBRANCH  26  27
ENDBRANCH  24  26
ENDBRANCH  21  22
ENDBRANCH  20  21
ENDBRANCH  12  20
TORSDOF 6
ENDMDL
