MODEL 1
REMARK VINA RESULT:      -6.7      0.000      0.000
REMARK  Name = 
REMARK  5 active torsions:
REMARK  status: ('A' for Active; 'I' for Inactive)
REMARK    1  A    between atoms: C_1  and  O_2
REMARK    2  A    between atoms: O_2  and  C_3
REMARK    3  A    between atoms: N_6  and  C_7
REMARK    4  A    between atoms: C_7  and  C_8
REMARK    5  A    between atoms: C_7  and  C_9
REMARK                            x       y       z     vdW  Elec       q    Type
REMARK                         _______ _______ _______ _____ _____    ______ ____
ROOT
ATOM      1  C   UNL     1       4.352   5.906  18.006  0.00  0.00    +0.000 C 
ATOM      2  C   UNL     1       4.158   7.297  17.396  0.00  0.00    +0.000 C 
ENDROOT
BRANCH   1   3
ATOM      3  C   UNL     1       2.959   5.243  18.255  0.00  0.00    +0.000 C 
ATOM      4  O   UNL     1       1.909   5.825  17.952  0.00  0.00    +0.000 OA
ATOM      5  N   UNL     1       2.931   3.945  18.778  0.00  0.00    +0.000 N 
ATOM      6  C   UNL     1       1.684   3.185  18.676  0.00  0.00    +0.000 C 
ATOM      7  C   UNL     1       0.767   3.402  19.876  0.00  0.00    +0.000 C 
ATOM      8  C   UNL     1       1.207   2.676  21.147  0.00  0.00    +0.000 C 
ATOM      9  C   UNL     1       2.635   2.980  21.599  0.00  0.00    +0.000 C 
ATOM     10  C   UNL     1       3.684   2.406  20.646  0.00  0.00    +0.000 C 
ATOM     11  C   UNL     1       4.049   3.368  19.516  0.00  0.00    +0.000 C 
ENDBRANCH   1   3
BRANCH   1  15
ATOM     12  C   UNL     1       7.181   4.341  15.057  0.00  0.00    +0.000 C 
ATOM     13  C   UNL     1       5.699   3.963  14.977  0.00  0.00    +0.000 C 
ATOM     14  C   UNL     1       4.802   4.870  15.826  0.00  0.00    +0.000 C 
ATOM     15  N   UNL     1       5.278   5.032  17.209  0.00  0.00    +0.000 NA
ATOM     16  C   UNL     1       6.676   5.477  17.242  0.00  0.00    +0.000 C 
ATOM     17  C   UNL     1       7.584   4.482  16.521  0.00  0.00    +0.000 C 
BRANCH  12  19
ATOM     18  C   UNL     1       8.037   5.470  13.113  0.00  0.00    +0.000 C 
ATOM     19  O   UNL     1       7.494   5.584  14.418  0.00  0.00    +0.000 OA
ENDBRANCH  12  19
ENDBRANCH   1  15
TORSDOF 3
ENDMDL
MODEL 2
REMARK VINA RESULT:      -6.4      3.106      4.392
REMARK  Name = 
REMARK  5 active torsions:
REMARK  status: ('A' for Active; 'I' for Inactive)
REMARK    1  A    between atoms: C_1  and  O_2
REMARK    2  A    between atoms: O_2  and  C_3
REMARK    3  A    between atoms: N_6  and  C_7
REMARK    4  A    between atoms: C_7  and  C_8
REMARK    5  A    between atoms: C_7  and  C_9
REMARK                            x       y       z     vdW  Elec       q    Type
REMARK                         _______ _______ _______ _____ _____    ______ ____
ROOT
ATOM      1  C   UNL     1       2.597   5.979  18.084  0.00  0.00    +0.000 C 
ATOM      2  C   UNL     1       1.931   4.625  17.822  0.00  0.00    +0.000 C 
ENDROOT
BRANCH   1   3
ATOM      3  C   UNL     1       2.079   6.565  19.437  0.00  0.00    +0.000 C 
ATOM      4  O   UNL     1       1.820   5.829  20.398  0.00  0.00    +0.000 OA
ATOM      5  N   UNL     1       1.972   7.956  19.553  0.00  0.00    +0.000 N 
ATOM      6  C   UNL     1       1.847   8.531  20.894  0.00  0.00    +0.000 C 
ATOM      7  C   UNL     1       0.395   8.647  21.347  0.00  0.00    +0.000 C 
ATOM      8  C   UNL     1      -0.382   9.788  20.691  0.00  0.00    +0.000 C 
ATOM      9  C   UNL     1      -0.376   9.775  19.163  0.00  0.00    +0.000 C 
ATOM     10  C   UNL     1       1.002  10.087  18.581  0.00  0.00    +0.000 C 
ATOM     11  C   UNL     1       1.864   8.839  18.396  0.00  0.00    +0.000 C 
ENDBRANCH   1   3
BRANCH   1  15
ATOM     12  C   UNL     1       6.743   5.663  16.722  0.00  0.00    +0.000 C 
ATOM     13  C   UNL     1       6.090   4.500  17.474  0.00  0.00    +0.000 C 
ATOM     14  C   UNL     1       4.564   4.612  17.544  0.00  0.00    +0.000 C 
ATOM     15  N   UNL     1       4.096   5.928  18.007  0.00  0.00    +0.000 NA
ATOM     16  C   UNL     1       4.677   7.012  17.206  0.00  0.00    +0.000 C 
ATOM     17  C   UNL     1       6.204   6.980  17.270  0.00  0.00    +0.000 C 
BRANCH  12  19
ATOM     18  C   UNL     1       6.712   4.423  14.660  0.00  0.00    +0.000 C 
ATOM     19  O   UNL     1       6.479   5.660  15.314  0.00  0.00    +0.000 OA
ENDBRANCH  12  19
ENDBRANCH   1  15
TORSDOF 3
ENDMDL
MODEL 3
REMARK VINA RESULT:      -6.3      1.451      2.018
REMARK  Name = 
REMARK  5 active torsions:
REMARK  status: ('A' for Active; 'I' for Inactive)
REMARK    1  A    between atoms: C_1  and  O_2
REMARK    2  A    between atoms: O_2  and  C_3
REMARK    3  A    between atoms: N_6  and  C_7
REMARK    4  A    between atoms: C_7  and  C_8
REMARK    5  A    between atoms: C_7  and  C_9
REMARK                            x       y       z     vdW  Elec       q    Type
REMARK                         _______ _______ _______ _____ _____    ______ ____
ROOT
ATOM      1  C   UNL     1       5.744   4.805  18.459  0.00  0.00    +0.000 C 
ATOM      2  C   UNL     1       6.714   5.363  19.505  0.00  0.00    +0.000 C 
ENDROOT
BRANCH   1   3
ATOM      3  C   UNL     1       4.276   5.153  18.869  0.00  0.00    +0.000 C 
ATOM      4  O   UNL     1       3.925   6.324  19.065  0.00  0.00    +0.000 OA
ATOM      5  N   UNL     1       3.351   4.106  18.950  0.00  0.00    +0.000 N 
ATOM      6  C   UNL     1       1.925   4.442  18.969  0.00  0.00    +0.000 C 
ATOM      7  C   UNL     1       1.396   4.666  20.382  0.00  0.00    +0.000 C 
ATOM      8  C   UNL     1       1.194   3.386  21.192  0.00  0.00    +0.000 C 
ATOM      9  C   UNL     1       2.428   2.492  21.300  0.00  0.00    +0.000 C 
ATOM     10  C   UNL     1       2.802   1.848  19.965  0.00  0.00    +0.000 C 
ATOM     11  C   UNL     1       3.748   2.714  19.133  0.00  0.00    +0.000 C 
ENDBRANCH   1   3
BRANCH   1  15
ATOM     12  C   UNL     1       6.554   4.898  14.161  0.00  0.00    +0.000 C 
ATOM     13  C   UNL     1       7.706   5.013  15.164  0.00  0.00    +0.000 C 
ATOM     14  C   UNL     1       7.312   4.592  16.582  0.00  0.00    +0.000 C 
ATOM     15  N   UNL     1       6.073   5.229  17.057  0.00  0.00    +0.000 NA
ATOM     16  C   UNL     1       4.971   5.024  16.110  0.00  0.00    +0.000 C 
ATOM     17  C   UNL     1       5.321   5.588  14.733  0.00  0.00    +0.000 C 
BRANCH  12  19
ATOM     18  C   UNL     1       5.854   3.293  12.511  0.00  0.00    +0.000 C 
ATOM     19  O   UNL     1       6.177   3.548  13.869  0.00  0.00    +0.000 OA
ENDBRANCH  12  19
ENDBRANCH   1  15
TORSDOF 3
ENDMDL
MODEL 4
REMARK VINA RESULT:      -6.1      1.478      1.950
REMARK  Name = 
REMARK  5 active torsions:
REMARK  status: ('A' for Active; 'I' for Inactive)
REMARK    1  A    between atoms: C_1  and  O_2
REMARK    2  A    between atoms: O_2  and  C_3
REMARK    3  A    between atoms: N_6  and  C_7
REMARK    4  A    between atoms: C_7  and  C_8
REMARK    5  A    between atoms: C_7  and  C_9
REMARK                            x       y       z     vdW  Elec       q    Type
REMARK                         _______ _______ _______ _____ _____    ______ ____
ROOT
ATOM      1  C   UNL     1       5.639   4.438  18.207  0.00  0.00    +0.000 C 
ATOM      2  C   UNL     1       6.878   5.156  18.752  0.00  0.00    +0.000 C 
ENDROOT
BRANCH   1   3
ATOM      3  C   UNL     1       4.364   4.957  18.947  0.00  0.00    +0.000 C 
ATOM      4  O   UNL     1       4.418   5.928  19.713  0.00  0.00    +0.000 OA
ATOM      5  N   UNL     1       3.143   4.330  18.673  0.00  0.00    +0.000 N 
ATOM      6  C   UNL     1       1.910   5.017  19.060  0.00  0.00    +0.000 C 
ATOM      7  C   UNL     1       1.467   4.670  20.477  0.00  0.00    +0.000 C 
ATOM      8  C   UNL     1       0.842   3.283  20.622  0.00  0.00    +0.000 C 
ATOM      9  C   UNL     1       1.708   2.131  20.116  0.00  0.00    +0.000 C 
ATOM     10  C   UNL     1       1.865   2.141  18.596  0.00  0.00    +0.000 C 
ATOM     11  C   UNL     1       3.055   2.979  18.128  0.00  0.00    +0.000 C 
ENDBRANCH   1   3
BRANCH   1  15
ATOM     12  C   UNL     1       6.358   5.121  13.945  0.00  0.00    +0.000 C 
ATOM     13  C   UNL     1       5.416   6.044  14.724  0.00  0.00    +0.000 C 
ATOM     14  C   UNL     1       5.564   5.909  16.243  0.00  0.00    +0.000 C 
ATOM     15  N   UNL     1       5.517   4.515  16.712  0.00  0.00    +0.000 NA
ATOM     16  C   UNL     1       6.494   3.681  16.002  0.00  0.00    +0.000 C 
ATOM     17  C   UNL     1       6.239   3.703  14.495  0.00  0.00    +0.000 C 
BRANCH  12  19
ATOM     18  C   UNL     1       8.380   5.753  12.807  0.00  0.00    +0.000 C 
ATOM     19  O   UNL     1       7.738   5.490  14.043  0.00  0.00    +0.000 OA
ENDBRANCH  12  19
ENDBRANCH   1  15
TORSDOF 3
ENDMDL
MODEL 5
REMARK VINA RESULT:      -6.0      2.842      4.436
REMARK  Name = 
REMARK  5 active torsions:
REMARK  status: ('A' for Active; 'I' for Inactive)
REMARK    1  A    between atoms: C_1  and  O_2
REMARK    2  A    between atoms: O_2  and  C_3
REMARK    3  A    between atoms: N_6  and  C_7
REMARK    4  A    between atoms: C_7  and  C_8
REMARK    5  A    between atoms: C_7  and  C_9
REMARK                            x       y       z     vdW  Elec       q    Type
REMARK                         _______ _______ _______ _____ _____    ______ ____
ROOT
ATOM      1  C   UNL     1       2.460   5.138  18.100  0.00  0.00    +0.000 C 
ATOM      2  C   UNL     1       1.514   3.947  17.920  0.00  0.00    +0.000 C 
ENDROOT
BRANCH   1   3
ATOM      3  C   UNL     1       2.004   5.988  19.329  0.00  0.00    +0.000 C 
ATOM      4  O   UNL     1       1.551   5.451  20.349  0.00  0.00    +0.000 OA
ATOM      5  N   UNL     1       2.176   7.376  19.270  0.00  0.00    +0.000 N 
ATOM      6  C   UNL     1       2.101   8.137  20.519  0.00  0.00    +0.000 C 
ATOM      7  C   UNL     1       0.683   8.594  20.842  0.00  0.00    +0.000 C 
ATOM      8  C   UNL     1       0.189   9.767  19.997  0.00  0.00    +0.000 C 
ATOM      9  C   UNL     1       0.269   9.551  18.487  0.00  0.00    +0.000 C 
ATOM     10  C   UNL     1       1.710   9.508  17.978  0.00  0.00    +0.000 C 
ATOM     11  C   UNL     1       2.309   8.102  18.011  0.00  0.00    +0.000 C 
ENDBRANCH   1   3
BRANCH   1  15
ATOM     12  C   UNL     1       6.828   5.061  17.870  0.00  0.00    +0.000 C 
ATOM     13  C   UNL     1       5.991   4.288  16.848  0.00  0.00    +0.000 C 
ATOM     14  C   UNL     1       4.519   4.713  16.833  0.00  0.00    +0.000 C 
ATOM     15  N   UNL     1       3.907   4.742  18.171  0.00  0.00    +0.000 NA
ATOM     16  C   UNL     1       4.693   5.563  19.099  0.00  0.00    +0.000 C 
ATOM     17  C   UNL     1       6.122   5.034  19.221  0.00  0.00    +0.000 C 
BRANCH  12  19
ATOM     18  C   UNL     1       7.993   7.119  18.313  0.00  0.00    +0.000 C 
ATOM     19  O   UNL     1       7.024   6.439  17.532  0.00  0.00    +0.000 OA
ENDBRANCH  12  19
ENDBRANCH   1  15
TORSDOF 3
ENDMDL
MODEL 6
REMARK VINA RESULT:      -6.0      3.826      6.276
REMARK  Name = 
REMARK  5 active torsions:
REMARK  status: ('A' for Active; 'I' for Inactive)
REMARK    1  A    between atoms: C_1  and  O_2
REMARK    2  A    between atoms: O_2  and  C_3
REMARK    3  A    between atoms: N_6  and  C_7
REMARK    4  A    between atoms: C_7  and  C_8
REMARK    5  A    between atoms: C_7  and  C_9
REMARK                            x       y       z     vdW  Elec       q    Type
REMARK                         _______ _______ _______ _____ _____    ______ ____
ROOT
ATOM      1  C   UNL     1       2.876   7.243  18.791  0.00  0.00    +0.000 C 
ATOM      2  C   UNL     1       4.062   7.035  17.844  0.00  0.00    +0.000 C 
ENDROOT
BRANCH   1   3
ATOM      3  C   UNL     1       2.042   8.479  18.323  0.00  0.00    +0.000 C 
ATOM      4  O   UNL     1       2.199   8.969  17.197  0.00  0.00    +0.000 OA
ATOM      5  N   UNL     1       1.066   8.981  19.191  0.00  0.00    +0.000 N 
ATOM      6  C   UNL     1       0.047   9.879  18.643  0.00  0.00    +0.000 C 
ATOM      7  C   UNL     1       0.469  11.344  18.695  0.00  0.00    +0.000 C 
ATOM      8  C   UNL     1       0.398  11.972  20.086  0.00  0.00    +0.000 C 
ATOM      9  C   UNL     1       1.180  11.230  21.168  0.00  0.00    +0.000 C 
ATOM     10  C   UNL     1       0.562   9.874  21.510  0.00  0.00    +0.000 C 
ATOM     11  C   UNL     1       1.091   8.742  20.630  0.00  0.00    +0.000 C 
ENDBRANCH   1   3
BRANCH   1  15
ATOM     12  C   UNL     1       1.487   3.138  19.393  0.00  0.00    +0.000 C 
ATOM     13  C   UNL     1       1.401   3.784  18.007  0.00  0.00    +0.000 C 
ATOM     14  C   UNL     1       2.254   5.050  17.881  0.00  0.00    +0.000 C 
ATOM     15  N   UNL     1       2.039   6.010  18.975  0.00  0.00    +0.000 NA
ATOM     16  C   UNL     1       2.215   5.373  20.285  0.00  0.00    +0.000 C 
ATOM     17  C   UNL     1       1.248   4.203  20.458  0.00  0.00    +0.000 C 
BRANCH  12  19
ATOM     18  C   UNL     1       3.285   1.725  18.645  0.00  0.00    +0.000 C 
ATOM     19  O   UNL     1       2.761   2.547  19.675  0.00  0.00    +0.000 OA
ENDBRANCH  12  19
ENDBRANCH   1  15
TORSDOF 3
ENDMDL
MODEL 7
REMARK VINA RESULT:      -6.0      2.943      6.373
REMARK  Name = 
REMARK  5 active torsions:
REMARK  status: ('A' for Active; 'I' for Inactive)
REMARK    1  A    between atoms: C_1  and  O_2
REMARK    2  A    between atoms: O_2  and  C_3
REMARK    3  A    between atoms: N_6  and  C_7
REMARK    4  A    between atoms: C_7  and  C_8
REMARK    5  A    between atoms: C_7  and  C_9
REMARK                            x       y       z     vdW  Elec       q    Type
REMARK                         _______ _______ _______ _____ _____    ______ ____
ROOT
ATOM      1  C   UNL     1       3.158   6.332  19.267  0.00  0.00    +0.000 C 
ATOM      2  C   UNL     1       2.807   5.266  20.310  0.00  0.00    +0.000 C 
ENDROOT
BRANCH   1   3
ATOM      3  C   UNL     1       3.571   5.639  17.929  0.00  0.00    +0.000 C 
ATOM      4  O   UNL     1       2.825   4.824  17.371  0.00  0.00    +0.000 OA
ATOM      5  N   UNL     1       4.787   6.011  17.343  0.00  0.00    +0.000 N 
ATOM      6  C   UNL     1       5.016   5.659  15.940  0.00  0.00    +0.000 C 
ATOM      7  C   UNL     1       5.663   4.287  15.780  0.00  0.00    +0.000 C 
ATOM      8  C   UNL     1       7.152   4.246  16.123  0.00  0.00    +0.000 C 
ATOM      9  C   UNL     1       7.504   4.760  17.518  0.00  0.00    +0.000 C 
ATOM     10  C   UNL     1       7.290   6.267  17.658  0.00  0.00    +0.000 C 
ATOM     11  C   UNL     1       5.872   6.626  18.101  0.00  0.00    +0.000 C 
ENDBRANCH   1   3
BRANCH   1  15
ATOM     12  C   UNL     1       0.874  10.057  19.047  0.00  0.00    +0.000 C 
ATOM     13  C   UNL     1       0.659   9.092  20.215  0.00  0.00    +0.000 C 
ATOM     14  C   UNL     1       1.774   8.050  20.346  0.00  0.00    +0.000 C 
ATOM     15  N   UNL     1       2.079   7.360  19.082  0.00  0.00    +0.000 NA
ATOM     16  C   UNL     1       2.364   8.319  18.007  0.00  0.00    +0.000 C 
ATOM     17  C   UNL     1       1.178   9.257  17.784  0.00  0.00    +0.000 C 
BRANCH  12  19
ATOM     18  C   UNL     1       1.829  12.220  18.602  0.00  0.00    +0.000 C 
ATOM     19  O   UNL     1       1.968  10.961  19.239  0.00  0.00    +0.000 OA
ENDBRANCH  12  19
ENDBRANCH   1  15
TORSDOF 3
ENDMDL
MODEL 8
REMARK VINA RESULT:      -6.0      1.661      2.578
REMARK  Name = 
REMARK  5 active torsions:
REMARK  status: ('A' for Active; 'I' for Inactive)
REMARK    1  A    between atoms: C_1  and  O_2
REMARK    2  A    between atoms: O_2  and  C_3
REMARK    3  A    between atoms: N_6  and  C_7
REMARK    4  A    between atoms: C_7  and  C_8
REMARK    5  A    between atoms: C_7  and  C_9
REMARK                            x       y       z     vdW  Elec       q    Type
REMARK                         _______ _______ _______ _____ _____    ______ ____
ROOT
ATOM      1  C   UNL     1       6.010   4.304  18.622  0.00  0.00    +0.000 C 
ATOM      2  C   UNL     1       6.411   5.566  19.393  0.00  0.00    +0.000 C 
ENDROOT
BRANCH   1   3
ATOM      3  C   UNL     1       4.902   3.538  19.414  0.00  0.00    +0.000 C 
ATOM      4  O   UNL     1       5.153   2.482  20.010  0.00  0.00    +0.000 OA
ATOM      5  N   UNL     1       3.626   4.110  19.480  0.00  0.00    +0.000 N 
ATOM      6  C   UNL     1       2.696   3.611  20.496  0.00  0.00    +0.000 C 
ATOM      7  C   UNL     1       1.856   2.441  19.996  0.00  0.00    +0.000 C 
ATOM      8  C   UNL     1       0.733   2.835  19.037  0.00  0.00    +0.000 C 
ATOM      9  C   UNL     1       1.181   3.634  17.815  0.00  0.00    +0.000 C 
ATOM     10  C   UNL     1       1.659   5.040  18.179  0.00  0.00    +0.000 C 
ATOM     11  C   UNL     1       3.150   5.092  18.512  0.00  0.00    +0.000 C 
ENDBRANCH   1   3
BRANCH   1  15
ATOM     12  C   UNL     1       6.028   5.362  14.377  0.00  0.00    +0.000 C 
ATOM     13  C   UNL     1       5.428   6.324  15.407  0.00  0.00    +0.000 C 
ATOM     14  C   UNL     1       5.831   5.989  16.846  0.00  0.00    +0.000 C 
ATOM     15  N   UNL     1       5.626   4.575  17.196  0.00  0.00    +0.000 NA
ATOM     16  C   UNL     1       6.288   3.686  16.234  0.00  0.00    +0.000 C 
ATOM     17  C   UNL     1       5.764   3.926  14.818  0.00  0.00    +0.000 C 
BRANCH  12  19
ATOM     18  C   UNL     1       7.937   5.214  12.921  0.00  0.00    +0.000 C 
ATOM     19  O   UNL     1       7.445   5.494  14.221  0.00  0.00    +0.000 OA
ENDBRANCH  12  19
ENDBRANCH   1  15
TORSDOF 3
ENDMDL
MODEL 9
REMARK VINA RESULT:      -5.9      1.376      2.008
REMARK  Name = 
REMARK  5 active torsions:
REMARK  status: ('A' for Active; 'I' for Inactive)
REMARK    1  A    between atoms: C_1  and  O_2
REMARK    2  A    between atoms: O_2  and  C_3
REMARK    3  A    between atoms: N_6  and  C_7
REMARK    4  A    between atoms: C_7  and  C_8
REMARK    5  A    between atoms: C_7  and  C_9
REMARK                            x       y       z     vdW  Elec       q    Type
REMARK                         _______ _______ _______ _____ _____    ______ ____
ROOT
ATOM      1  C   UNL     1       4.923   6.262  17.810  0.00  0.00    +0.000 C 
ATOM      2  C   UNL     1       3.874   7.327  17.478  0.00  0.00    +0.000 C 
ENDROOT
BRANCH   1   3
ATOM      3  C   UNL     1       4.464   5.446  19.062  0.00  0.00    +0.000 C 
ATOM      4  O   UNL     1       5.245   5.205  19.991  0.00  0.00    +0.000 OA
ATOM      5  N   UNL     1       3.124   5.046  19.132  0.00  0.00    +0.000 N 
ATOM      6  C   UNL     1       2.597   4.615  20.428  0.00  0.00    +0.000 C 
ATOM      7  C   UNL     1       2.780   3.120  20.666  0.00  0.00    +0.000 C 
ATOM      8  C   UNL     1       1.814   2.233  19.881  0.00  0.00    +0.000 C 
ATOM      9  C   UNL     1       1.815   2.461  18.371  0.00  0.00    +0.000 C 
ATOM     10  C   UNL     1       1.226   3.818  17.985  0.00  0.00    +0.000 C 
ATOM     11  C   UNL     1       2.272   4.931  17.953  0.00  0.00    +0.000 C 
ENDBRANCH   1   3
BRANCH   1  15
ATOM     12  C   UNL     1       6.773   4.518  14.250  0.00  0.00    +0.000 C 
ATOM     13  C   UNL     1       5.431   5.248  14.140  0.00  0.00    +0.000 C 
ATOM     14  C   UNL     1       5.114   6.107  15.367  0.00  0.00    +0.000 C 
ATOM     15  N   UNL     1       5.271   5.386  16.641  0.00  0.00    +0.000 NA
ATOM     16  C   UNL     1       6.600   4.773  16.745  0.00  0.00    +0.000 C 
ATOM     17  C   UNL     1       6.845   3.799  15.593  0.00  0.00    +0.000 C 
BRANCH  12  19
ATOM     18  C   UNL     1       8.337   5.718  12.872  0.00  0.00    +0.000 C 
ATOM     19  O   UNL     1       7.909   5.387  14.183  0.00  0.00    +0.000 OA
ENDBRANCH  12  19
ENDBRANCH   1  15
TORSDOF 3
ENDMDL
