MODEL 1
REMARK VINA RESULT:      -8.1      0.000      0.000
REMARK  Name = 
REMARK  3 active torsions:
REMARK  status: ('A' for Active; 'I' for Inactive)
REMARK    1  A    between atoms: N_2  and  C_4
REMARK    2  A    between atoms: C_8  and  S_9
REMARK    3  A    between atoms: S_9  and  N_12
REMARK                            x       y       z     vdW  Elec       q    Type
REMARK                         _______ _______ _______ _____ _____    ______ ____
ROOT
ATOM      1  S   UNL     1       3.298   3.195  17.927  0.00  0.00    +0.000 S 
ATOM      2  O   UNL     1       2.352   3.347  16.839  0.00  0.00    +0.000 OA
ATOM      3  O   UNL     1       3.574   1.925  18.562  0.00  0.00    +0.000 OA
ENDROOT
BRANCH   1   4
ATOM      4  N   UNL     1       2.701   4.211  19.139  0.00  0.00    +0.000 N 
ATOM      5  C   UNL     1       2.705   3.804  20.438  0.00  0.00    +0.000 A 
ATOM      6  N   UNL     1       2.009   4.625  21.187  0.00  0.00    +0.000 NA
ATOM      7  C   UNL     1       1.895   5.759  20.423  0.00  0.00    +0.000 A 
ATOM      8  C   UNL     1       1.429   7.017  20.836  0.00  0.00    +0.000 A 
ATOM      9  C   UNL     1       1.663   8.121  20.020  0.00  0.00    +0.000 A 
ATOM     10  C   UNL     1       2.271   7.954  18.773  0.00  0.00    +0.000 A 
ATOM     11  C   UNL     1       2.621   6.674  18.277  0.00  0.00    +0.000 A 
ATOM     12  C   UNL     1       2.437   5.578  19.140  0.00  0.00    +0.000 A 
ENDBRANCH   1   4
BRANCH   1  17
ATOM     13  C   UNL     1       6.499   4.477  15.628  0.00  0.00    +0.000 A 
ATOM     14  C   UNL     1       7.425   4.872  16.605  0.00  0.00    +0.000 A 
ATOM     15  C   UNL     1       7.081   4.764  17.951  0.00  0.00    +0.000 A 
ATOM     16  C   UNL     1       5.819   4.283  18.334  0.00  0.00    +0.000 A 
ATOM     17  C   UNL     1       4.876   3.909  17.372  0.00  0.00    +0.000 A 
ATOM     18  C   UNL     1       5.222   3.993  15.998  0.00  0.00    +0.000 A 
BRANCH  13  20
ATOM     19  O   UNL     1       6.394   3.790  13.412  0.00  0.00    +0.000 OA
ATOM     20  N   UNL     1       6.898   4.583  14.215  0.00  0.00    +0.000 N 
ATOM     21  O   UNL     1       7.718   5.466  13.905  0.00  0.00    +0.000 OA
ENDBRANCH  13  20
ENDBRANCH   1  17
TORSDOF 3
ENDMDL
MODEL 2
REMARK VINA RESULT:      -8.0      1.967      2.345
REMARK  Name = 
REMARK  3 active torsions:
REMARK  status: ('A' for Active; 'I' for Inactive)
REMARK    1  A    between atoms: N_2  and  C_4
REMARK    2  A    between atoms: C_8  and  S_9
REMARK    3  A    between atoms: S_9  and  N_12
REMARK                            x       y       z     vdW  Elec       q    Type
REMARK                         _______ _______ _______ _____ _____    ______ ____
ROOT
ATOM      1  S   UNL     1       3.277   3.135  17.957  0.00  0.00    +0.000 S 
ATOM      2  O   UNL     1       2.336   3.291  16.865  0.00  0.00    +0.000 OA
ATOM      3  O   UNL     1       3.561   1.860  18.579  0.00  0.00    +0.000 OA
ENDROOT
BRANCH   1   4
ATOM      4  N   UNL     1       2.665   4.132  19.176  0.00  0.00    +0.000 N 
ATOM      5  C   UNL     1       2.645   3.701  20.468  0.00  0.00    +0.000 A 
ATOM      6  N   UNL     1       1.940   4.512  21.219  0.00  0.00    +0.000 NA
ATOM      7  C   UNL     1       1.845   5.661  20.474  0.00  0.00    +0.000 A 
ATOM      8  C   UNL     1       1.379   6.913  20.903  0.00  0.00    +0.000 A 
ATOM      9  C   UNL     1       1.633   8.031  20.111  0.00  0.00    +0.000 A 
ATOM     10  C   UNL     1       2.262   7.884  18.872  0.00  0.00    +0.000 A 
ATOM     11  C   UNL     1       2.614   6.611  18.358  0.00  0.00    +0.000 A 
ATOM     12  C   UNL     1       2.408   5.500  19.198  0.00  0.00    +0.000 A 
ENDBRANCH   1   4
BRANCH   1  17
ATOM     13  C   UNL     1       6.900   5.146  17.839  0.00  0.00    +0.000 A 
ATOM     14  C   UNL     1       7.197   5.138  16.468  0.00  0.00    +0.000 A 
ATOM     15  C   UNL     1       6.316   4.518  15.584  0.00  0.00    +0.000 A 
ATOM     16  C   UNL     1       5.150   3.891  16.053  0.00  0.00    +0.000 A 
ATOM     17  C   UNL     1       4.852   3.869  17.418  0.00  0.00    +0.000 A 
ATOM     18  C   UNL     1       5.730   4.515  18.327  0.00  0.00    +0.000 A 
BRANCH  13  20
ATOM     19  O   UNL     1       8.275   5.185  19.709  0.00  0.00    +0.000 OA
ATOM     20  N   UNL     1       7.839   5.825  18.746  0.00  0.00    +0.000 N 
ATOM     21  O   UNL     1       8.142   7.006  18.494  0.00  0.00    +0.000 OA
ENDBRANCH  13  20
ENDBRANCH   1  17
TORSDOF 3
ENDMDL
MODEL 3
REMARK VINA RESULT:      -7.5      3.091      4.396
REMARK  Name = 
REMARK  3 active torsions:
REMARK  status: ('A' for Active; 'I' for Inactive)
REMARK    1  A    between atoms: N_2  and  C_4
REMARK    2  A    between atoms: C_8  and  S_9
REMARK    3  A    between atoms: S_9  and  N_12
REMARK                            x       y       z     vdW  Elec       q    Type
REMARK                         _______ _______ _______ _____ _____    ______ ____
ROOT
ATOM      1  S   UNL     1       7.013   5.263  16.355  0.00  0.00    +0.000 S 
ATOM      2  O   UNL     1       7.361   4.007  16.990  0.00  0.00    +0.000 OA
ATOM      3  O   UNL     1       7.732   6.495  16.593  0.00  0.00    +0.000 OA
ENDROOT
BRANCH   1   4
ATOM      4  N   UNL     1       5.418   5.544  16.841  0.00  0.00    +0.000 N 
ATOM      5  C   UNL     1       4.855   6.771  16.667  0.00  0.00    +0.000 A 
ATOM      6  N   UNL     1       3.709   6.852  17.300  0.00  0.00    +0.000 NA
ATOM      7  C   UNL     1       3.370   5.546  17.546  0.00  0.00    +0.000 A 
ATOM      8  C   UNL     1       2.134   5.062  18.006  0.00  0.00    +0.000 A 
ATOM      9  C   UNL     1       1.870   3.698  17.911  0.00  0.00    +0.000 A 
ATOM     10  C   UNL     1       2.857   2.823  17.451  0.00  0.00    +0.000 A 
ATOM     11  C   UNL     1       4.158   3.273  17.114  0.00  0.00    +0.000 A 
ATOM     12  C   UNL     1       4.388   4.662  17.154  0.00  0.00    +0.000 A 
ENDBRANCH   1   4
BRANCH   1  17
ATOM     13  C   UNL     1       6.155   3.771  12.584  0.00  0.00    +0.000 A 
ATOM     14  C   UNL     1       7.094   4.437  11.783  0.00  0.00    +0.000 A 
ATOM     15  C   UNL     1       7.974   5.341  12.375  0.00  0.00    +0.000 A 
ATOM     16  C   UNL     1       7.918   5.602  13.753  0.00  0.00    +0.000 A 
ATOM     17  C   UNL     1       6.971   4.966  14.562  0.00  0.00    +0.000 A 
ATOM     18  C   UNL     1       6.084   4.027  13.975  0.00  0.00    +0.000 A 
BRANCH  13  20
ATOM     19  O   UNL     1       5.712   1.704  11.625  0.00  0.00    +0.000 OA
ATOM     20  N   UNL     1       5.251   2.807  11.935  0.00  0.00    +0.000 N 
ATOM     21  O   UNL     1       4.073   3.156  11.736  0.00  0.00    +0.000 OA
ENDBRANCH  13  20
ENDBRANCH   1  17
TORSDOF 3
ENDMDL
MODEL 4
REMARK VINA RESULT:      -7.5      2.886      4.060
REMARK  Name = 
REMARK  3 active torsions:
REMARK  status: ('A' for Active; 'I' for Inactive)
REMARK    1  A    between atoms: N_2  and  C_4
REMARK    2  A    between atoms: C_8  and  S_9
REMARK    3  A    between atoms: S_9  and  N_12
REMARK                            x       y       z     vdW  Elec       q    Type
REMARK                         _______ _______ _______ _____ _____    ______ ____
ROOT
ATOM      1  S   UNL     1       7.010   5.162  16.216  0.00  0.00    +0.000 S 
ATOM      2  O   UNL     1       7.866   4.143  16.793  0.00  0.00    +0.000 OA
ATOM      3  O   UNL     1       7.203   6.577  16.444  0.00  0.00    +0.000 OA
ENDROOT
BRANCH   1   4
ATOM      4  N   UNL     1       5.471   4.792  16.808  0.00  0.00    +0.000 N 
ATOM      5  C   UNL     1       5.187   3.532  17.240  0.00  0.00    +0.000 A 
ATOM      6  N   UNL     1       3.900   3.388  17.447  0.00  0.00    +0.000 NA
ATOM      7  C   UNL     1       3.427   4.674  17.519  0.00  0.00    +0.000 A 
ATOM      8  C   UNL     1       2.154   5.087  17.942  0.00  0.00    +0.000 A 
ATOM      9  C   UNL     1       1.948   6.433  18.237  0.00  0.00    +0.000 A 
ATOM     10  C   UNL     1       2.972   7.361  18.026  0.00  0.00    +0.000 A 
ATOM     11  C   UNL     1       4.219   6.986  17.468  0.00  0.00    +0.000 A 
ATOM     12  C   UNL     1       4.432   5.613  17.236  0.00  0.00    +0.000 A 
ENDBRANCH   1   4
BRANCH   1  17
ATOM     13  C   UNL     1       6.161   3.681  12.439  0.00  0.00    +0.000 A 
ATOM     14  C   UNL     1       7.087   4.365  11.639  0.00  0.00    +0.000 A 
ATOM     15  C   UNL     1       7.957   5.278  12.234  0.00  0.00    +0.000 A 
ATOM     16  C   UNL     1       7.901   5.529  13.613  0.00  0.00    +0.000 A 
ATOM     17  C   UNL     1       6.967   4.875  14.421  0.00  0.00    +0.000 A 
ATOM     18  C   UNL     1       6.091   3.926  13.832  0.00  0.00    +0.000 A 
BRANCH  13  20
ATOM     19  O   UNL     1       4.108   3.058  11.552  0.00  0.00    +0.000 OA
ATOM     20  N   UNL     1       5.269   2.708  11.787  0.00  0.00    +0.000 N 
ATOM     21  O   UNL     1       5.734   1.588  11.507  0.00  0.00    +0.000 OA
ENDBRANCH  13  20
ENDBRANCH   1  17
TORSDOF 3
ENDMDL
MODEL 5
REMARK VINA RESULT:      -7.4      3.066      6.613
REMARK  Name = 
REMARK  3 active torsions:
REMARK  status: ('A' for Active; 'I' for Inactive)
REMARK    1  A    between atoms: N_2  and  C_4
REMARK    2  A    between atoms: C_8  and  S_9
REMARK    3  A    between atoms: S_9  and  N_12
REMARK                            x       y       z     vdW  Elec       q    Type
REMARK                         _______ _______ _______ _____ _____    ______ ____
ROOT
ATOM      1  S   UNL     1       2.857   4.771  19.021  0.00  0.00    +0.000 S 
ATOM      2  O   UNL     1       2.892   4.191  20.350  0.00  0.00    +0.000 OA
ATOM      3  O   UNL     1       2.094   4.205  17.931  0.00  0.00    +0.000 OA
ENDROOT
BRANCH   1   4
ATOM      4  N   UNL     1       4.473   4.762  18.524  0.00  0.00    +0.000 N 
ATOM      5  C   UNL     1       5.466   4.527  19.426  0.00  0.00    +0.000 A 
ATOM      6  N   UNL     1       6.641   4.779  18.901  0.00  0.00    +0.000 NA
ATOM      7  C   UNL     1       6.407   4.797  17.549  0.00  0.00    +0.000 A 
ATOM      8  C   UNL     1       7.365   4.810  16.523  0.00  0.00    +0.000 A 
ATOM      9  C   UNL     1       6.959   4.523  15.222  0.00  0.00    +0.000 A 
ATOM     10  C   UNL     1       5.606   4.318  14.939  0.00  0.00    +0.000 A 
ATOM     11  C   UNL     1       4.607   4.440  15.937  0.00  0.00    +0.000 A 
ATOM     12  C   UNL     1       5.041   4.666  17.257  0.00  0.00    +0.000 A 
ENDBRANCH   1   4
BRANCH   1  17
ATOM     13  C   UNL     1       1.381   8.361  20.477  0.00  0.00    +0.000 A 
ATOM     14  C   UNL     1       1.488   9.199  19.357  0.00  0.00    +0.000 A 
ATOM     15  C   UNL     1       2.014   8.688  18.172  0.00  0.00    +0.000 A 
ATOM     16  C   UNL     1       2.451   7.356  18.095  0.00  0.00    +0.000 A 
ATOM     17  C   UNL     1       2.375   6.515  19.209  0.00  0.00    +0.000 A 
ATOM     18  C   UNL     1       1.820   7.016  20.415  0.00  0.00    +0.000 A 
BRANCH  13  20
ATOM     19  O   UNL     1       1.547   9.572  22.451  0.00  0.00    +0.000 OA
ATOM     20  N   UNL     1       0.803   8.922  21.708  0.00  0.00    +0.000 N 
ATOM     21  O   UNL     1      -0.404   8.712  21.934  0.00  0.00    +0.000 OA
ENDBRANCH  13  20
ENDBRANCH   1  17
TORSDOF 3
ENDMDL
MODEL 6
REMARK VINA RESULT:      -7.3      2.363      3.411
REMARK  Name = 
REMARK  3 active torsions:
REMARK  status: ('A' for Active; 'I' for Inactive)
REMARK    1  A    between atoms: N_2  and  C_4
REMARK    2  A    between atoms: C_8  and  S_9
REMARK    3  A    between atoms: S_9  and  N_12
REMARK                            x       y       z     vdW  Elec       q    Type
REMARK                         _______ _______ _______ _____ _____    ______ ____
ROOT
ATOM      1  S   UNL     1       6.278   5.494  18.113  0.00  0.00    +0.000 S 
ATOM      2  O   UNL     1       6.880   4.474  18.950  0.00  0.00    +0.000 OA
ATOM      3  O   UNL     1       6.762   6.855  18.055  0.00  0.00    +0.000 OA
ENDROOT
BRANCH   1   4
ATOM      4  N   UNL     1       4.679   5.581  18.654  0.00  0.00    +0.000 N 
ATOM      5  C   UNL     1       3.848   6.550  18.182  0.00  0.00    +0.000 A 
ATOM      6  N   UNL     1       2.736   6.590  18.876  0.00  0.00    +0.000 NA
ATOM      7  C   UNL     1       2.708   5.386  19.533  0.00  0.00    +0.000 A 
ATOM      8  C   UNL     1       1.631   4.831  20.241  0.00  0.00    +0.000 A 
ATOM      9  C   UNL     1       1.677   3.482  20.584  0.00  0.00    +0.000 A 
ATOM     10  C   UNL     1       2.820   2.727  20.306  0.00  0.00    +0.000 A 
ATOM     11  C   UNL     1       3.973   3.304  19.720  0.00  0.00    +0.000 A 
ATOM     12  C   UNL     1       3.885   4.651  19.320  0.00  0.00    +0.000 A 
ENDBRANCH   1   4
BRANCH   1  17
ATOM     13  C   UNL     1       6.971   4.802  14.085  0.00  0.00    +0.000 A 
ATOM     14  C   UNL     1       5.957   3.888  13.764  0.00  0.00    +0.000 A 
ATOM     15  C   UNL     1       5.075   3.472  14.760  0.00  0.00    +0.000 A 
ATOM     16  C   UNL     1       5.203   3.944  16.076  0.00  0.00    +0.000 A 
ATOM     17  C   UNL     1       6.224   4.835  16.418  0.00  0.00    +0.000 A 
ATOM     18  C   UNL     1       7.115   5.283  15.409  0.00  0.00    +0.000 A 
BRANCH  13  20
ATOM     19  O   UNL     1       8.826   5.967  13.314  0.00  0.00    +0.000 OA
ATOM     20  N   UNL     1       7.876   5.238  13.009  0.00  0.00    +0.000 N 
ATOM     21  O   UNL     1       7.634   4.848  11.852  0.00  0.00    +0.000 OA
ENDBRANCH  13  20
ENDBRANCH   1  17
TORSDOF 3
ENDMDL
MODEL 7
REMARK VINA RESULT:      -7.1      1.905      2.290
REMARK  Name = 
REMARK  3 active torsions:
REMARK  status: ('A' for Active; 'I' for Inactive)
REMARK    1  A    between atoms: N_2  and  C_4
REMARK    2  A    between atoms: C_8  and  S_9
REMARK    3  A    between atoms: S_9  and  N_12
REMARK                            x       y       z     vdW  Elec       q    Type
REMARK                         _______ _______ _______ _____ _____    ______ ____
ROOT
ATOM      1  S   UNL     1       3.974   3.025  18.661  0.00  0.00    +0.000 S 
ATOM      2  O   UNL     1       2.982   2.414  17.798  0.00  0.00    +0.000 OA
ATOM      3  O   UNL     1       4.800   2.268  19.575  0.00  0.00    +0.000 OA
ENDROOT
BRANCH   1   4
ATOM      4  N   UNL     1       3.087   4.108  19.608  0.00  0.00    +0.000 N 
ATOM      5  C   UNL     1       2.883   3.853  20.930  0.00  0.00    +0.000 A 
ATOM      6  N   UNL     1       1.998   4.681  21.433  0.00  0.00    +0.000 NA
ATOM      7  C   UNL     1       1.940   5.704  20.520  0.00  0.00    +0.000 A 
ATOM      8  C   UNL     1       1.310   6.948  20.680  0.00  0.00    +0.000 A 
ATOM      9  C   UNL     1       1.605   7.970  19.781  0.00  0.00    +0.000 A 
ATOM     10  C   UNL     1       2.444   7.724  18.691  0.00  0.00    +0.000 A 
ATOM     11  C   UNL     1       2.978   6.437  18.433  0.00  0.00    +0.000 A 
ATOM     12  C   UNL     1       2.722   5.433  19.386  0.00  0.00    +0.000 A 
ENDBRANCH   1   4
BRANCH   1  17
ATOM     13  C   UNL     1       6.715   5.804  17.264  0.00  0.00    +0.000 A 
ATOM     14  C   UNL     1       6.600   5.658  15.873  0.00  0.00    +0.000 A 
ATOM     15  C   UNL     1       5.708   4.718  15.359  0.00  0.00    +0.000 A 
ATOM     16  C   UNL     1       4.944   3.909  16.215  0.00  0.00    +0.000 A 
ATOM     17  C   UNL     1       5.065   4.024  17.602  0.00  0.00    +0.000 A 
ATOM     18  C   UNL     1       5.952   4.993  18.139  0.00  0.00    +0.000 A 
BRANCH  13  20
ATOM     19  O   UNL     1       7.847   7.823  17.086  0.00  0.00    +0.000 OA
ATOM     20  N   UNL     1       7.649   6.818  17.778  0.00  0.00    +0.000 N 
ATOM     21  O   UNL     1       8.187   6.610  18.881  0.00  0.00    +0.000 OA
ENDBRANCH  13  20
ENDBRANCH   1  17
TORSDOF 3
ENDMDL
MODEL 8
REMARK VINA RESULT:      -7.0      2.509      5.662
REMARK  Name = 
REMARK  3 active torsions:
REMARK  status: ('A' for Active; 'I' for Inactive)
REMARK    1  A    between atoms: N_2  and  C_4
REMARK    2  A    between atoms: C_8  and  S_9
REMARK    3  A    between atoms: S_9  and  N_12
REMARK                            x       y       z     vdW  Elec       q    Type
REMARK                         _______ _______ _______ _____ _____    ______ ____
ROOT
ATOM      1  S   UNL     1       2.616   3.770  18.346  0.00  0.00    +0.000 S 
ATOM      2  O   UNL     1       2.817   2.836  19.437  0.00  0.00    +0.000 OA
ATOM      3  O   UNL     1       1.719   3.513  17.241  0.00  0.00    +0.000 OA
ENDROOT
BRANCH   1   4
ATOM      4  N   UNL     1       4.155   3.957  17.673  0.00  0.00    +0.000 N 
ATOM      5  C   UNL     1       4.329   3.868  16.326  0.00  0.00    +0.000 A 
ATOM      6  N   UNL     1       5.604   3.818  16.023  0.00  0.00    +0.000 NA
ATOM      7  C   UNL     1       6.235   4.271  17.154  0.00  0.00    +0.000 A 
ATOM      8  C   UNL     1       7.588   4.619  17.289  0.00  0.00    +0.000 A 
ATOM      9  C   UNL     1       7.987   5.339  18.412  0.00  0.00    +0.000 A 
ATOM     10  C   UNL     1       7.068   5.625  19.425  0.00  0.00    +0.000 A 
ATOM     11  C   UNL     1       5.730   5.160  19.373  0.00  0.00    +0.000 A 
ATOM     12  C   UNL     1       5.327   4.491  18.202  0.00  0.00    +0.000 A 
ENDBRANCH   1   4
BRANCH   1  17
ATOM     13  C   UNL     1       1.944   7.809  18.994  0.00  0.00    +0.000 A 
ATOM     14  C   UNL     1       1.620   7.839  20.358  0.00  0.00    +0.000 A 
ATOM     15  C   UNL     1       1.592   6.645  21.077  0.00  0.00    +0.000 A 
ATOM     16  C   UNL     1       1.867   5.420  20.449  0.00  0.00    +0.000 A 
ATOM     17  C   UNL     1       2.167   5.370  19.084  0.00  0.00    +0.000 A 
ATOM     18  C   UNL     1       2.219   6.581  18.345  0.00  0.00    +0.000 A 
BRANCH  13  20
ATOM     19  O   UNL     1       1.502  10.081  18.816  0.00  0.00    +0.000 OA
ATOM     20  N   UNL     1       1.984   9.086  18.264  0.00  0.00    +0.000 N 
ATOM     21  O   UNL     1       2.504   9.095  17.133  0.00  0.00    +0.000 OA
ENDBRANCH  13  20
ENDBRANCH   1  17
TORSDOF 3
ENDMDL
MODEL 9
REMARK VINA RESULT:      -7.0      1.996      2.788
REMARK  Name = 
REMARK  3 active torsions:
REMARK  status: ('A' for Active; 'I' for Inactive)
REMARK    1  A    between atoms: N_2  and  C_4
REMARK    2  A    between atoms: C_8  and  S_9
REMARK    3  A    between atoms: S_9  and  N_12
REMARK                            x       y       z     vdW  Elec       q    Type
REMARK                         _______ _______ _______ _____ _____    ______ ____
ROOT
ATOM      1  S   UNL     1       3.032   5.392  18.903  0.00  0.00    +0.000 S 
ATOM      2  O   UNL     1       2.232   4.653  17.946  0.00  0.00    +0.000 OA
ATOM      3  O   UNL     1       3.032   5.105  20.321  0.00  0.00    +0.000 OA
ENDROOT
BRANCH   1   4
ATOM      4  N   UNL     1       2.500   6.988  18.743  0.00  0.00    +0.000 N 
ATOM      5  C   UNL     1       2.393   7.553  17.509  0.00  0.00    +0.000 A 
ATOM      6  N   UNL     1       2.183   8.844  17.604  0.00  0.00    +0.000 NA
ATOM      7  C   UNL     1       1.770   9.021  18.901  0.00  0.00    +0.000 A 
ATOM      8  C   UNL     1       1.211  10.181  19.462  0.00  0.00    +0.000 A 
ATOM      9  C   UNL     1       0.576  10.089  20.698  0.00  0.00    +0.000 A 
ATOM     10  C   UNL     1       0.580   8.881  21.400  0.00  0.00    +0.000 A 
ATOM     11  C   UNL     1       1.260   7.736  20.915  0.00  0.00    +0.000 A 
ATOM     12  C   UNL     1       1.840   7.828  19.636  0.00  0.00    +0.000 A 
ENDBRANCH   1   4
BRANCH   1  17
ATOM     13  C   UNL     1       6.435   4.952  16.578  0.00  0.00    +0.000 A 
ATOM     14  C   UNL     1       7.460   5.128  17.519  0.00  0.00    +0.000 A 
ATOM     15  C   UNL     1       7.127   5.390  18.847  0.00  0.00    +0.000 A 
ATOM     16  C   UNL     1       5.785   5.496  19.244  0.00  0.00    +0.000 A 
ATOM     17  C   UNL     1       4.752   5.348  18.314  0.00  0.00    +0.000 A 
ATOM     18  C   UNL     1       5.077   5.060  16.962  0.00  0.00    +0.000 A 
BRANCH  13  20
ATOM     19  O   UNL     1       7.674   5.373  14.659  0.00  0.00    +0.000 OA
ATOM     20  N   UNL     1       6.816   4.657  15.187  0.00  0.00    +0.000 N 
ATOM     21  O   UNL     1       6.255   3.702  14.619  0.00  0.00    +0.000 OA
ENDBRANCH  13  20
ENDBRANCH   1  17
TORSDOF 3
ENDMDL
