MODEL 1
REMARK VINA RESULT:      -8.3      0.000      0.000
REMARK  Name = 
REMARK  6 active torsions:
REMARK  status: ('A' for Active; 'I' for Inactive)
REMARK    1  A    between atoms: C_1  and  C_2
REMARK    2  A    between atoms: C_2  and  C_3
REMARK    3  A    between atoms: C_2  and  C_4
REMARK    4  A    between atoms: C_2  and  C_5
REMARK    5  A    between atoms: N_7  and  C_8
REMARK    6  A    between atoms: C_13  and  C_14
REMARK                            x       y       z     vdW  Elec       q    Type
REMARK                         _______ _______ _______ _____ _____    ______ ____
ROOT
ATOM      1  C   UNL     1       3.843   4.070  19.504  0.00  0.00    +0.000 A 
ATOM      2  C   UNL     1       4.258   2.814  19.968  0.00  0.00    +0.000 A 
ATOM      3  C   UNL     1       3.561   2.160  20.984  0.00  0.00    +0.000 A 
ATOM      4  C   UNL     1       2.423   2.742  21.530  0.00  0.00    +0.000 A 
ATOM      5  C   UNL     1       1.999   3.997  21.086  0.00  0.00    +0.000 A 
ATOM      6  C   UNL     1       2.724   4.695  20.101  0.00  0.00    +0.000 A 
ENDROOT
BRANCH   6   7
ATOM      7  C   UNL     1       2.278   6.050  19.630  0.00  0.00    +0.000 C 
ATOM      8  O   UNL     1       2.293   6.271  18.423  0.00  0.00    +0.000 OA
ATOM      9  N   UNL     1       1.914   6.948  20.615  0.00  0.00    +0.000 N 
ATOM     10  C   UNL     1       1.526   8.276  20.384  0.00  0.00    +0.000 A 
ATOM     11  C   UNL     1       1.072   9.010  21.477  0.00  0.00    +0.000 A 
ATOM     12  C   UNL     1       0.693  10.338  21.289  0.00  0.00    +0.000 A 
ATOM     13  C   UNL     1       0.790  10.905  20.029  0.00  0.00    +0.000 A 
ATOM     14  C   UNL     1       1.261  10.108  19.001  0.00  0.00    +0.000 A 
ATOM     15  N   UNL     1       1.622   8.816  19.158  0.00  0.00    +0.000 NA
ATOM     16  H   UNL     1       1.958   6.670  21.581  0.00  0.00    +0.000 HD
ENDBRANCH   6   7
BRANCH   1  19
ATOM     17  C   UNL     1       5.828   5.244  18.640  0.00  0.00    +0.000 C 
ATOM     18  O   UNL     1       6.418   5.234  19.722  0.00  0.00    +0.000 OA
ATOM     19  N   UNL     1       4.563   4.707  18.456  0.00  0.00    +0.000 N 
ATOM     20  H   UNL     1       4.407   4.290  17.535  0.00  0.00    +0.000 HD
BRANCH  17  22
ATOM     21  C   UNL     1       5.315   6.600  16.594  0.00  0.00    +0.000 C 
ATOM     22  C   UNL     1       6.445   5.929  17.399  0.00  0.00    +0.000 C 
ATOM     23  C   UNL     1       7.100   4.851  16.524  0.00  0.00    +0.000 C 
ATOM     24  C   UNL     1       7.481   7.004  17.759  0.00  0.00    +0.000 C 
ENDBRANCH  17  22
ENDBRANCH   1  19
TORSDOF 3
ENDMDL
MODEL 2
REMARK VINA RESULT:      -7.9      1.766      4.599
REMARK  Name = 
REMARK  6 active torsions:
REMARK  status: ('A' for Active; 'I' for Inactive)
REMARK    1  A    between atoms: C_1  and  C_2
REMARK    2  A    between atoms: C_2  and  C_3
REMARK    3  A    between atoms: C_2  and  C_4
REMARK    4  A    between atoms: C_2  and  C_5
REMARK    5  A    between atoms: N_7  and  C_8
REMARK    6  A    between atoms: C_13  and  C_14
REMARK                            x       y       z     vdW  Elec       q    Type
REMARK                         _______ _______ _______ _____ _____    ______ ____
ROOT
ATOM      1  C   UNL     1       4.185   4.652  17.257  0.00  0.00    +0.000 A 
ATOM      2  C   UNL     1       4.867   3.924  16.271  0.00  0.00    +0.000 A 
ATOM      3  C   UNL     1       5.574   4.576  15.261  0.00  0.00    +0.000 A 
ATOM      4  C   UNL     1       5.629   5.965  15.238  0.00  0.00    +0.000 A 
ATOM      5  C   UNL     1       4.949   6.707  16.207  0.00  0.00    +0.000 A 
ATOM      6  C   UNL     1       4.185   6.065  17.200  0.00  0.00    +0.000 A 
ENDROOT
BRANCH   6   7
ATOM      7  C   UNL     1       3.442   6.860  18.237  0.00  0.00    +0.000 C 
ATOM      8  O   UNL     1       3.571   6.531  19.412  0.00  0.00    +0.000 OA
ATOM      9  N   UNL     1       2.647   7.885  17.763  0.00  0.00    +0.000 N 
ATOM     10  C   UNL     1       1.833   8.701  18.562  0.00  0.00    +0.000 A 
ATOM     11  C   UNL     1       1.188   9.768  17.941  0.00  0.00    +0.000 A 
ATOM     12  C   UNL     1       0.358  10.591  18.699  0.00  0.00    +0.000 A 
ATOM     13  C   UNL     1       0.177  10.324  20.046  0.00  0.00    +0.000 A 
ATOM     14  C   UNL     1       0.847   9.239  20.581  0.00  0.00    +0.000 A 
ATOM     15  N   UNL     1       1.665   8.436  19.868  0.00  0.00    +0.000 NA
ATOM     16  H   UNL     1       2.597   8.057  16.773  0.00  0.00    +0.000 HD
ENDBRANCH   6   7
BRANCH   1  19
ATOM     17  C   UNL     1       2.125   3.706  18.220  0.00  0.00    +0.000 C 
ATOM     18  O   UNL     1       1.410   4.072  17.284  0.00  0.00    +0.000 OA
ATOM     19  N   UNL     1       3.487   3.961  18.285  0.00  0.00    +0.000 N 
ATOM     20  H   UNL     1       4.037   3.226  18.736  0.00  0.00    +0.000 HD
BRANCH  17  22
ATOM     21  C   UNL     1       2.658   2.211  20.161  0.00  0.00    +0.000 C 
ATOM     22  C   UNL     1       1.527   2.975  19.443  0.00  0.00    +0.000 C 
ATOM     23  C   UNL     1       0.488   1.961  18.944  0.00  0.00    +0.000 C 
ATOM     24  C   UNL     1       0.877   3.929  20.455  0.00  0.00    +0.000 C 
ENDBRANCH  17  22
ENDBRANCH   1  19
TORSDOF 3
ENDMDL
MODEL 3
REMARK VINA RESULT:      -7.8      1.156      1.593
REMARK  Name = 
REMARK  6 active torsions:
REMARK  status: ('A' for Active; 'I' for Inactive)
REMARK    1  A    between atoms: C_1  and  C_2
REMARK    2  A    between atoms: C_2  and  C_3
REMARK    3  A    between atoms: C_2  and  C_4
REMARK    4  A    between atoms: C_2  and  C_5
REMARK    5  A    between atoms: N_7  and  C_8
REMARK    6  A    between atoms: C_13  and  C_14
REMARK                            x       y       z     vdW  Elec       q    Type
REMARK                         _______ _______ _______ _____ _____    ______ ____
ROOT
ATOM      1  C   UNL     1       3.810   4.127  19.552  0.00  0.00    +0.000 A 
ATOM      2  C   UNL     1       4.202   2.874  20.046  0.00  0.00    +0.000 A 
ATOM      3  C   UNL     1       3.448   2.221  21.021  0.00  0.00    +0.000 A 
ATOM      4  C   UNL     1       2.278   2.800  21.496  0.00  0.00    +0.000 A 
ATOM      5  C   UNL     1       1.876   4.051  21.022  0.00  0.00    +0.000 A 
ATOM      6  C   UNL     1       2.655   4.749  20.079  0.00  0.00    +0.000 A 
ENDROOT
BRANCH   6   7
ATOM      7  C   UNL     1       2.232   6.100  19.577  0.00  0.00    +0.000 C 
ATOM      8  O   UNL     1       2.249   6.292  18.364  0.00  0.00    +0.000 OA
ATOM      9  N   UNL     1       1.885   7.028  20.540  0.00  0.00    +0.000 N 
ATOM     10  C   UNL     1       1.520   8.356  20.278  0.00  0.00    +0.000 A 
ATOM     11  C   UNL     1       1.081   9.124  21.353  0.00  0.00    +0.000 A 
ATOM     12  C   UNL     1       0.725  10.454  21.135  0.00  0.00    +0.000 A 
ATOM     13  C   UNL     1       0.831  10.989  19.862  0.00  0.00    +0.000 A 
ATOM     14  C   UNL     1       1.285  10.159  18.852  0.00  0.00    +0.000 A 
ATOM     15  N   UNL     1       1.624   8.866  19.039  0.00  0.00    +0.000 NA
ATOM     16  H   UNL     1       1.925   6.771  21.512  0.00  0.00    +0.000 HD
ENDBRANCH   6   7
BRANCH   1  19
ATOM     17  C   UNL     1       4.614   4.319  17.232  0.00  0.00    +0.000 C 
ATOM     18  O   UNL     1       3.988   3.334  16.837  0.00  0.00    +0.000 OA
ATOM     19  N   UNL     1       4.588   4.762  18.546  0.00  0.00    +0.000 N 
ATOM     20  H   UNL     1       4.654   5.777  18.655  0.00  0.00    +0.000 HD
BRANCH  17  22
ATOM     21  C   UNL     1       6.990   4.996  16.803  0.00  0.00    +0.000 C 
ATOM     22  C   UNL     1       5.543   5.110  16.283  0.00  0.00    +0.000 C 
ATOM     23  C   UNL     1       5.125   6.586  16.311  0.00  0.00    +0.000 C 
ATOM     24  C   UNL     1       5.510   4.589  14.839  0.00  0.00    +0.000 C 
ENDBRANCH  17  22
ENDBRANCH   1  19
TORSDOF 3
ENDMDL
MODEL 4
REMARK VINA RESULT:      -7.6      1.658      4.404
REMARK  Name = 
REMARK  6 active torsions:
REMARK  status: ('A' for Active; 'I' for Inactive)
REMARK    1  A    between atoms: C_1  and  C_2
REMARK    2  A    between atoms: C_2  and  C_3
REMARK    3  A    between atoms: C_2  and  C_4
REMARK    4  A    between atoms: C_2  and  C_5
REMARK    5  A    between atoms: N_7  and  C_8
REMARK    6  A    between atoms: C_13  and  C_14
REMARK                            x       y       z     vdW  Elec       q    Type
REMARK                         _______ _______ _______ _____ _____    ______ ____
ROOT
ATOM      1  C   UNL     1       3.709   4.772  17.359  0.00  0.00    +0.000 A 
ATOM      2  C   UNL     1       4.401   3.989  16.424  0.00  0.00    +0.000 A 
ATOM      3  C   UNL     1       5.353   4.559  15.578  0.00  0.00    +0.000 A 
ATOM      4  C   UNL     1       5.643   5.915  15.674  0.00  0.00    +0.000 A 
ATOM      5  C   UNL     1       4.958   6.712  16.594  0.00  0.00    +0.000 A 
ATOM      6  C   UNL     1       3.955   6.163  17.416  0.00  0.00    +0.000 A 
ENDROOT
BRANCH   6   7
ATOM      7  C   UNL     1       3.207   7.020  18.399  0.00  0.00    +0.000 C 
ATOM      8  O   UNL     1       3.332   6.765  19.593  0.00  0.00    +0.000 OA
ATOM      9  N   UNL     1       2.412   8.012  17.859  0.00  0.00    +0.000 N 
ATOM     10  C   UNL     1       1.594   8.875  18.603  0.00  0.00    +0.000 A 
ATOM     11  C   UNL     1       0.950   9.900  17.914  0.00  0.00    +0.000 A 
ATOM     12  C   UNL     1       0.116  10.768  18.617  0.00  0.00    +0.000 A 
ATOM     13  C   UNL     1      -0.069  10.585  19.977  0.00  0.00    +0.000 A 
ATOM     14  C   UNL     1       0.600   9.536  20.581  0.00  0.00    +0.000 A 
ATOM     15  N   UNL     1       1.422   8.691  19.923  0.00  0.00    +0.000 NA
ATOM     16  H   UNL     1       2.365   8.122  16.861  0.00  0.00    +0.000 HD
ENDBRANCH   6   7
BRANCH   1  19
ATOM     17  C   UNL     1       3.113   3.554  19.415  0.00  0.00    +0.000 C 
ATOM     18  O   UNL     1       4.277   3.474  19.814  0.00  0.00    +0.000 OA
ATOM     19  N   UNL     1       2.757   4.162  18.221  0.00  0.00    +0.000 N 
ATOM     20  H   UNL     1       1.851   4.637  18.239  0.00  0.00    +0.000 HD
BRANCH  17  22
ATOM     21  C   UNL     1       1.377   1.745  19.378  0.00  0.00    +0.000 C 
ATOM     22  C   UNL     1       1.951   2.912  20.207  0.00  0.00    +0.000 C 
ATOM     23  C   UNL     1       0.853   3.966  20.400  0.00  0.00    +0.000 C 
ATOM     24  C   UNL     1       2.387   2.361  21.572  0.00  0.00    +0.000 C 
ENDBRANCH  17  22
ENDBRANCH   1  19
TORSDOF 3
ENDMDL
MODEL 5
REMARK VINA RESULT:      -7.5      1.086      1.385
REMARK  Name = 
REMARK  6 active torsions:
REMARK  status: ('A' for Active; 'I' for Inactive)
REMARK    1  A    between atoms: C_1  and  C_2
REMARK    2  A    between atoms: C_2  and  C_3
REMARK    3  A    between atoms: C_2  and  C_4
REMARK    4  A    between atoms: C_2  and  C_5
REMARK    5  A    between atoms: N_7  and  C_8
REMARK    6  A    between atoms: C_13  and  C_14
REMARK                            x       y       z     vdW  Elec       q    Type
REMARK                         _______ _______ _______ _____ _____    ______ ____
ROOT
ATOM      1  C   UNL     1       3.529   4.397  19.990  0.00  0.00    +0.000 A 
ATOM      2  C   UNL     1       3.660   3.146  20.609  0.00  0.00    +0.000 A 
ATOM      3  C   UNL     1       2.548   2.488  21.135  0.00  0.00    +0.000 A 
ATOM      4  C   UNL     1       1.287   3.061  21.027  0.00  0.00    +0.000 A 
ATOM      5  C   UNL     1       1.138   4.311  20.421  0.00  0.00    +0.000 A 
ATOM      6  C   UNL     1       2.258   5.013  19.934  0.00  0.00    +0.000 A 
ENDROOT
BRANCH   6   7
ATOM      7  C   UNL     1       2.103   6.364  19.293  0.00  0.00    +0.000 C 
ATOM      8  O   UNL     1       2.404   6.473  18.108  0.00  0.00    +0.000 OA
ATOM      9  N   UNL     1       1.657   7.381  20.115  0.00  0.00    +0.000 N 
ATOM     10  C   UNL     1       1.505   8.718  19.722  0.00  0.00    +0.000 A 
ATOM     11  C   UNL     1       0.928   9.594  20.639  0.00  0.00    +0.000 A 
ATOM     12  C   UNL     1       0.774  10.934  20.290  0.00  0.00    +0.000 A 
ATOM     13  C   UNL     1       1.211  11.372  19.051  0.00  0.00    +0.000 A 
ATOM     14  C   UNL     1       1.782  10.438  18.204  0.00  0.00    +0.000 A 
ATOM     15  N   UNL     1       1.929   9.134  18.517  0.00  0.00    +0.000 NA
ATOM     16  H   UNL     1       1.457   7.186  21.081  0.00  0.00    +0.000 HD
ENDBRANCH   6   7
BRANCH   1  19
ATOM     17  C   UNL     1       5.229   4.670  18.228  0.00  0.00    +0.000 C 
ATOM     18  O   UNL     1       4.788   3.752  17.533  0.00  0.00    +0.000 OA
ATOM     19  N   UNL     1       4.676   5.037  19.446  0.00  0.00    +0.000 N 
ATOM     20  H   UNL     1       4.728   6.038  19.653  0.00  0.00    +0.000 HD
BRANCH  17  22
ATOM     21  C   UNL     1       7.308   4.583  16.829  0.00  0.00    +0.000 C 
ATOM     22  C   UNL     1       6.495   5.451  17.810  0.00  0.00    +0.000 C 
ATOM     23  C   UNL     1       7.345   5.706  19.063  0.00  0.00    +0.000 C 
ATOM     24  C   UNL     1       6.177   6.785  17.120  0.00  0.00    +0.000 C 
ENDBRANCH  17  22
ENDBRANCH   1  19
TORSDOF 3
ENDMDL
MODEL 6
REMARK VINA RESULT:      -7.3      1.605      4.243
REMARK  Name = 
REMARK  6 active torsions:
REMARK  status: ('A' for Active; 'I' for Inactive)
REMARK    1  A    between atoms: C_1  and  C_2
REMARK    2  A    between atoms: C_2  and  C_3
REMARK    3  A    between atoms: C_2  and  C_4
REMARK    4  A    between atoms: C_2  and  C_5
REMARK    5  A    between atoms: N_7  and  C_8
REMARK    6  A    between atoms: C_13  and  C_14
REMARK                            x       y       z     vdW  Elec       q    Type
REMARK                         _______ _______ _______ _____ _____    ______ ____
ROOT
ATOM      1  C   UNL     1       4.053   5.041  17.677  0.00  0.00    +0.000 A 
ATOM      2  C   UNL     1       5.057   4.155  17.261  0.00  0.00    +0.000 A 
ATOM      3  C   UNL     1       6.224   4.627  16.659  0.00  0.00    +0.000 A 
ATOM      4  C   UNL     1       6.413   5.994  16.490  0.00  0.00    +0.000 A 
ATOM      5  C   UNL     1       5.420   6.891  16.891  0.00  0.00    +0.000 A 
ATOM      6  C   UNL     1       4.213   6.427  17.449  0.00  0.00    +0.000 A 
ENDROOT
BRANCH   6   7
ATOM      7  C   UNL     1       3.138   7.388  17.870  0.00  0.00    +0.000 C 
ATOM      8  O   UNL     1       2.713   8.177  17.031  0.00  0.00    +0.000 OA
ATOM      9  N   UNL     1       2.740   7.316  19.191  0.00  0.00    +0.000 N 
ATOM     10  C   UNL     1       1.796   8.163  19.790  0.00  0.00    +0.000 A 
ATOM     11  C   UNL     1       1.418   7.877  21.100  0.00  0.00    +0.000 A 
ATOM     12  C   UNL     1       0.494   8.706  21.734  0.00  0.00    +0.000 A 
ATOM     13  C   UNL     1      -0.015   9.803  21.059  0.00  0.00    +0.000 A 
ATOM     14  C   UNL     1       0.421  10.020  19.764  0.00  0.00    +0.000 A 
ATOM     15  N   UNL     1       1.305   9.224  19.127  0.00  0.00    +0.000 NA
ATOM     16  H   UNL     1       3.169   6.643  19.802  0.00  0.00    +0.000 HD
ENDBRANCH   6   7
BRANCH   1  19
ATOM     17  C   UNL     1       2.929   3.728  19.432  0.00  0.00    +0.000 C 
ATOM     18  O   UNL     1       3.980   3.371  19.967  0.00  0.00    +0.000 OA
ATOM     19  N   UNL     1       2.882   4.533  18.303  0.00  0.00    +0.000 N 
ATOM     20  H   UNL     1       2.085   5.174  18.270  0.00  0.00    +0.000 HD
BRANCH  17  22
ATOM     21  C   UNL     1       0.700   4.470  20.310  0.00  0.00    +0.000 C 
ATOM     22  C   UNL     1       1.560   3.240  19.956  0.00  0.00    +0.000 C 
ATOM     23  C   UNL     1       1.792   2.418  21.232  0.00  0.00    +0.000 C 
ATOM     24  C   UNL     1       0.789   2.397  18.930  0.00  0.00    +0.000 C 
ENDBRANCH  17  22
ENDBRANCH   1  19
TORSDOF 3
ENDMDL
MODEL 7
REMARK VINA RESULT:      -6.9      3.988      7.336
REMARK  Name = 
REMARK  6 active torsions:
REMARK  status: ('A' for Active; 'I' for Inactive)
REMARK    1  A    between atoms: C_1  and  C_2
REMARK    2  A    between atoms: C_2  and  C_3
REMARK    3  A    between atoms: C_2  and  C_4
REMARK    4  A    between atoms: C_2  and  C_5
REMARK    5  A    between atoms: N_7  and  C_8
REMARK    6  A    between atoms: C_13  and  C_14
REMARK                            x       y       z     vdW  Elec       q    Type
REMARK                         _______ _______ _______ _____ _____    ______ ____
ROOT
ATOM      1  C   UNL     1       6.615   5.125  18.417  0.00  0.00    +0.000 A 
ATOM      2  C   UNL     1       7.327   5.627  19.516  0.00  0.00    +0.000 A 
ATOM      3  C   UNL     1       8.121   6.768  19.394  0.00  0.00    +0.000 A 
ATOM      4  C   UNL     1       8.192   7.437  18.178  0.00  0.00    +0.000 A 
ATOM      5  C   UNL     1       7.495   6.947  17.070  0.00  0.00    +0.000 A 
ATOM      6  C   UNL     1       6.734   5.766  17.162  0.00  0.00    +0.000 A 
ENDROOT
BRANCH   6   7
ATOM      7  C   UNL     1       5.994   5.230  15.969  0.00  0.00    +0.000 C 
ATOM      8  O   UNL     1       4.767   5.236  16.007  0.00  0.00    +0.000 OA
ATOM      9  N   UNL     1       6.772   4.744  14.937  0.00  0.00    +0.000 N 
ATOM     10  C   UNL     1       6.273   4.151  13.768  0.00  0.00    +0.000 A 
ATOM     11  C   UNL     1       7.190   3.826  12.772  0.00  0.00    +0.000 A 
ATOM     12  C   UNL     1       6.733   3.221  11.603  0.00  0.00    +0.000 A 
ATOM     13  C   UNL     1       5.384   2.939  11.461  0.00  0.00    +0.000 A 
ATOM     14  C   UNL     1       4.543   3.287  12.503  0.00  0.00    +0.000 A 
ATOM     15  N   UNL     1       4.962   3.884  13.639  0.00  0.00    +0.000 NA
ATOM     16  H   UNL     1       7.775   4.768  15.018  0.00  0.00    +0.000 HD
ENDBRANCH   6   7
BRANCH   1  19
ATOM     17  C   UNL     1       4.548   4.017  19.170  0.00  0.00    +0.000 C 
ATOM     18  O   UNL     1       4.053   5.049  19.627  0.00  0.00    +0.000 OA
ATOM     19  N   UNL     1       5.800   3.971  18.574  0.00  0.00    +0.000 N 
ATOM     20  H   UNL     1       5.881   3.300  17.806  0.00  0.00    +0.000 HD
BRANCH  17  22
ATOM     21  C   UNL     1       2.425   2.901  19.903  0.00  0.00    +0.000 C 
ATOM     22  C   UNL     1       3.818   2.660  19.287  0.00  0.00    +0.000 C 
ATOM     23  C   UNL     1       4.623   1.754  20.229  0.00  0.00    +0.000 C 
ATOM     24  C   UNL     1       3.628   1.961  17.933  0.00  0.00    +0.000 C 
ENDBRANCH  17  22
ENDBRANCH   1  19
TORSDOF 3
ENDMDL
MODEL 8
REMARK VINA RESULT:      -6.9      1.566      4.202
REMARK  Name = 
REMARK  6 active torsions:
REMARK  status: ('A' for Active; 'I' for Inactive)
REMARK    1  A    between atoms: C_1  and  C_2
REMARK    2  A    between atoms: C_2  and  C_3
REMARK    3  A    between atoms: C_2  and  C_4
REMARK    4  A    between atoms: C_2  and  C_5
REMARK    5  A    between atoms: N_7  and  C_8
REMARK    6  A    between atoms: C_13  and  C_14
REMARK                            x       y       z     vdW  Elec       q    Type
REMARK                         _______ _______ _______ _____ _____    ______ ____
ROOT
ATOM      1  C   UNL     1       4.824   5.306  18.584  0.00  0.00    +0.000 A 
ATOM      2  C   UNL     1       5.981   4.516  18.526  0.00  0.00    +0.000 A 
ATOM      3  C   UNL     1       7.075   4.905  17.753  0.00  0.00    +0.000 A 
ATOM      4  C   UNL     1       7.035   6.102  17.047  0.00  0.00    +0.000 A 
ATOM      5  C   UNL     1       5.887   6.897  17.086  0.00  0.00    +0.000 A 
ATOM      6  C   UNL     1       4.754   6.491  17.817  0.00  0.00    +0.000 A 
ENDROOT
BRANCH   6   7
ATOM      7  C   UNL     1       3.513   7.338  17.851  0.00  0.00    +0.000 C 
ATOM      8  O   UNL     1       3.091   7.778  16.786  0.00  0.00    +0.000 OA
ATOM      9  N   UNL     1       2.970   7.574  19.099  0.00  0.00    +0.000 N 
ATOM     10  C   UNL     1       1.853   8.384  19.346  0.00  0.00    +0.000 A 
ATOM     11  C   UNL     1       1.360   8.417  20.648  0.00  0.00    +0.000 A 
ATOM     12  C   UNL     1       0.261   9.224  20.936  0.00  0.00    +0.000 A 
ATOM     13  C   UNL     1      -0.308   9.987  19.929  0.00  0.00    +0.000 A 
ATOM     14  C   UNL     1       0.249   9.902  18.666  0.00  0.00    +0.000 A 
ATOM     15  N   UNL     1       1.306   9.119  18.363  0.00  0.00    +0.000 NA
ATOM     16  H   UNL     1       3.411   7.180  19.913  0.00  0.00    +0.000 HD
ENDBRANCH   6   7
BRANCH   1  19
ATOM     17  C   UNL     1       2.953   3.785  19.090  0.00  0.00    +0.000 C 
ATOM     18  O   UNL     1       3.131   3.086  18.091  0.00  0.00    +0.000 OA
ATOM     19  N   UNL     1       3.730   4.894  19.394  0.00  0.00    +0.000 N 
ATOM     20  H   UNL     1       3.875   5.051  20.394  0.00  0.00    +0.000 HD
BRANCH  17  22
ATOM     21  C   UNL     1       0.703   2.701  19.316  0.00  0.00    +0.000 C 
ATOM     22  C   UNL     1       1.785   3.507  20.063  0.00  0.00    +0.000 C 
ATOM     23  C   UNL     1       1.185   4.850  20.501  0.00  0.00    +0.000 C 
ATOM     24  C   UNL     1       2.213   2.703  21.299  0.00  0.00    +0.000 C 
ENDBRANCH  17  22
ENDBRANCH   1  19
TORSDOF 3
ENDMDL
MODEL 9
REMARK VINA RESULT:      -6.8      1.517      2.000
REMARK  Name = 
REMARK  6 active torsions:
REMARK  status: ('A' for Active; 'I' for Inactive)
REMARK    1  A    between atoms: C_1  and  C_2
REMARK    2  A    between atoms: C_2  and  C_3
REMARK    3  A    between atoms: C_2  and  C_4
REMARK    4  A    between atoms: C_2  and  C_5
REMARK    5  A    between atoms: N_7  and  C_8
REMARK    6  A    between atoms: C_13  and  C_14
REMARK                            x       y       z     vdW  Elec       q    Type
REMARK                         _______ _______ _______ _____ _____    ______ ____
ROOT
ATOM      1  C   UNL     1       3.490   3.829  18.341  0.00  0.00    +0.000 A 
ATOM      2  C   UNL     1       3.689   2.490  17.974  0.00  0.00    +0.000 A 
ATOM      3  C   UNL     1       2.828   1.489  18.424  0.00  0.00    +0.000 A 
ATOM      4  C   UNL     1       1.742   1.817  19.226  0.00  0.00    +0.000 A 
ATOM      5  C   UNL     1       1.532   3.144  19.609  0.00  0.00    +0.000 A 
ATOM      6  C   UNL     1       2.424   4.158  19.209  0.00  0.00    +0.000 A 
ENDROOT
BRANCH   6   7
ATOM      7  C   UNL     1       2.208   5.585  19.629  0.00  0.00    +0.000 C 
ATOM      8  O   UNL     1       2.017   5.809  20.821  0.00  0.00    +0.000 OA
ATOM      9  N   UNL     1       2.215   6.525  18.618  0.00  0.00    +0.000 N 
ATOM     10  C   UNL     1       1.975   7.895  18.797  0.00  0.00    +0.000 A 
ATOM     11  C   UNL     1       2.140   8.725  17.690  0.00  0.00    +0.000 A 
ATOM     12  C   UNL     1       1.895  10.090  17.826  0.00  0.00    +0.000 A 
ATOM     13  C   UNL     1       1.477  10.591  19.047  0.00  0.00    +0.000 A 
ATOM     14  C   UNL     1       1.328   9.696  20.092  0.00  0.00    +0.000 A 
ATOM     15  N   UNL     1       1.572   8.373  19.986  0.00  0.00    +0.000 NA
ATOM     16  H   UNL     1       2.361   6.230  17.667  0.00  0.00    +0.000 HD
ENDBRANCH   6   7
BRANCH   1  19
ATOM     17  C   UNL     1       5.706   4.898  18.232  0.00  0.00    +0.000 C 
ATOM     18  O   UNL     1       6.224   4.115  19.030  0.00  0.00    +0.000 OA
ATOM     19  N   UNL     1       4.373   4.831  17.854  0.00  0.00    +0.000 N 
ATOM     20  H   UNL     1       4.190   5.108  16.887  0.00  0.00    +0.000 HD
BRANCH  17  22
ATOM     21  C   UNL     1       7.097   5.628  16.278  0.00  0.00    +0.000 C 
ATOM     22  C   UNL     1       6.508   6.075  17.631  0.00  0.00    +0.000 C 
ATOM     23  C   UNL     1       7.663   6.413  18.583  0.00  0.00    +0.000 C 
ATOM     24  C   UNL     1       5.651   7.325  17.391  0.00  0.00    +0.000 C 
ENDBRANCH  17  22
ENDBRANCH   1  19
TORSDOF 3
ENDMDL
