MODEL 1
REMARK VINA RESULT:      -5.8      0.000      0.000
REMARK  Name = 
REMARK  9 active torsions:
REMARK  status: ('A' for Active; 'I' for Inactive)
REMARK    1  A    between atoms: C_1  and  N_2
REMARK    2  A    between atoms: N_2  and  C_3
REMARK    3  A    between atoms: C_3  and  C_4
REMARK    4  A    between atoms: C_10  and  C_12
REMARK    5  A    between atoms: C_17  and  O_19
REMARK    6  A    between atoms: O_19  and  C_20
REMARK    7  A    between atoms: C_20  and  C_21
REMARK    8  A    between atoms: C_20  and  C_22
REMARK    9  A    between atoms: C_20  and  C_23
REMARK                            x       y       z     vdW  Elec       q    Type
REMARK                         _______ _______ _______ _____ _____    ______ ____
ROOT
ATOM      1  C   UNL     1       4.140   3.926  18.183  0.00  0.00    +0.000 C 
ATOM      2  C   UNL     1       4.166   2.558  17.503  0.00  0.00    +0.000 C 
ATOM      3  S   UNL     1       3.510   1.370  18.702  0.00  0.00    +0.000 S 
ATOM      4  C   UNL     1       2.617   2.639  19.606  0.00  0.00    +0.000 C 
ATOM      5  N   UNL     1       3.345   3.865  19.402  0.00  0.00    +0.000 N 
ATOM      6  C   UNL     1       2.907   4.986  20.065  0.00  0.00    +0.000 C 
ATOM      7  O   UNL     1       2.138   4.918  21.019  0.00  0.00    +0.000 OA
ENDROOT
BRANCH   1  10
ATOM      8  C   UNL     1       7.541   5.682  17.505  0.00  0.00    +0.000 C 
ATOM      9  N   UNL     1       6.148   5.302  17.300  0.00  0.00    +0.000 N 
ATOM     10  C   UNL     1       5.547   4.567  18.314  0.00  0.00    +0.000 C 
ATOM     11  O   UNL     1       6.108   4.470  19.416  0.00  0.00    +0.000 OA
BRANCH   9  12
ATOM     12  C   UNL     1       5.526   5.779  16.063  0.00  0.00    +0.000 C 
BRANCH  12  13
ATOM     13  C   UNL     1       6.028   5.094  14.810  0.00  0.00    +0.000 A 
ATOM     14  C   UNL     1       7.238   5.421  14.190  0.00  0.00    +0.000 A 
ATOM     15  C   UNL     1       7.588   4.782  13.011  0.00  0.00    +0.000 A 
ATOM     16  N   UNL     1       6.838   3.828  12.423  0.00  0.00    +0.000 NA
ATOM     17  C   UNL     1       5.679   3.512  13.036  0.00  0.00    +0.000 A 
ATOM     18  C   UNL     1       5.239   4.104  14.211  0.00  0.00    +0.000 A 
ENDBRANCH  12  13
ENDBRANCH   9  12
ENDBRANCH   1  10
BRANCH   6  19
ATOM     19  O   UNL     1       3.405   6.138  19.540  0.00  0.00    +0.000 OA
BRANCH  19  20
ATOM     20  C   UNL     1       2.518   7.042  18.832  0.00  0.00    +0.000 C 
ATOM     21  C   UNL     1       1.841   8.005  19.814  0.00  0.00    +0.000 C 
ATOM     22  C   UNL     1       3.393   7.870  17.871  0.00  0.00    +0.000 C 
ATOM     23  C   UNL     1       1.516   6.256  17.976  0.00  0.00    +0.000 C 
ENDBRANCH  19  20
ENDBRANCH   6  19
TORSDOF 5
ENDMDL
MODEL 2
REMARK VINA RESULT:      -5.8      3.192      6.293
REMARK  Name = 
REMARK  9 active torsions:
REMARK  status: ('A' for Active; 'I' for Inactive)
REMARK    1  A    between atoms: C_1  and  N_2
REMARK    2  A    between atoms: N_2  and  C_3
REMARK    3  A    between atoms: C_3  and  C_4
REMARK    4  A    between atoms: C_10  and  C_12
REMARK    5  A    between atoms: C_17  and  O_19
REMARK    6  A    between atoms: O_19  and  C_20
REMARK    7  A    between atoms: C_20  and  C_21
REMARK    8  A    between atoms: C_20  and  C_22
REMARK    9  A    between atoms: C_20  and  C_23
REMARK                            x       y       z     vdW  Elec       q    Type
REMARK                         _______ _______ _______ _____ _____    ______ ____
ROOT
ATOM      1  C   UNL     1       3.795   5.976  17.581  0.00  0.00    +0.000 C 
ATOM      2  C   UNL     1       4.816   6.932  16.967  0.00  0.00    +0.000 C 
ATOM      3  S   UNL     1       6.365   6.007  16.808  0.00  0.00    +0.000 S 
ATOM      4  C   UNL     1       5.520   4.422  16.803  0.00  0.00    +0.000 C 
ATOM      5  N   UNL     1       4.304   4.612  17.550  0.00  0.00    +0.000 N 
ATOM      6  C   UNL     1       3.508   3.513  17.765  0.00  0.00    +0.000 C 
ATOM      7  O   UNL     1       3.926   2.368  17.614  0.00  0.00    +0.000 OA
ENDROOT
BRANCH   1  10
ATOM      8  C   UNL     1       2.014   7.955  20.414  0.00  0.00    +0.000 C 
ATOM      9  N   UNL     1       2.294   7.478  19.065  0.00  0.00    +0.000 N 
ATOM     10  C   UNL     1       3.244   6.471  18.945  0.00  0.00    +0.000 C 
ATOM     11  O   UNL     1       3.627   5.866  19.958  0.00  0.00    +0.000 OA
BRANCH   9  12
ATOM     12  C   UNL     1       1.508   8.086  17.990  0.00  0.00    +0.000 C 
BRANCH  12  13
ATOM     13  C   UNL     1       1.232   9.562  18.180  0.00  0.00    +0.000 A 
ATOM     14  C   UNL     1       2.227  10.543  18.108  0.00  0.00    +0.000 A 
ATOM     15  C   UNL     1       1.890  11.865  18.355  0.00  0.00    +0.000 A 
ATOM     16  N   UNL     1       0.639  12.281  18.638  0.00  0.00    +0.000 NA
ATOM     17  C   UNL     1      -0.314  11.328  18.691  0.00  0.00    +0.000 A 
ATOM     18  C   UNL     1      -0.073   9.980  18.471  0.00  0.00    +0.000 A 
ENDBRANCH  12  13
ENDBRANCH   9  12
ENDBRANCH   1  10
BRANCH   6  19
ATOM     19  O   UNL     1       2.242   3.842  18.138  0.00  0.00    +0.000 OA
BRANCH  19  20
ATOM     20  C   UNL     1       1.616   3.137  19.241  0.00  0.00    +0.000 C 
ATOM     21  C   UNL     1       2.682   2.563  20.181  0.00  0.00    +0.000 C 
ATOM     22  C   UNL     1       0.789   4.174  20.026  0.00  0.00    +0.000 C 
ATOM     23  C   UNL     1       0.641   2.074  18.719  0.00  0.00    +0.000 C 
ENDBRANCH  19  20
ENDBRANCH   6  19
TORSDOF 5
ENDMDL
MODEL 3
REMARK VINA RESULT:      -5.7      3.194      6.377
REMARK  Name = 
REMARK  9 active torsions:
REMARK  status: ('A' for Active; 'I' for Inactive)
REMARK    1  A    between atoms: C_1  and  N_2
REMARK    2  A    between atoms: N_2  and  C_3
REMARK    3  A    between atoms: C_3  and  C_4
REMARK    4  A    between atoms: C_10  and  C_12
REMARK    5  A    between atoms: C_17  and  O_19
REMARK    6  A    between atoms: O_19  and  C_20
REMARK    7  A    between atoms: C_20  and  C_21
REMARK    8  A    between atoms: C_20  and  C_22
REMARK    9  A    between atoms: C_20  and  C_23
REMARK                            x       y       z     vdW  Elec       q    Type
REMARK                         _______ _______ _______ _____ _____    ______ ____
ROOT
ATOM      1  C   UNL     1       3.788   5.972  17.582  0.00  0.00    +0.000 C 
ATOM      2  C   UNL     1       4.816   6.927  16.979  0.00  0.00    +0.000 C 
ATOM      3  S   UNL     1       6.358   5.992  16.809  0.00  0.00    +0.000 S 
ATOM      4  C   UNL     1       5.501   4.414  16.785  0.00  0.00    +0.000 C 
ATOM      5  N   UNL     1       4.286   4.605  17.534  0.00  0.00    +0.000 N 
ATOM      6  C   UNL     1       3.482   3.509  17.736  0.00  0.00    +0.000 C 
ATOM      7  O   UNL     1       3.890   2.363  17.572  0.00  0.00    +0.000 OA
ENDROOT
BRANCH   1  10
ATOM      8  C   UNL     1       2.021   7.929  20.439  0.00  0.00    +0.000 C 
ATOM      9  N   UNL     1       2.298   7.466  19.084  0.00  0.00    +0.000 N 
ATOM     10  C   UNL     1       3.241   6.454  18.952  0.00  0.00    +0.000 C 
ATOM     11  O   UNL     1       3.621   5.836  19.958  0.00  0.00    +0.000 OA
BRANCH   9  12
ATOM     12  C   UNL     1       1.514   8.091  18.017  0.00  0.00    +0.000 C 
BRANCH  12  13
ATOM     13  C   UNL     1       1.189   9.550  18.256  0.00  0.00    +0.000 A 
ATOM     14  C   UNL     1      -0.097  10.009  18.557  0.00  0.00    +0.000 A 
ATOM     15  C   UNL     1      -0.312  11.371  18.701  0.00  0.00    +0.000 A 
ATOM     16  N   UNL     1       0.660  12.299  18.594  0.00  0.00    +0.000 NA
ATOM     17  C   UNL     1       1.899  11.844  18.317  0.00  0.00    +0.000 A 
ATOM     18  C   UNL     1       2.210  10.503  18.144  0.00  0.00    +0.000 A 
ENDBRANCH  12  13
ENDBRANCH   9  12
ENDBRANCH   1  10
BRANCH   6  19
ATOM     19  O   UNL     1       2.218   3.844  18.114  0.00  0.00    +0.000 OA
BRANCH  19  20
ATOM     20  C   UNL     1       1.619   3.190  19.261  0.00  0.00    +0.000 C 
ATOM     21  C   UNL     1       0.773   4.187  20.062  0.00  0.00    +0.000 C 
ATOM     22  C   UNL     1       0.683   2.093  18.717  0.00  0.00    +0.000 C 
ATOM     23  C   UNL     1       2.692   2.496  20.110  0.00  0.00    +0.000 C 
ENDBRANCH  19  20
ENDBRANCH   6  19
TORSDOF 5
ENDMDL
MODEL 4
REMARK VINA RESULT:      -5.6      0.158      1.341
REMARK  Name = 
REMARK  9 active torsions:
REMARK  status: ('A' for Active; 'I' for Inactive)
REMARK    1  A    between atoms: C_1  and  N_2
REMARK    2  A    between atoms: N_2  and  C_3
REMARK    3  A    between atoms: C_3  and  C_4
REMARK    4  A    between atoms: C_10  and  C_12
REMARK    5  A    between atoms: C_17  and  O_19
REMARK    6  A    between atoms: O_19  and  C_20
REMARK    7  A    between atoms: C_20  and  C_21
REMARK    8  A    between atoms: C_20  and  C_22
REMARK    9  A    between atoms: C_20  and  C_23
REMARK                            x       y       z     vdW  Elec       q    Type
REMARK                         _______ _______ _______ _____ _____    ______ ____
ROOT
ATOM      1  C   UNL     1       4.114   3.795  18.194  0.00  0.00    +0.000 C 
ATOM      2  C   UNL     1       4.080   2.414  17.541  0.00  0.00    +0.000 C 
ATOM      3  S   UNL     1       3.433   1.267  18.784  0.00  0.00    +0.000 S 
ATOM      4  C   UNL     1       2.606   2.577  19.691  0.00  0.00    +0.000 C 
ATOM      5  N   UNL     1       3.359   3.778  19.440  0.00  0.00    +0.000 N 
ATOM      6  C   UNL     1       2.974   4.922  20.095  0.00  0.00    +0.000 C 
ATOM      7  O   UNL     1       2.236   4.894  21.075  0.00  0.00    +0.000 OA
ENDROOT
BRANCH   1  10
ATOM      8  C   UNL     1       7.523   5.474  17.377  0.00  0.00    +0.000 C 
ATOM      9  N   UNL     1       6.113   5.131  17.233  0.00  0.00    +0.000 N 
ATOM     10  C   UNL     1       5.541   4.398  18.266  0.00  0.00    +0.000 C 
ATOM     11  O   UNL     1       6.150   4.275  19.340  0.00  0.00    +0.000 OA
BRANCH   9  12
ATOM     12  C   UNL     1       5.447   5.638  16.032  0.00  0.00    +0.000 C 
BRANCH  12  13
ATOM     13  C   UNL     1       5.952   5.035  14.739  0.00  0.00    +0.000 A 
ATOM     14  C   UNL     1       5.267   4.035  14.041  0.00  0.00    +0.000 A 
ATOM     15  C   UNL     1       5.837   3.500  12.895  0.00  0.00    +0.000 A 
ATOM     16  N   UNL     1       7.016   3.905  12.383  0.00  0.00    +0.000 NA
ATOM     17  C   UNL     1       7.661   4.880  13.058  0.00  0.00    +0.000 A 
ATOM     18  C   UNL     1       7.178   5.468  14.218  0.00  0.00    +0.000 A 
ENDBRANCH  12  13
ENDBRANCH   9  12
ENDBRANCH   1  10
BRANCH   6  19
ATOM     19  O   UNL     1       3.484   6.051  19.532  0.00  0.00    +0.000 OA
BRANCH  19  20
ATOM     20  C   UNL     1       2.615   6.924  18.767  0.00  0.00    +0.000 C 
ATOM     21  C   UNL     1       1.556   6.104  18.021  0.00  0.00    +0.000 C 
ATOM     22  C   UNL     1       1.892   7.838  19.777  0.00  0.00    +0.000 C 
ATOM     23  C   UNL     1       3.436   7.828  17.839  0.00  0.00    +0.000 C 
ENDBRANCH  19  20
ENDBRANCH   6  19
TORSDOF 5
ENDMDL
MODEL 5
REMARK VINA RESULT:      -5.5      0.569      1.064
REMARK  Name = 
REMARK  9 active torsions:
REMARK  status: ('A' for Active; 'I' for Inactive)
REMARK    1  A    between atoms: C_1  and  N_2
REMARK    2  A    between atoms: N_2  and  C_3
REMARK    3  A    between atoms: C_3  and  C_4
REMARK    4  A    between atoms: C_10  and  C_12
REMARK    5  A    between atoms: C_17  and  O_19
REMARK    6  A    between atoms: O_19  and  C_20
REMARK    7  A    between atoms: C_20  and  C_21
REMARK    8  A    between atoms: C_20  and  C_22
REMARK    9  A    between atoms: C_20  and  C_23
REMARK                            x       y       z     vdW  Elec       q    Type
REMARK                         _______ _______ _______ _____ _____    ______ ____
ROOT
ATOM      1  C   UNL     1       3.630   3.698  18.254  0.00  0.00    +0.000 C 
ATOM      2  C   UNL     1       3.359   2.287  17.733  0.00  0.00    +0.000 C 
ATOM      3  S   UNL     1       2.505   1.398  19.059  0.00  0.00    +0.000 S 
ATOM      4  C   UNL     1       1.914   2.916  19.816  0.00  0.00    +0.000 C 
ATOM      5  N   UNL     1       2.871   3.935  19.474  0.00  0.00    +0.000 N 
ATOM      6  C   UNL     1       2.689   5.188  20.008  0.00  0.00    +0.000 C 
ATOM      7  O   UNL     1       1.947   5.385  20.966  0.00  0.00    +0.000 OA
ENDROOT
BRANCH   1  10
ATOM      8  C   UNL     1       7.274   4.743  17.391  0.00  0.00    +0.000 C 
ATOM      9  N   UNL     1       5.824   4.648  17.259  0.00  0.00    +0.000 N 
ATOM     10  C   UNL     1       5.141   4.045  18.308  0.00  0.00    +0.000 C 
ATOM     11  O   UNL     1       5.727   3.837  19.382  0.00  0.00    +0.000 OA
BRANCH   9  12
ATOM     12  C   UNL     1       5.248   5.241  16.052  0.00  0.00    +0.000 C 
BRANCH  12  13
ATOM     13  C   UNL     1       5.911   4.802  14.764  0.00  0.00    +0.000 A 
ATOM     14  C   UNL     1       7.132   5.318  14.317  0.00  0.00    +0.000 A 
ATOM     15  C   UNL     1       7.634   4.899  13.094  0.00  0.00    +0.000 A 
ATOM     16  N   UNL     1       7.027   3.991  12.304  0.00  0.00    +0.000 NA
ATOM     17  C   UNL     1       5.857   3.491  12.752  0.00  0.00    +0.000 A 
ATOM     18  C   UNL     1       5.270   3.856  13.954  0.00  0.00    +0.000 A 
ENDBRANCH  12  13
ENDBRANCH   9  12
ENDBRANCH   1  10
BRANCH   6  19
ATOM     19  O   UNL     1       3.398   6.149  19.356  0.00  0.00    +0.000 OA
BRANCH  19  20
ATOM     20  C   UNL     1       2.705   7.085  18.492  0.00  0.00    +0.000 C 
ATOM     21  C   UNL     1       1.622   6.364  17.681  0.00  0.00    +0.000 C 
ATOM     22  C   UNL     1       2.014   8.116  19.407  0.00  0.00    +0.000 C 
ATOM     23  C   UNL     1       3.702   7.851  17.613  0.00  0.00    +0.000 C 
ENDBRANCH  19  20
ENDBRANCH   6  19
TORSDOF 5
ENDMDL
MODEL 6
REMARK VINA RESULT:      -5.4      2.853      6.718
REMARK  Name = 
REMARK  9 active torsions:
REMARK  status: ('A' for Active; 'I' for Inactive)
REMARK    1  A    between atoms: C_1  and  N_2
REMARK    2  A    between atoms: N_2  and  C_3
REMARK    3  A    between atoms: C_3  and  C_4
REMARK    4  A    between atoms: C_10  and  C_12
REMARK    5  A    between atoms: C_17  and  O_19
REMARK    6  A    between atoms: O_19  and  C_20
REMARK    7  A    between atoms: C_20  and  C_21
REMARK    8  A    between atoms: C_20  and  C_22
REMARK    9  A    between atoms: C_20  and  C_23
REMARK                            x       y       z     vdW  Elec       q    Type
REMARK                         _______ _______ _______ _____ _____    ______ ____
ROOT
ATOM      1  C   UNL     1       2.565   5.098  20.000  0.00  0.00    +0.000 C 
ATOM      2  C   UNL     1       1.293   4.716  20.755  0.00  0.00    +0.000 C 
ATOM      3  S   UNL     1       1.214   2.907  20.761  0.00  0.00    +0.000 S 
ATOM      4  C   UNL     1       2.986   2.741  20.518  0.00  0.00    +0.000 C 
ATOM      5  N   UNL     1       3.408   3.924  19.814  0.00  0.00    +0.000 N 
ATOM      6  C   UNL     1       4.724   4.004  19.431  0.00  0.00    +0.000 C 
ATOM      7  O   UNL     1       5.453   3.017  19.397  0.00  0.00    +0.000 OA
ENDROOT
BRANCH   1  10
ATOM      8  C   UNL     1       1.740   7.975  17.520  0.00  0.00    +0.000 C 
ATOM      9  N   UNL     1       2.183   7.335  18.753  0.00  0.00    +0.000 N 
ATOM     10  C   UNL     1       2.288   5.949  18.733  0.00  0.00    +0.000 C 
ATOM     11  O   UNL     1       2.240   5.347  17.650  0.00  0.00    +0.000 OA
BRANCH   9  12
ATOM     12  C   UNL     1       2.512   8.232  19.862  0.00  0.00    +0.000 C 
BRANCH  12  13
ATOM     13  C   UNL     1       1.314   8.918  20.484  0.00  0.00    +0.000 A 
ATOM     14  C   UNL     1       0.582   9.919  19.836  0.00  0.00    +0.000 A 
ATOM     15  C   UNL     1      -0.464  10.532  20.508  0.00  0.00    +0.000 A 
ATOM     16  N   UNL     1      -0.848  10.205  21.758  0.00  0.00    +0.000 NA
ATOM     17  C   UNL     1      -0.144   9.229  22.368  0.00  0.00    +0.000 A 
ATOM     18  C   UNL     1       0.925   8.566  21.783  0.00  0.00    +0.000 A 
ENDBRANCH  12  13
ENDBRANCH   9  12
ENDBRANCH   1  10
BRANCH   6  19
ATOM     19  O   UNL     1       5.108   5.271  19.118  0.00  0.00    +0.000 OA
BRANCH  19  20
ATOM     20  C   UNL     1       5.905   5.504  17.929  0.00  0.00    +0.000 C 
ATOM     21  C   UNL     1       5.536   4.497  16.834  0.00  0.00    +0.000 C 
ATOM     22  C   UNL     1       5.555   6.917  17.421  0.00  0.00    +0.000 C 
ATOM     23  C   UNL     1       7.401   5.498  18.269  0.00  0.00    +0.000 C 
ENDBRANCH  19  20
ENDBRANCH   6  19
TORSDOF 5
ENDMDL
MODEL 7
REMARK VINA RESULT:      -5.3      2.761      4.390
REMARK  Name = 
REMARK  9 active torsions:
REMARK  status: ('A' for Active; 'I' for Inactive)
REMARK    1  A    between atoms: C_1  and  N_2
REMARK    2  A    between atoms: N_2  and  C_3
REMARK    3  A    between atoms: C_3  and  C_4
REMARK    4  A    between atoms: C_10  and  C_12
REMARK    5  A    between atoms: C_17  and  O_19
REMARK    6  A    between atoms: O_19  and  C_20
REMARK    7  A    between atoms: C_20  and  C_21
REMARK    8  A    between atoms: C_20  and  C_22
REMARK    9  A    between atoms: C_20  and  C_23
REMARK                            x       y       z     vdW  Elec       q    Type
REMARK                         _______ _______ _______ _____ _____    ______ ____
ROOT
ATOM      1  C   UNL     1       3.455   6.319  18.508  0.00  0.00    +0.000 C 
ATOM      2  C   UNL     1       3.710   7.566  17.662  0.00  0.00    +0.000 C 
ATOM      3  S   UNL     1       2.259   8.631  17.856  0.00  0.00    +0.000 S 
ATOM      4  C   UNL     1       1.810   7.884  19.427  0.00  0.00    +0.000 C 
ATOM      5  N   UNL     1       2.317   6.537  19.390  0.00  0.00    +0.000 N 
ATOM      6  C   UNL     1       2.030   5.718  20.455  0.00  0.00    +0.000 C 
ATOM      7  O   UNL     1       1.141   5.984  21.259  0.00  0.00    +0.000 OA
ENDROOT
BRANCH   1  10
ATOM      8  C   UNL     1       4.415   3.086  16.576  0.00  0.00    +0.000 C 
ATOM      9  N   UNL     1       4.536   4.176  17.537  0.00  0.00    +0.000 N 
ATOM     10  C   UNL     1       3.435   5.012  17.674  0.00  0.00    +0.000 C 
ATOM     11  O   UNL     1       2.347   4.677  17.180  0.00  0.00    +0.000 OA
BRANCH   9  12
ATOM     12  C   UNL     1       5.794   4.239  18.284  0.00  0.00    +0.000 C 
BRANCH  12  13
ATOM     13  C   UNL     1       6.636   5.460  17.983  0.00  0.00    +0.000 A 
ATOM     14  C   UNL     1       7.436   6.093  18.940  0.00  0.00    +0.000 A 
ATOM     15  C   UNL     1       8.128   7.243  18.587  0.00  0.00    +0.000 A 
ATOM     16  N   UNL     1       8.101   7.786  17.354  0.00  0.00    +0.000 NA
ATOM     17  C   UNL     1       7.337   7.159  16.436  0.00  0.00    +0.000 A 
ATOM     18  C   UNL     1       6.601   6.012  16.696  0.00  0.00    +0.000 A 
ENDBRANCH  12  13
ENDBRANCH   9  12
ENDBRANCH   1  10
BRANCH   6  19
ATOM     19  O   UNL     1       2.835   4.623  20.511  0.00  0.00    +0.000 OA
BRANCH  19  20
ATOM     20  C   UNL     1       2.240   3.301  20.564  0.00  0.00    +0.000 C 
ATOM     21  C   UNL     1       3.216   2.254  20.017  0.00  0.00    +0.000 C 
ATOM     22  C   UNL     1       1.977   2.984  22.050  0.00  0.00    +0.000 C 
ATOM     23  C   UNL     1       0.884   3.289  19.847  0.00  0.00    +0.000 C 
ENDBRANCH  19  20
ENDBRANCH   6  19
TORSDOF 5
ENDMDL
MODEL 8
REMARK VINA RESULT:      -5.2      8.041     11.963
REMARK  Name = 
REMARK  9 active torsions:
REMARK  status: ('A' for Active; 'I' for Inactive)
REMARK    1  A    between atoms: C_1  and  N_2
REMARK    2  A    between atoms: N_2  and  C_3
REMARK    3  A    between atoms: C_3  and  C_4
REMARK    4  A    between atoms: C_10  and  C_12
REMARK    5  A    between atoms: C_17  and  O_19
REMARK    6  A    between atoms: O_19  and  C_20
REMARK    7  A    between atoms: C_20  and  C_21
REMARK    8  A    between atoms: C_20  and  C_22
REMARK    9  A    between atoms: C_20  and  C_23
REMARK                            x       y       z     vdW  Elec       q    Type
REMARK                         _______ _______ _______ _____ _____    ______ ____
ROOT
ATOM      1  C   UNL     1      -2.057  11.450  19.423  0.00  0.00    +0.000 C 
ATOM      2  C   UNL     1      -3.214  11.563  18.430  0.00  0.00    +0.000 C 
ATOM      3  S   UNL     1      -2.571  11.038  16.821  0.00  0.00    +0.000 S 
ATOM      4  C   UNL     1      -1.248  10.076  17.563  0.00  0.00    +0.000 C 
ATOM      5  N   UNL     1      -0.959  10.699  18.829  0.00  0.00    +0.000 N 
ATOM      6  C   UNL     1       0.085  10.195  19.565  0.00  0.00    +0.000 C 
ATOM      7  O   UNL     1       0.936   9.462  19.070  0.00  0.00    +0.000 OA
ENDROOT
BRANCH   1  10
ATOM      8  C   UNL     1      -1.884  14.594  21.702  0.00  0.00    +0.000 C 
ATOM      9  N   UNL     1      -2.182  13.222  21.307  0.00  0.00    +0.000 N 
ATOM     10  C   UNL     1      -1.684  12.806  20.078  0.00  0.00    +0.000 C 
ATOM     11  O   UNL     1      -0.837  13.498  19.494  0.00  0.00    +0.000 OA
BRANCH   9  12
ATOM     12  C   UNL     1      -2.937  12.423  22.273  0.00  0.00    +0.000 C 
BRANCH  12  13
ATOM     13  C   UNL     1      -4.386  12.833  22.424  0.00  0.00    +0.000 A 
ATOM     14  C   UNL     1      -4.920  13.337  23.615  0.00  0.00    +0.000 A 
ATOM     15  C   UNL     1      -6.274  13.630  23.677  0.00  0.00    +0.000 A 
ATOM     16  N   UNL     1      -7.122  13.484  22.639  0.00  0.00    +0.000 NA
ATOM     17  C   UNL     1      -6.593  13.011  21.492  0.00  0.00    +0.000 A 
ATOM     18  C   UNL     1      -5.255  12.679  21.336  0.00  0.00    +0.000 A 
ENDBRANCH  12  13
ENDBRANCH   9  12
ENDBRANCH   1  10
BRANCH   6  19
ATOM     19  O   UNL     1       0.049  10.585  20.868  0.00  0.00    +0.000 OA
BRANCH  19  20
ATOM     20  C   UNL     1       0.109   9.583  21.916  0.00  0.00    +0.000 C 
ATOM     21  C   UNL     1       1.565   9.286  22.289  0.00  0.00    +0.000 C 
ATOM     22  C   UNL     1      -0.593  10.181  23.151  0.00  0.00    +0.000 C 
ATOM     23  C   UNL     1      -0.674   8.328  21.509  0.00  0.00    +0.000 C 
ENDBRANCH  19  20
ENDBRANCH   6  19
TORSDOF 5
ENDMDL
MODEL 9
REMARK VINA RESULT:      -5.1      8.177     11.028
REMARK  Name = 
REMARK  9 active torsions:
REMARK  status: ('A' for Active; 'I' for Inactive)
REMARK    1  A    between atoms: C_1  and  N_2
REMARK    2  A    between atoms: N_2  and  C_3
REMARK    3  A    between atoms: C_3  and  C_4
REMARK    4  A    between atoms: C_10  and  C_12
REMARK    5  A    between atoms: C_17  and  O_19
REMARK    6  A    between atoms: O_19  and  C_20
REMARK    7  A    between atoms: C_20  and  C_21
REMARK    8  A    between atoms: C_20  and  C_22
REMARK    9  A    between atoms: C_20  and  C_23
REMARK                            x       y       z     vdW  Elec       q    Type
REMARK                         _______ _______ _______ _____ _____    ______ ____
ROOT
ATOM      1  C   UNL     1      -3.151  12.427  21.254  0.00  0.00    +0.000 C 
ATOM      2  C   UNL     1      -2.552  12.152  22.633  0.00  0.00    +0.000 C 
ATOM      3  S   UNL     1      -3.623  12.976  23.838  0.00  0.00    +0.000 S 
ATOM      4  C   UNL     1      -5.033  12.965  22.726  0.00  0.00    +0.000 C 
ATOM      5  N   UNL     1      -4.492  12.977  21.392  0.00  0.00    +0.000 N 
ATOM      6  C   UNL     1      -5.378  13.054  20.344  0.00  0.00    +0.000 C 
ATOM      7  O   UNL     1      -6.544  13.406  20.503  0.00  0.00    +0.000 OA
ENDROOT
BRANCH   1  10
ATOM      8  C   UNL     1      -0.449  13.417  18.640  0.00  0.00    +0.000 C 
ATOM      9  N   UNL     1      -1.443  12.589  19.314  0.00  0.00    +0.000 N 
ATOM     10  C   UNL     1      -2.186  13.201  20.316  0.00  0.00    +0.000 C 
ATOM     11  O   UNL     1      -2.156  14.435  20.435  0.00  0.00    +0.000 OA
BRANCH   9  12
ATOM     12  C   UNL     1      -1.575  11.216  18.826  0.00  0.00    +0.000 C 
BRANCH  12  13
ATOM     13  C   UNL     1      -0.418  10.311  19.191  0.00  0.00    +0.000 A 
ATOM     14  C   UNL     1       0.523   9.857  18.262  0.00  0.00    +0.000 A 
ATOM     15  C   UNL     1       1.515   8.981  18.678  0.00  0.00    +0.000 A 
ATOM     16  N   UNL     1       1.652   8.550  19.948  0.00  0.00    +0.000 NA
ATOM     17  C   UNL     1       0.746   9.005  20.838  0.00  0.00    +0.000 A 
ATOM     18  C   UNL     1      -0.287   9.873  20.516  0.00  0.00    +0.000 A 
ENDBRANCH  12  13
ENDBRANCH   9  12
ENDBRANCH   1  10
BRANCH   6  19
ATOM     19  O   UNL     1      -4.824  12.693  19.156  0.00  0.00    +0.000 OA
BRANCH  19  20
ATOM     20  C   UNL     1      -5.596  11.897  18.220  0.00  0.00    +0.000 C 
ATOM     21  C   UNL     1      -6.360  10.794  18.961  0.00  0.00    +0.000 C 
ATOM     22  C   UNL     1      -6.626  12.841  17.568  0.00  0.00    +0.000 C 
ATOM     23  C   UNL     1      -4.698  11.356  17.100  0.00  0.00    +0.000 C 
ENDBRANCH  19  20
ENDBRANCH   6  19
TORSDOF 5
ENDMDL
