MODEL 1
REMARK VINA RESULT:      -7.4      0.000      0.000
REMARK  Name = 
REMARK  3 active torsions:
REMARK  status: ('A' for Active; 'I' for Inactive)
REMARK    1  A    between atoms: C_2  and  N_3
REMARK    2  A    between atoms: C_2  and  N_10
REMARK    3  A    between atoms: N_3  and  C_4
REMARK                            x       y       z     vdW  Elec       q    Type
REMARK                         _______ _______ _______ _____ _____    ______ ____
ROOT
ATOM      1  N   UNL     1       4.234   4.433  16.269  0.00  0.00    +0.000 N 
ATOM      2  C   UNL     1       3.687   4.051  17.457  0.00  0.00    +0.000 A 
ATOM      3  N   UNL     1       4.288   3.507  18.487  0.00  0.00    +0.000 NA
ATOM      4  C   UNL     1       3.342   3.255  19.470  0.00  0.00    +0.000 A 
ATOM      5  C   UNL     1       3.595   2.672  20.728  0.00  0.00    +0.000 A 
ATOM      6  C   UNL     1       2.539   2.459  21.622  0.00  0.00    +0.000 A 
ATOM      7  C   UNL     1       1.238   2.814  21.277  0.00  0.00    +0.000 A 
ATOM      8  C   UNL     1       0.960   3.402  20.039  0.00  0.00    +0.000 A 
ATOM      9  C   UNL     1       2.029   3.620  19.154  0.00  0.00    +0.000 A 
ATOM     10  S   UNL     1       2.017   4.337  17.586  0.00  0.00    +0.000 S 
ATOM     11  H   UNL     1       3.624   4.907  15.615  0.00  0.00    +0.000 HD
ENDROOT
BRANCH   1  13
ATOM     12  S   UNL     1       5.616   3.818  14.170  0.00  0.00    +0.000 S 
ATOM     13  C   UNL     1       5.487   4.132  15.815  0.00  0.00    +0.000 C 
BRANCH  13  14
ATOM     14  N   UNL     1       6.509   4.128  16.732  0.00  0.00    +0.000 N 
ATOM     15  H   UNL     1       6.849   3.205  16.998  0.00  0.00    +0.000 HD
BRANCH  14  16
ATOM     16  C   UNL     1       7.118   5.226  17.374  0.00  0.00    +0.000 A 
ATOM     17  C   UNL     1       7.081   6.476  16.749  0.00  0.00    +0.000 A 
ATOM     18  C   UNL     1       7.647   7.595  17.371  0.00  0.00    +0.000 A 
ATOM     19  C   UNL     1       8.211   7.480  18.642  0.00  0.00    +0.000 A 
ATOM     20  C   UNL     1       8.213   6.248  19.287  0.00  0.00    +0.000 A 
ATOM     21  C   UNL     1       7.673   5.125  18.654  0.00  0.00    +0.000 A 
ENDBRANCH  14  16
ENDBRANCH  13  14
ENDBRANCH   1  13
TORSDOF 3
ENDMDL
MODEL 2
REMARK VINA RESULT:      -7.3      0.076      1.108
REMARK  Name = 
REMARK  3 active torsions:
REMARK  status: ('A' for Active; 'I' for Inactive)
REMARK    1  A    between atoms: C_2  and  N_3
REMARK    2  A    between atoms: C_2  and  N_10
REMARK    3  A    between atoms: N_3  and  C_4
REMARK                            x       y       z     vdW  Elec       q    Type
REMARK                         _______ _______ _______ _____ _____    ______ ____
ROOT
ATOM      1  N   UNL     1       4.253   4.372  16.214  0.00  0.00    +0.000 N 
ATOM      2  C   UNL     1       3.700   4.004  17.404  0.00  0.00    +0.000 A 
ATOM      3  N   UNL     1       4.304   3.518  18.461  0.00  0.00    +0.000 NA
ATOM      4  C   UNL     1       3.352   3.255  19.435  0.00  0.00    +0.000 A 
ATOM      5  C   UNL     1       3.605   2.722  20.714  0.00  0.00    +0.000 A 
ATOM      6  C   UNL     1       2.543   2.492  21.596  0.00  0.00    +0.000 A 
ATOM      7  C   UNL     1       1.235   2.781  21.218  0.00  0.00    +0.000 A 
ATOM      8  C   UNL     1       0.956   3.318  19.957  0.00  0.00    +0.000 A 
ATOM      9  C   UNL     1       2.031   3.555  19.085  0.00  0.00    +0.000 A 
ATOM     10  S   UNL     1       2.017   4.222  17.495  0.00  0.00    +0.000 S 
ATOM     11  H   UNL     1       3.636   4.799  15.535  0.00  0.00    +0.000 HD
ENDROOT
BRANCH   1  13
ATOM     12  S   UNL     1       5.700   3.768  14.157  0.00  0.00    +0.000 S 
ATOM     13  C   UNL     1       5.526   4.111  15.792  0.00  0.00    +0.000 C 
BRANCH  13  14
ATOM     14  N   UNL     1       6.528   4.165  16.729  0.00  0.00    +0.000 N 
ATOM     15  H   UNL     1       6.916   3.263  17.002  0.00  0.00    +0.000 HD
BRANCH  14  16
ATOM     16  C   UNL     1       7.060   5.297  17.382  0.00  0.00    +0.000 A 
ATOM     17  C   UNL     1       7.671   5.129  18.628  0.00  0.00    +0.000 A 
ATOM     18  C   UNL     1       8.238   6.225  19.289  0.00  0.00    +0.000 A 
ATOM     19  C   UNL     1       8.240   7.483  18.687  0.00  0.00    +0.000 A 
ATOM     20  C   UNL     1       7.671   7.647  17.429  0.00  0.00    +0.000 A 
ATOM     21  C   UNL     1       7.079   6.560  16.782  0.00  0.00    +0.000 A 
ENDBRANCH  14  16
ENDBRANCH  13  14
ENDBRANCH   1  13
TORSDOF 3
ENDMDL
MODEL 3
REMARK VINA RESULT:      -7.3      1.218      1.510
REMARK  Name = 
REMARK  3 active torsions:
REMARK  status: ('A' for Active; 'I' for Inactive)
REMARK    1  A    between atoms: C_2  and  N_3
REMARK    2  A    between atoms: C_2  and  N_10
REMARK    3  A    between atoms: N_3  and  C_4
REMARK                            x       y       z     vdW  Elec       q    Type
REMARK                         _______ _______ _______ _____ _____    ______ ____
ROOT
ATOM      1  N   UNL     1       4.964   3.314  16.280  0.00  0.00    +0.000 N 
ATOM      2  C   UNL     1       4.060   3.401  17.296  0.00  0.00    +0.000 A 
ATOM      3  N   UNL     1       3.432   4.465  17.732  0.00  0.00    +0.000 NA
ATOM      4  C   UNL     1       2.629   4.099  18.803  0.00  0.00    +0.000 A 
ATOM      5  C   UNL     1       1.800   4.963  19.545  0.00  0.00    +0.000 A 
ATOM      6  C   UNL     1       1.051   4.462  20.615  0.00  0.00    +0.000 A 
ATOM      7  C   UNL     1       1.123   3.114  20.958  0.00  0.00    +0.000 A 
ATOM      8  C   UNL     1       1.931   2.233  20.233  0.00  0.00    +0.000 A 
ATOM      9  C   UNL     1       2.670   2.746  19.154  0.00  0.00    +0.000 A 
ATOM     10  S   UNL     1       3.725   1.923  18.067  0.00  0.00    +0.000 S 
ATOM     11  H   UNL     1       5.291   2.388  16.035  0.00  0.00    +0.000 HD
ENDROOT
BRANCH   1  13
ATOM     12  S   UNL     1       6.233   4.007  14.135  0.00  0.00    +0.000 S 
ATOM     13  C   UNL     1       5.571   4.357  15.639  0.00  0.00    +0.000 C 
BRANCH  13  14
ATOM     14  N   UNL     1       5.570   5.575  16.270  0.00  0.00    +0.000 N 
ATOM     15  H   UNL     1       4.771   6.172  16.063  0.00  0.00    +0.000 HD
BRANCH  14  16
ATOM     16  C   UNL     1       6.545   6.117  17.135  0.00  0.00    +0.000 A 
ATOM     17  C   UNL     1       6.930   7.450  16.964  0.00  0.00    +0.000 A 
ATOM     18  C   UNL     1       7.870   8.030  17.824  0.00  0.00    +0.000 A 
ATOM     19  C   UNL     1       8.394   7.294  18.888  0.00  0.00    +0.000 A 
ATOM     20  C   UNL     1       7.983   5.981  19.088  0.00  0.00    +0.000 A 
ATOM     21  C   UNL     1       7.066   5.394  18.213  0.00  0.00    +0.000 A 
ENDBRANCH  14  16
ENDBRANCH  13  14
ENDBRANCH   1  13
TORSDOF 3
ENDMDL
MODEL 4
REMARK VINA RESULT:      -7.2      1.220      1.862
REMARK  Name = 
REMARK  3 active torsions:
REMARK  status: ('A' for Active; 'I' for Inactive)
REMARK    1  A    between atoms: C_2  and  N_3
REMARK    2  A    between atoms: C_2  and  N_10
REMARK    3  A    between atoms: N_3  and  C_4
REMARK                            x       y       z     vdW  Elec       q    Type
REMARK                         _______ _______ _______ _____ _____    ______ ____
ROOT
ATOM      1  N   UNL     1       4.973   3.343  16.303  0.00  0.00    +0.000 N 
ATOM      2  C   UNL     1       4.056   3.420  17.309  0.00  0.00    +0.000 A 
ATOM      3  N   UNL     1       3.384   4.470  17.712  0.00  0.00    +0.000 NA
ATOM      4  C   UNL     1       2.585   4.100  18.784  0.00  0.00    +0.000 A 
ATOM      5  C   UNL     1       1.716   4.949  19.498  0.00  0.00    +0.000 A 
ATOM      6  C   UNL     1       0.977   4.445  20.574  0.00  0.00    +0.000 A 
ATOM      7  C   UNL     1       1.097   3.110  20.951  0.00  0.00    +0.000 A 
ATOM      8  C   UNL     1       1.947   2.244  20.256  0.00  0.00    +0.000 A 
ATOM      9  C   UNL     1       2.675   2.758  19.170  0.00  0.00    +0.000 A 
ATOM     10  S   UNL     1       3.772   1.951  18.114  0.00  0.00    +0.000 S 
ATOM     11  H   UNL     1       5.338   2.425  16.084  0.00  0.00    +0.000 HD
ENDROOT
BRANCH   1  13
ATOM     12  S   UNL     1       6.232   4.033  14.151  0.00  0.00    +0.000 S 
ATOM     13  C   UNL     1       5.545   4.393  15.641  0.00  0.00    +0.000 C 
BRANCH  13  14
ATOM     14  N   UNL     1       5.493   5.625  16.242  0.00  0.00    +0.000 N 
ATOM     15  H   UNL     1       4.685   6.195  15.996  0.00  0.00    +0.000 HD
BRANCH  14  16
ATOM     16  C   UNL     1       6.426   6.213  17.123  0.00  0.00    +0.000 A 
ATOM     17  C   UNL     1       6.976   5.428  18.142  0.00  0.00    +0.000 A 
ATOM     18  C   UNL     1       7.928   5.969  19.014  0.00  0.00    +0.000 A 
ATOM     19  C   UNL     1       8.370   7.281  18.843  0.00  0.00    +0.000 A 
ATOM     20  C   UNL     1       7.858   8.053  17.806  0.00  0.00    +0.000 A 
ATOM     21  C   UNL     1       6.887   7.522  16.953  0.00  0.00    +0.000 A 
ENDBRANCH  14  16
ENDBRANCH  13  14
ENDBRANCH   1  13
TORSDOF 3
ENDMDL
MODEL 5
REMARK VINA RESULT:      -7.1      3.145      4.090
REMARK  Name = 
REMARK  3 active torsions:
REMARK  status: ('A' for Active; 'I' for Inactive)
REMARK    1  A    between atoms: C_2  and  N_3
REMARK    2  A    between atoms: C_2  and  N_10
REMARK    3  A    between atoms: N_3  and  C_4
REMARK                            x       y       z     vdW  Elec       q    Type
REMARK                         _______ _______ _______ _____ _____    ______ ____
ROOT
ATOM      1  N   UNL     1       3.218   3.952  19.757  0.00  0.00    +0.000 N 
ATOM      2  C   UNL     1       2.816   5.229  19.500  0.00  0.00    +0.000 A 
ATOM      3  N   UNL     1       3.009   5.934  18.413  0.00  0.00    +0.000 NA
ATOM      4  C   UNL     1       2.458   7.194  18.598  0.00  0.00    +0.000 A 
ATOM      5  C   UNL     1       2.463   8.243  17.657  0.00  0.00    +0.000 A 
ATOM      6  C   UNL     1       1.882   9.474  17.983  0.00  0.00    +0.000 A 
ATOM      7  C   UNL     1       1.301   9.673  19.232  0.00  0.00    +0.000 A 
ATOM      8  C   UNL     1       1.275   8.647  20.182  0.00  0.00    +0.000 A 
ATOM      9  C   UNL     1       1.852   7.412  19.840  0.00  0.00    +0.000 A 
ATOM     10  S   UNL     1       1.956   5.964  20.768  0.00  0.00    +0.000 S 
ATOM     11  H   UNL     1       2.912   3.542  20.630  0.00  0.00    +0.000 HD
ENDROOT
BRANCH   1  13
ATOM     12  S   UNL     1       3.412   1.998  18.073  0.00  0.00    +0.000 S 
ATOM     13  C   UNL     1       4.094   3.209  19.016  0.00  0.00    +0.000 C 
BRANCH  13  14
ATOM     14  N   UNL     1       5.426   3.527  19.104  0.00  0.00    +0.000 N 
ATOM     15  H   UNL     1       5.965   2.963  19.760  0.00  0.00    +0.000 HD
BRANCH  14  16
ATOM     16  C   UNL     1       6.131   4.550  18.435  0.00  0.00    +0.000 A 
ATOM     17  C   UNL     1       5.957   4.695  17.055  0.00  0.00    +0.000 A 
ATOM     18  C   UNL     1       6.615   5.719  16.364  0.00  0.00    +0.000 A 
ATOM     19  C   UNL     1       7.414   6.631  17.055  0.00  0.00    +0.000 A 
ATOM     20  C   UNL     1       7.557   6.516  18.434  0.00  0.00    +0.000 A 
ATOM     21  C   UNL     1       6.922   5.478  19.119  0.00  0.00    +0.000 A 
ENDBRANCH  14  16
ENDBRANCH  13  14
ENDBRANCH   1  13
TORSDOF 3
ENDMDL
MODEL 6
REMARK VINA RESULT:      -7.1      2.224      3.451
REMARK  Name = 
REMARK  3 active torsions:
REMARK  status: ('A' for Active; 'I' for Inactive)
REMARK    1  A    between atoms: C_2  and  N_3
REMARK    2  A    between atoms: C_2  and  N_10
REMARK    3  A    between atoms: N_3  and  C_4
REMARK                            x       y       z     vdW  Elec       q    Type
REMARK                         _______ _______ _______ _____ _____    ______ ____
ROOT
ATOM      1  N   UNL     1       4.813   5.884  17.221  0.00  0.00    +0.000 N 
ATOM      2  C   UNL     1       4.099   5.186  18.150  0.00  0.00    +0.000 A 
ATOM      3  N   UNL     1       4.532   4.273  18.984  0.00  0.00    +0.000 NA
ATOM      4  C   UNL     1       3.457   3.805  19.726  0.00  0.00    +0.000 A 
ATOM      5  C   UNL     1       3.513   2.814  20.726  0.00  0.00    +0.000 A 
ATOM      6  C   UNL     1       2.344   2.424  21.388  0.00  0.00    +0.000 A 
ATOM      7  C   UNL     1       1.120   3.004  21.063  0.00  0.00    +0.000 A 
ATOM      8  C   UNL     1       1.037   3.995  20.080  0.00  0.00    +0.000 A 
ATOM      9  C   UNL     1       2.219   4.387  19.429  0.00  0.00    +0.000 A 
ATOM     10  S   UNL     1       2.447   5.581  18.208  0.00  0.00    +0.000 S 
ATOM     11  H   UNL     1       4.321   6.608  16.714  0.00  0.00    +0.000 HD
ENDROOT
BRANCH   1  13
ATOM     12  S   UNL     1       7.260   6.714  17.335  0.00  0.00    +0.000 S 
ATOM     13  C   UNL     1       6.092   5.625  16.815  0.00  0.00    +0.000 C 
BRANCH  13  14
ATOM     14  N   UNL     1       6.297   4.510  16.042  0.00  0.00    +0.000 N 
ATOM     15  H   UNL     1       6.332   3.629  16.551  0.00  0.00    +0.000 HD
BRANCH  14  16
ATOM     16  C   UNL     1       6.500   4.433  14.647  0.00  0.00    +0.000 A 
ATOM     17  C   UNL     1       7.526   5.191  14.074  0.00  0.00    +0.000 A 
ATOM     18  C   UNL     1       7.776   5.114  12.699  0.00  0.00    +0.000 A 
ATOM     19  C   UNL     1       7.034   4.245  11.898  0.00  0.00    +0.000 A 
ATOM     20  C   UNL     1       6.041   3.458  12.471  0.00  0.00    +0.000 A 
ATOM     21  C   UNL     1       5.772   3.555  13.838  0.00  0.00    +0.000 A 
ENDBRANCH  14  16
ENDBRANCH  13  14
ENDBRANCH   1  13
TORSDOF 3
ENDMDL
MODEL 7
REMARK VINA RESULT:      -7.1      2.226      3.467
REMARK  Name = 
REMARK  3 active torsions:
REMARK  status: ('A' for Active; 'I' for Inactive)
REMARK    1  A    between atoms: C_2  and  N_3
REMARK    2  A    between atoms: C_2  and  N_10
REMARK    3  A    between atoms: N_3  and  C_4
REMARK                            x       y       z     vdW  Elec       q    Type
REMARK                         _______ _______ _______ _____ _____    ______ ____
ROOT
ATOM      1  N   UNL     1       4.891   5.868  17.159  0.00  0.00    +0.000 N 
ATOM      2  C   UNL     1       4.162   5.182  18.085  0.00  0.00    +0.000 A 
ATOM      3  N   UNL     1       4.592   4.338  18.990  0.00  0.00    +0.000 NA
ATOM      4  C   UNL     1       3.501   3.852  19.697  0.00  0.00    +0.000 A 
ATOM      5  C   UNL     1       3.551   2.919  20.752  0.00  0.00    +0.000 A 
ATOM      6  C   UNL     1       2.367   2.502  21.370  0.00  0.00    +0.000 A 
ATOM      7  C   UNL     1       1.136   2.996  20.946  0.00  0.00    +0.000 A 
ATOM      8  C   UNL     1       1.058   3.929  19.907  0.00  0.00    +0.000 A 
ATOM      9  C   UNL     1       2.255   4.349  19.302  0.00  0.00    +0.000 A 
ATOM     10  S   UNL     1       2.491   5.489  18.030  0.00  0.00    +0.000 S 
ATOM     11  H   UNL     1       4.392   6.536  16.586  0.00  0.00    +0.000 HD
ENDROOT
BRANCH   1  13
ATOM     12  S   UNL     1       7.289   6.805  17.410  0.00  0.00    +0.000 S 
ATOM     13  C   UNL     1       6.202   5.658  16.838  0.00  0.00    +0.000 C 
BRANCH  13  14
ATOM     14  N   UNL     1       6.504   4.541  16.101  0.00  0.00    +0.000 N 
ATOM     15  H   UNL     1       6.623   3.684  16.639  0.00  0.00    +0.000 HD
BRANCH  14  16
ATOM     16  C   UNL     1       6.702   4.435  14.708  0.00  0.00    +0.000 A 
ATOM     17  C   UNL     1       5.872   3.582  13.973  0.00  0.00    +0.000 A 
ATOM     18  C   UNL     1       6.019   3.476  12.585  0.00  0.00    +0.000 A 
ATOM     19  C   UNL     1       6.963   4.258  11.919  0.00  0.00    +0.000 A 
ATOM     20  C   UNL     1       7.762   5.139  12.639  0.00  0.00    +0.000 A 
ATOM     21  C   UNL     1       7.635   5.224  14.028  0.00  0.00    +0.000 A 
ENDBRANCH  14  16
ENDBRANCH  13  14
ENDBRANCH   1  13
TORSDOF 3
ENDMDL
MODEL 8
REMARK VINA RESULT:      -7.1      3.157      4.186
REMARK  Name = 
REMARK  3 active torsions:
REMARK  status: ('A' for Active; 'I' for Inactive)
REMARK    1  A    between atoms: C_2  and  N_3
REMARK    2  A    between atoms: C_2  and  N_10
REMARK    3  A    between atoms: N_3  and  C_4
REMARK                            x       y       z     vdW  Elec       q    Type
REMARK                         _______ _______ _______ _____ _____    ______ ____
ROOT
ATOM      1  N   UNL     1       3.212   3.978  19.778  0.00  0.00    +0.000 N 
ATOM      2  C   UNL     1       2.805   5.253  19.519  0.00  0.00    +0.000 A 
ATOM      3  N   UNL     1       2.990   5.956  18.429  0.00  0.00    +0.000 NA
ATOM      4  C   UNL     1       2.435   7.214  18.613  0.00  0.00    +0.000 A 
ATOM      5  C   UNL     1       2.432   8.260  17.670  0.00  0.00    +0.000 A 
ATOM      6  C   UNL     1       1.848   9.490  17.995  0.00  0.00    +0.000 A 
ATOM      7  C   UNL     1       1.273   9.691  19.247  0.00  0.00    +0.000 A 
ATOM      8  C   UNL     1       1.255   8.667  20.199  0.00  0.00    +0.000 A 
ATOM      9  C   UNL     1       1.835   7.434  19.858  0.00  0.00    +0.000 A 
ATOM     10  S   UNL     1       1.949   5.988  20.790  0.00  0.00    +0.000 S 
ATOM     11  H   UNL     1       2.912   3.569  20.654  0.00  0.00    +0.000 HD
ENDROOT
BRANCH   1  13
ATOM     12  S   UNL     1       3.409   1.999  18.124  0.00  0.00    +0.000 S 
ATOM     13  C   UNL     1       4.087   3.236  19.035  0.00  0.00    +0.000 C 
BRANCH  13  14
ATOM     14  N   UNL     1       5.416   3.576  19.095  0.00  0.00    +0.000 N 
ATOM     15  H   UNL     1       5.982   3.007  19.722  0.00  0.00    +0.000 HD
BRANCH  14  16
ATOM     16  C   UNL     1       6.085   4.626  18.431  0.00  0.00    +0.000 A 
ATOM     17  C   UNL     1       6.936   5.454  19.169  0.00  0.00    +0.000 A 
ATOM     18  C   UNL     1       7.641   6.485  18.537  0.00  0.00    +0.000 A 
ATOM     19  C   UNL     1       7.534   6.664  17.158  0.00  0.00    +0.000 A 
ATOM     20  C   UNL     1       6.721   5.817  16.412  0.00  0.00    +0.000 A 
ATOM     21  C   UNL     1       5.996   4.806  17.047  0.00  0.00    +0.000 A 
ENDBRANCH  14  16
ENDBRANCH  13  14
ENDBRANCH   1  13
TORSDOF 3
ENDMDL
MODEL 9
REMARK VINA RESULT:      -7.1      2.395      3.587
REMARK  Name = 
REMARK  3 active torsions:
REMARK  status: ('A' for Active; 'I' for Inactive)
REMARK    1  A    between atoms: C_2  and  N_3
REMARK    2  A    between atoms: C_2  and  N_10
REMARK    3  A    between atoms: N_3  and  C_4
REMARK                            x       y       z     vdW  Elec       q    Type
REMARK                         _______ _______ _______ _____ _____    ______ ____
ROOT
ATOM      1  N   UNL     1       5.455   6.509  17.412  0.00  0.00    +0.000 N 
ATOM      2  C   UNL     1       4.600   5.504  17.754  0.00  0.00    +0.000 A 
ATOM      3  N   UNL     1       4.883   4.249  18.002  0.00  0.00    +0.000 NA
ATOM      4  C   UNL     1       3.703   3.574  18.279  0.00  0.00    +0.000 A 
ATOM      5  C   UNL     1       3.590   2.205  18.591  0.00  0.00    +0.000 A 
ATOM      6  C   UNL     1       2.330   1.647  18.835  0.00  0.00    +0.000 A 
ATOM      7  C   UNL     1       1.183   2.434  18.765  0.00  0.00    +0.000 A 
ATOM      8  C   UNL     1       1.267   3.797  18.464  0.00  0.00    +0.000 A 
ATOM      9  C   UNL     1       2.539   4.348  18.233  0.00  0.00    +0.000 A 
ATOM     10  S   UNL     1       2.971   5.976  17.869  0.00  0.00    +0.000 S 
ATOM     11  H   UNL     1       5.062   7.438  17.331  0.00  0.00    +0.000 HD
ENDROOT
BRANCH   1  13
ATOM     12  S   UNL     1       7.775   7.652  17.453  0.00  0.00    +0.000 S 
ATOM     13  C   UNL     1       6.764   6.374  17.045  0.00  0.00    +0.000 C 
BRANCH  13  14
ATOM     14  N   UNL     1       7.125   5.218  16.399  0.00  0.00    +0.000 N 
ATOM     15  H   UNL     1       7.591   4.523  16.979  0.00  0.00    +0.000 HD
BRANCH  14  16
ATOM     16  C   UNL     1       6.966   4.887  15.036  0.00  0.00    +0.000 A 
ATOM     17  C   UNL     1       7.847   5.438  14.102  0.00  0.00    +0.000 A 
ATOM     18  C   UNL     1       7.739   5.107  12.747  0.00  0.00    +0.000 A 
ATOM     19  C   UNL     1       6.779   4.186  12.325  0.00  0.00    +0.000 A 
ATOM     20  C   UNL     1       5.927   3.602  13.255  0.00  0.00    +0.000 A 
ATOM     21  C   UNL     1       6.017   3.955  14.604  0.00  0.00    +0.000 A 
ENDBRANCH  14  16
ENDBRANCH  13  14
ENDBRANCH   1  13
TORSDOF 3
ENDMDL
