MODEL 1
REMARK VINA RESULT:      -7.4      0.000      0.000
REMARK  Name = 
REMARK  4 active torsions:
REMARK  status: ('A' for Active; 'I' for Inactive)
REMARK    1  A    between atoms: C_1  and  O_2
REMARK    2  A    between atoms: O_2  and  C_3
REMARK    3  A    between atoms: C_8  and  C_9
REMARK    4  A    between atoms: C_10  and  C_11
REMARK                            x       y       z     vdW  Elec       q    Type
REMARK                         _______ _______ _______ _____ _____    ______ ____
ROOT
ATOM      1  C   UNL     1       7.089   4.671  13.894  0.00  0.00    +0.000 C 
ATOM      2  O   UNL     1       7.936   5.498  13.595  0.00  0.00    +0.000 OA
ATOM      3  N   UNL     1       6.453   4.506  15.083  0.00  0.00    +0.000 N 
ATOM      4  C   UNL     1       6.709   5.286  16.170  0.00  0.00    +0.000 A 
ATOM      5  N   UNL     1       7.325   6.439  16.250  0.00  0.00    +0.000 NA
ATOM      6  C   UNL     1       7.388   6.821  17.571  0.00  0.00    +0.000 A 
ATOM      7  C   UNL     1       6.859   5.933  18.482  0.00  0.00    +0.000 A 
ATOM      8  S   UNL     1       6.145   4.619  17.641  0.00  0.00    +0.000 S 
ATOM      9  H   UNL     1       5.893   3.678  15.199  0.00  0.00    +0.000 HD
ENDROOT
BRANCH   1  11
ATOM     10  C   UNL     1       5.305   3.798  12.652  0.00  0.00    +0.000 C 
ATOM     11  O   UNL     1       6.672   3.682  13.052  0.00  0.00    +0.000 OA
ENDBRANCH   1  11
BRANCH   6  12
ATOM     12  C   UNL     1       7.983   8.072  17.916  0.00  0.00    +0.000 C 
ATOM     13  C   UNL     1       8.451   9.132  18.231  0.00  0.00    +0.000 C 
BRANCH  13  14
ATOM     14  C   UNL     1       9.011  10.385  18.635  0.00  0.00    +0.000 A 
ATOM     15  C   UNL     1       9.680  10.514  19.849  0.00  0.00    +0.000 A 
ATOM     16  C   UNL     1      10.168  11.761  20.234  0.00  0.00    +0.000 A 
ATOM     17  C   UNL     1       9.973  12.838  19.382  0.00  0.00    +0.000 A 
ATOM     18  N   UNL     1       9.348  12.745  18.188  0.00  0.00    +0.000 NA
ATOM     19  C   UNL     1       8.882  11.519  17.842  0.00  0.00    +0.000 A 
ENDBRANCH  13  14
ENDBRANCH   6  12
TORSDOF 3
ENDMDL
MODEL 2
REMARK VINA RESULT:      -7.3      0.721      1.171
REMARK  Name = 
REMARK  4 active torsions:
REMARK  status: ('A' for Active; 'I' for Inactive)
REMARK    1  A    between atoms: C_1  and  O_2
REMARK    2  A    between atoms: O_2  and  C_3
REMARK    3  A    between atoms: C_8  and  C_9
REMARK    4  A    between atoms: C_10  and  C_11
REMARK                            x       y       z     vdW  Elec       q    Type
REMARK                         _______ _______ _______ _____ _____    ______ ____
ROOT
ATOM      1  C   UNL     1       7.042   4.659  14.221  0.00  0.00    +0.000 C 
ATOM      2  O   UNL     1       7.799   5.531  13.825  0.00  0.00    +0.000 OA
ATOM      3  N   UNL     1       6.542   4.479  15.471  0.00  0.00    +0.000 N 
ATOM      4  C   UNL     1       6.856   5.296  16.515  0.00  0.00    +0.000 A 
ATOM      5  N   UNL     1       7.399   6.487  16.515  0.00  0.00    +0.000 NA
ATOM      6  C   UNL     1       7.571   6.899  17.817  0.00  0.00    +0.000 A 
ATOM      7  C   UNL     1       7.196   5.998  18.791  0.00  0.00    +0.000 A 
ATOM      8  S   UNL     1       6.488   4.624  18.045  0.00  0.00    +0.000 S 
ATOM      9  H   UNL     1       6.051   3.619  15.656  0.00  0.00    +0.000 HD
ENDROOT
BRANCH   1  11
ATOM     10  C   UNL     1       5.370   3.887  12.773  0.00  0.00    +0.000 C 
ATOM     11  O   UNL     1       6.607   3.628  13.441  0.00  0.00    +0.000 OA
ENDBRANCH   1  11
BRANCH   6  12
ATOM     12  C   UNL     1       8.116   8.192  18.082  0.00  0.00    +0.000 C 
ATOM     13  C   UNL     1       8.564   9.274  18.345  0.00  0.00    +0.000 C 
BRANCH  13  14
ATOM     14  C   UNL     1       9.119  10.551  18.674  0.00  0.00    +0.000 A 
ATOM     15  C   UNL     1       9.147  11.583  17.740  0.00  0.00    +0.000 A 
ATOM     16  C   UNL     1       9.743  12.797  18.077  0.00  0.00    +0.000 A 
ATOM     17  C   UNL     1      10.285  12.936  19.345  0.00  0.00    +0.000 A 
ATOM     18  N   UNL     1      10.256  11.965  20.284  0.00  0.00    +0.000 NA
ATOM     19  C   UNL     1       9.673  10.794  19.925  0.00  0.00    +0.000 A 
ENDBRANCH  13  14
ENDBRANCH   6  12
TORSDOF 3
ENDMDL
MODEL 3
REMARK VINA RESULT:      -6.7      7.017      9.014
REMARK  Name = 
REMARK  4 active torsions:
REMARK  status: ('A' for Active; 'I' for Inactive)
REMARK    1  A    between atoms: C_1  and  O_2
REMARK    2  A    between atoms: O_2  and  C_3
REMARK    3  A    between atoms: C_8  and  C_9
REMARK    4  A    between atoms: C_10  and  C_11
REMARK                            x       y       z     vdW  Elec       q    Type
REMARK                         _______ _______ _______ _____ _____    ______ ____
ROOT
ATOM      1  C   UNL     1       0.730   9.581  22.575  0.00  0.00    +0.000 C 
ATOM      2  O   UNL     1       1.818   9.063  22.774  0.00  0.00    +0.000 OA
ATOM      3  N   UNL     1       0.102   9.796  21.389  0.00  0.00    +0.000 N 
ATOM      4  C   UNL     1       0.650   9.450  20.192  0.00  0.00    +0.000 A 
ATOM      5  N   UNL     1       1.651   8.648  19.926  0.00  0.00    +0.000 NA
ATOM      6  C   UNL     1       1.878   8.651  18.569  0.00  0.00    +0.000 A 
ATOM      7  C   UNL     1       1.075   9.488  17.824  0.00  0.00    +0.000 A 
ATOM      8  S   UNL     1      -0.092  10.213  18.852  0.00  0.00    +0.000 S 
ATOM      9  H   UNL     1      -0.724  10.372  21.399  0.00  0.00    +0.000 HD
ENDROOT
BRANCH   1  11
ATOM     10  C   UNL     1      -1.180  10.838  23.087  0.00  0.00    +0.000 C 
ATOM     11  O   UNL     1      -0.041  10.118  23.564  0.00  0.00    +0.000 OA
ENDBRANCH   1  11
BRANCH   6  12
ATOM     12  C   UNL     1       2.901   7.819  18.022  0.00  0.00    +0.000 C 
ATOM     13  C   UNL     1       3.785   7.154  17.558  0.00  0.00    +0.000 C 
BRANCH  13  14
ATOM     14  C   UNL     1       4.856   6.367  17.026  0.00  0.00    +0.000 A 
ATOM     15  C   UNL     1       4.646   5.053  16.618  0.00  0.00    +0.000 A 
ATOM     16  C   UNL     1       5.723   4.299  16.154  0.00  0.00    +0.000 A 
ATOM     17  C   UNL     1       6.975   4.893  16.110  0.00  0.00    +0.000 A 
ATOM     18  N   UNL     1       7.211   6.171  16.478  0.00  0.00    +0.000 NA
ATOM     19  C   UNL     1       6.144   6.879  16.927  0.00  0.00    +0.000 A 
ENDBRANCH  13  14
ENDBRANCH   6  12
TORSDOF 3
ENDMDL
MODEL 4
REMARK VINA RESULT:      -6.6      3.110      3.603
REMARK  Name = 
REMARK  4 active torsions:
REMARK  status: ('A' for Active; 'I' for Inactive)
REMARK    1  A    between atoms: C_1  and  O_2
REMARK    2  A    between atoms: O_2  and  C_3
REMARK    3  A    between atoms: C_8  and  C_9
REMARK    4  A    between atoms: C_10  and  C_11
REMARK                            x       y       z     vdW  Elec       q    Type
REMARK                         _______ _______ _______ _____ _____    ______ ____
ROOT
ATOM      1  C   UNL     1       4.310   3.940  19.228  0.00  0.00    +0.000 C 
ATOM      2  O   UNL     1       4.139   4.968  19.865  0.00  0.00    +0.000 OA
ATOM      3  N   UNL     1       5.160   3.721  18.191  0.00  0.00    +0.000 N 
ATOM      4  C   UNL     1       5.973   4.690  17.687  0.00  0.00    +0.000 A 
ATOM      5  N   UNL     1       6.325   5.842  18.202  0.00  0.00    +0.000 NA
ATOM      6  C   UNL     1       7.123   6.508  17.300  0.00  0.00    +0.000 A 
ATOM      7  C   UNL     1       7.332   5.874  16.094  0.00  0.00    +0.000 A 
ATOM      8  S   UNL     1       6.596   4.325  16.136  0.00  0.00    +0.000 S 
ATOM      9  H   UNL     1       5.062   2.856  17.686  0.00  0.00    +0.000 HD
ENDROOT
BRANCH   1  11
ATOM     10  C   UNL     1       3.197   2.143  18.217  0.00  0.00    +0.000 C 
ATOM     11  O   UNL     1       3.583   2.802  19.425  0.00  0.00    +0.000 OA
ENDBRANCH   1  11
BRANCH   6  12
ATOM     12  C   UNL     1       7.670   7.781  17.647  0.00  0.00    +0.000 C 
ATOM     13  C   UNL     1       8.124   8.841  17.980  0.00  0.00    +0.000 C 
BRANCH  13  14
ATOM     14  C   UNL     1       8.688  10.091  18.388  0.00  0.00    +0.000 A 
ATOM     15  C   UNL     1       8.483  11.248  17.642  0.00  0.00    +0.000 A 
ATOM     16  C   UNL     1       9.090  12.438  18.041  0.00  0.00    +0.000 A 
ATOM     17  C   UNL     1       9.880  12.426  19.180  0.00  0.00    +0.000 A 
ATOM     18  N   UNL     1      10.083  11.328  19.940  0.00  0.00    +0.000 NA
ATOM     19  C   UNL     1       9.482  10.185  19.525  0.00  0.00    +0.000 A 
ENDBRANCH  13  14
ENDBRANCH   6  12
TORSDOF 3
ENDMDL
MODEL 5
REMARK VINA RESULT:      -6.6      3.098      3.452
REMARK  Name = 
REMARK  4 active torsions:
REMARK  status: ('A' for Active; 'I' for Inactive)
REMARK    1  A    between atoms: C_1  and  O_2
REMARK    2  A    between atoms: O_2  and  C_3
REMARK    3  A    between atoms: C_8  and  C_9
REMARK    4  A    between atoms: C_10  and  C_11
REMARK                            x       y       z     vdW  Elec       q    Type
REMARK                         _______ _______ _______ _____ _____    ______ ____
ROOT
ATOM      1  C   UNL     1       4.287   3.597  19.042  0.00  0.00    +0.000 C 
ATOM      2  O   UNL     1       4.186   4.562  19.784  0.00  0.00    +0.000 OA
ATOM      3  N   UNL     1       5.049   3.468  17.924  0.00  0.00    +0.000 N 
ATOM      4  C   UNL     1       5.837   4.471  17.450  0.00  0.00    +0.000 A 
ATOM      5  N   UNL     1       6.251   5.565  18.040  0.00  0.00    +0.000 NA
ATOM      6  C   UNL     1       6.988   6.304  17.143  0.00  0.00    +0.000 A 
ATOM      7  C   UNL     1       7.090   5.785  15.871  0.00  0.00    +0.000 A 
ATOM      8  S   UNL     1       6.329   4.247  15.827  0.00  0.00    +0.000 S 
ATOM      9  H   UNL     1       4.895   2.655  17.350  0.00  0.00    +0.000 HD
ENDROOT
BRANCH   1  11
ATOM     10  C   UNL     1       2.450   2.352  18.291  0.00  0.00    +0.000 C 
ATOM     11  O   UNL     1       3.557   2.455  19.190  0.00  0.00    +0.000 OA
ENDBRANCH   1  11
BRANCH   6  12
ATOM     12  C   UNL     1       7.585   7.532  17.563  0.00  0.00    +0.000 C 
ATOM     13  C   UNL     1       8.052   8.583  17.904  0.00  0.00    +0.000 C 
BRANCH  13  14
ATOM     14  C   UNL     1       8.588   9.840  18.332  0.00  0.00    +0.000 A 
ATOM     15  C   UNL     1       9.291   9.949  19.528  0.00  0.00    +0.000 A 
ATOM     16  C   UNL     1       9.754  11.198  19.939  0.00  0.00    +0.000 A 
ATOM     17  C   UNL     1       9.500  12.295  19.131  0.00  0.00    +0.000 A 
ATOM     18  N   UNL     1       8.840  12.222  17.954  0.00  0.00    +0.000 NA
ATOM     19  C   UNL     1       8.399  10.995  17.582  0.00  0.00    +0.000 A 
ENDBRANCH  13  14
ENDBRANCH   6  12
TORSDOF 3
ENDMDL
MODEL 6
REMARK VINA RESULT:      -6.6      5.721      6.645
REMARK  Name = 
REMARK  4 active torsions:
REMARK  status: ('A' for Active; 'I' for Inactive)
REMARK    1  A    between atoms: C_1  and  O_2
REMARK    2  A    between atoms: O_2  and  C_3
REMARK    3  A    between atoms: C_8  and  C_9
REMARK    4  A    between atoms: C_10  and  C_11
REMARK                            x       y       z     vdW  Elec       q    Type
REMARK                         _______ _______ _______ _____ _____    ______ ____
ROOT
ATOM      1  C   UNL     1       6.304   5.956  16.410  0.00  0.00    +0.000 C 
ATOM      2  O   UNL     1       6.239   7.140  16.702  0.00  0.00    +0.000 OA
ATOM      3  N   UNL     1       5.573   4.923  16.906  0.00  0.00    +0.000 N 
ATOM      4  C   UNL     1       4.622   5.088  17.866  0.00  0.00    +0.000 A 
ATOM      5  N   UNL     1       4.028   6.179  18.282  0.00  0.00    +0.000 NA
ATOM      6  C   UNL     1       3.171   5.857  19.310  0.00  0.00    +0.000 A 
ATOM      7  C   UNL     1       3.157   4.533  19.693  0.00  0.00    +0.000 A 
ATOM      8  S   UNL     1       4.171   3.631  18.643  0.00  0.00    +0.000 S 
ATOM      9  H   UNL     1       5.862   3.990  16.662  0.00  0.00    +0.000 HD
ENDROOT
BRANCH   1  11
ATOM     10  C   UNL     1       6.716   4.386  14.721  0.00  0.00    +0.000 C 
ATOM     11  O   UNL     1       7.220   5.444  15.539  0.00  0.00    +0.000 OA
ENDBRANCH   1  11
BRANCH   6  12
ATOM     12  C   UNL     1       2.373   6.878  19.910  0.00  0.00    +0.000 C 
ATOM     13  C   UNL     1       1.735   7.763  20.411  0.00  0.00    +0.000 C 
BRANCH  13  14
ATOM     14  C   UNL     1       0.976   8.832  20.984  0.00  0.00    +0.000 A 
ATOM     15  C   UNL     1       0.162   9.637  20.192  0.00  0.00    +0.000 A 
ATOM     16  C   UNL     1      -0.523  10.702  20.775  0.00  0.00    +0.000 A 
ATOM     17  C   UNL     1      -0.370  10.920  22.135  0.00  0.00    +0.000 A 
ATOM     18  N   UNL     1       0.395  10.147  22.937  0.00  0.00    +0.000 NA
ATOM     19  C   UNL     1       1.050   9.120  22.341  0.00  0.00    +0.000 A 
ENDBRANCH  13  14
ENDBRANCH   6  12
TORSDOF 3
ENDMDL
MODEL 7
REMARK VINA RESULT:      -6.5      6.125      8.074
REMARK  Name = 
REMARK  4 active torsions:
REMARK  status: ('A' for Active; 'I' for Inactive)
REMARK    1  A    between atoms: C_1  and  O_2
REMARK    2  A    between atoms: O_2  and  C_3
REMARK    3  A    between atoms: C_8  and  C_9
REMARK    4  A    between atoms: C_10  and  C_11
REMARK                            x       y       z     vdW  Elec       q    Type
REMARK                         _______ _______ _______ _____ _____    ______ ____
ROOT
ATOM      1  C   UNL     1       1.851   7.302  20.403  0.00  0.00    +0.000 C 
ATOM      2  O   UNL     1       2.095   7.931  19.385  0.00  0.00    +0.000 OA
ATOM      3  N   UNL     1       2.139   6.004  20.684  0.00  0.00    +0.000 N 
ATOM      4  C   UNL     1       2.766   5.181  19.798  0.00  0.00    +0.000 A 
ATOM      5  N   UNL     1       3.440   5.471  18.714  0.00  0.00    +0.000 NA
ATOM      6  C   UNL     1       3.846   4.301  18.114  0.00  0.00    +0.000 A 
ATOM      7  C   UNL     1       3.439   3.135  18.726  0.00  0.00    +0.000 A 
ATOM      8  S   UNL     1       2.612   3.520  20.180  0.00  0.00    +0.000 S 
ATOM      9  H   UNL     1       1.731   5.607  21.514  0.00  0.00    +0.000 HD
ENDROOT
BRANCH   1  11
ATOM     10  C   UNL     1       0.626   9.124  21.221  0.00  0.00    +0.000 C 
ATOM     11  O   UNL     1       1.150   7.815  21.455  0.00  0.00    +0.000 OA
ENDBRANCH   1  11
BRANCH   6  12
ATOM     12  C   UNL     1       4.637   4.354  16.926  0.00  0.00    +0.000 C 
ATOM     13  C   UNL     1       5.266   4.396  15.905  0.00  0.00    +0.000 C 
BRANCH  13  14
ATOM     14  C   UNL     1       6.005   4.472  14.681  0.00  0.00    +0.000 A 
ATOM     15  C   UNL     1       5.622   3.730  13.567  0.00  0.00    +0.000 A 
ATOM     16  C   UNL     1       6.394   3.787  12.408  0.00  0.00    +0.000 A 
ATOM     17  C   UNL     1       7.523   4.593  12.406  0.00  0.00    +0.000 A 
ATOM     18  N   UNL     1       7.911   5.342  13.461  0.00  0.00    +0.000 NA
ATOM     19  C   UNL     1       7.142   5.264  14.575  0.00  0.00    +0.000 A 
ENDBRANCH  13  14
ENDBRANCH   6  12
TORSDOF 3
ENDMDL
MODEL 8
REMARK VINA RESULT:      -6.4      4.401      8.327
REMARK  Name = 
REMARK  4 active torsions:
REMARK  status: ('A' for Active; 'I' for Inactive)
REMARK    1  A    between atoms: C_1  and  O_2
REMARK    2  A    between atoms: O_2  and  C_3
REMARK    3  A    between atoms: C_8  and  C_9
REMARK    4  A    between atoms: C_10  and  C_11
REMARK                            x       y       z     vdW  Elec       q    Type
REMARK                         _______ _______ _______ _____ _____    ______ ____
ROOT
ATOM      1  C   UNL     1      11.491  14.006  17.475  0.00  0.00    +0.000 C 
ATOM      2  O   UNL     1      11.038  13.426  16.501  0.00  0.00    +0.000 OA
ATOM      3  N   UNL     1      11.344  13.691  18.789  0.00  0.00    +0.000 N 
ATOM      4  C   UNL     1      10.610  12.625  19.213  0.00  0.00    +0.000 A 
ATOM      5  N   UNL     1      10.172  11.588  18.544  0.00  0.00    +0.000 NA
ATOM      6  C   UNL     1       9.428  10.794  19.388  0.00  0.00    +0.000 A 
ATOM      7  C   UNL     1       9.273  11.261  20.676  0.00  0.00    +0.000 A 
ATOM      8  S   UNL     1      10.196  12.694  20.872  0.00  0.00    +0.000 S 
ATOM      9  H   UNL     1      11.661  14.365  19.466  0.00  0.00    +0.000 HD
ENDROOT
BRANCH   1  11
ATOM     10  C   UNL     1      11.441  16.337  17.706  0.00  0.00    +0.000 C 
ATOM     11  O   UNL     1      12.202  15.167  17.398  0.00  0.00    +0.000 OA
ENDBRANCH   1  11
BRANCH   6  12
ATOM     12  C   UNL     1       8.870   9.574  18.900  0.00  0.00    +0.000 C 
ATOM     13  C   UNL     1       8.440   8.531  18.491  0.00  0.00    +0.000 C 
BRANCH  13  14
ATOM     14  C   UNL     1       7.934   7.275  18.027  0.00  0.00    +0.000 A 
ATOM     15  C   UNL     1       7.952   6.149  18.846  0.00  0.00    +0.000 A 
ATOM     16  C   UNL     1       7.500   4.930  18.344  0.00  0.00    +0.000 A 
ATOM     17  C   UNL     1       7.040   4.884  17.037  0.00  0.00    +0.000 A 
ATOM     18  N   UNL     1       6.988   5.960  16.222  0.00  0.00    +0.000 NA
ATOM     19  C   UNL     1       7.437   7.132  16.737  0.00  0.00    +0.000 A 
ENDBRANCH  13  14
ENDBRANCH   6  12
TORSDOF 3
ENDMDL
MODEL 9
REMARK VINA RESULT:      -6.4      5.663      6.522
REMARK  Name = 
REMARK  4 active torsions:
REMARK  status: ('A' for Active; 'I' for Inactive)
REMARK    1  A    between atoms: C_1  and  O_2
REMARK    2  A    between atoms: O_2  and  C_3
REMARK    3  A    between atoms: C_8  and  C_9
REMARK    4  A    between atoms: C_10  and  C_11
REMARK                            x       y       z     vdW  Elec       q    Type
REMARK                         _______ _______ _______ _____ _____    ______ ____
ROOT
ATOM      1  C   UNL     1       5.468   5.859  15.512  0.00  0.00    +0.000 C 
ATOM      2  O   UNL     1       5.268   7.059  15.625  0.00  0.00    +0.000 OA
ATOM      3  N   UNL     1       5.062   4.855  16.332  0.00  0.00    +0.000 N 
ATOM      4  C   UNL     1       4.345   5.076  17.469  0.00  0.00    +0.000 A 
ATOM      5  N   UNL     1       3.683   6.140  17.851  0.00  0.00    +0.000 NA
ATOM      6  C   UNL     1       3.157   5.913  19.102  0.00  0.00    +0.000 A 
ATOM      7  C   UNL     1       3.461   4.697  19.674  0.00  0.00    +0.000 A 
ATOM      8  S   UNL     1       4.345   3.749  18.549  0.00  0.00    +0.000 S 
ATOM      9  H   UNL     1       5.444   3.938  16.168  0.00  0.00    +0.000 HD
ENDROOT
BRANCH   1  11
ATOM     10  C   UNL     1       6.175   3.886  14.466  0.00  0.00    +0.000 C 
ATOM     11  O   UNL     1       6.232   5.313  14.523  0.00  0.00    +0.000 OA
ENDBRANCH   1  11
BRANCH   6  12
ATOM     12  C   UNL     1       2.355   6.918  19.723  0.00  0.00    +0.000 C 
ATOM     13  C   UNL     1       1.713   7.789  20.241  0.00  0.00    +0.000 C 
BRANCH  13  14
ATOM     14  C   UNL     1       0.947   8.843  20.834  0.00  0.00    +0.000 A 
ATOM     15  C   UNL     1       0.683   8.856  22.200  0.00  0.00    +0.000 A 
ATOM     16  C   UNL     1      -0.110   9.870  22.736  0.00  0.00    +0.000 A 
ATOM     17  C   UNL     1      -0.607  10.841  21.880  0.00  0.00    +0.000 A 
ATOM     18  N   UNL     1      -0.353  10.871  20.553  0.00  0.00    +0.000 NA
ATOM     19  C   UNL     1       0.419   9.871  20.061  0.00  0.00    +0.000 A 
ENDBRANCH  13  14
ENDBRANCH   6  12
TORSDOF 3
ENDMDL
