MODEL 1
REMARK VINA RESULT:      -8.4      0.000      0.000
REMARK  Name = 
REMARK  10 active torsions:
REMARK  status: ('A' for Active; 'I' for Inactive)
REMARK    1  A    between atoms: C_1  and  O_2
REMARK    2  A    between atoms: O_2  and  C_3
REMARK    3  A    between atoms: C_6  and  C_7
REMARK    4  A    between atoms: C_7  and  N_8
REMARK    5  A    between atoms: C_9  and  C_11
REMARK    6  A    between atoms: C_11  and  O_12
REMARK    7  A    between atoms: O_12  and  C_13
REMARK    8  A    between atoms: C_15  and  C_16
REMARK    9  A    between atoms: C_21  and  C_22
REMARK   10  A    between atoms: N_29  and  C_30
REMARK                            x       y       z     vdW  Elec       q    Type
REMARK                         _______ _______ _______ _____ _____    ______ ____
ROOT
ATOM      1  C   UNL     1       1.354   7.086  20.673  0.00  0.00    +0.000 A 
ATOM      2  C   UNL     1       1.980   7.723  19.619  0.00  0.00    +0.000 A 
ATOM      3  C   UNL     1       2.940   7.042  18.832  0.00  0.00    +0.000 A 
ATOM      4  C   UNL     1       3.194   5.685  19.173  0.00  0.00    +0.000 A 
ATOM      5  C   UNL     1       4.021   4.565  18.765  0.00  0.00    +0.000 A 
ATOM      6  N   UNL     1       3.812   3.494  19.559  0.00  0.00    +0.000 NA
ATOM      7  N   UNL     1       2.880   3.891  20.434  0.00  0.00    +0.000 N 
ATOM      8  C   UNL     1       2.406   2.990  21.456  0.00  0.00    +0.000 C 
ATOM      9  C   UNL     1       2.479   5.180  20.264  0.00  0.00    +0.000 A 
ATOM     10  N   UNL     1       1.569   5.814  21.031  0.00  0.00    +0.000 NA
ENDROOT
BRANCH   5  11
ATOM     11  C   UNL     1       5.024   4.447  17.696  0.00  0.00    +0.000 A 
ATOM     12  C   UNL     1       6.390   4.618  17.982  0.00  0.00    +0.000 A 
ATOM     13  C   UNL     1       7.351   4.551  16.966  0.00  0.00    +0.000 A 
ATOM     14  C   UNL     1       6.959   4.337  15.649  0.00  0.00    +0.000 A 
ATOM     15  C   UNL     1       5.615   4.127  15.357  0.00  0.00    +0.000 A 
ATOM     16  C   UNL     1       4.667   4.135  16.384  0.00  0.00    +0.000 A 
ENDBRANCH   5  11
BRANCH   3  17
ATOM     17  C   UNL     1       3.575   7.829  17.715  0.00  0.00    +0.000 C 
ATOM     18  F   UNL     1       3.239   9.153  17.738  0.00  0.00    +0.000 F 
ATOM     19  F   UNL     1       4.931   7.805  17.732  0.00  0.00    +0.000 F 
ATOM     20  F   UNL     1       3.181   7.397  16.485  0.00  0.00    +0.000 F 
ENDBRANCH   3  17
BRANCH   1  21
ATOM     21  O   UNL     1       0.468   7.863  21.395  0.00  0.00    +0.000 OA
BRANCH  21  22
ATOM     22  C   UNL     1       1.095   8.984  22.015  0.00  0.00    +0.000 C 
BRANCH  22  24
ATOM     23  N   UNL     1      -0.585  10.252  20.759  0.00  0.00    +0.000 N 
ATOM     24  C   UNL     1       0.632  10.302  21.392  0.00  0.00    +0.000 C 
ATOM     25  O   UNL     1       1.323  11.314  21.455  0.00  0.00    +0.000 OA
ATOM     26  H   UNL     1      -1.111   9.388  20.796  0.00  0.00    +0.000 HD
BRANCH  23  27
ATOM     27  C   UNL     1      -1.181  11.410  20.135  0.00  0.00    +0.000 C 
BRANCH  27  31
ATOM     28  C   UNL     1      -3.275  10.620  16.427  0.00  0.00    +0.000 A 
ATOM     29  C   UNL     1      -3.810  11.481  17.385  0.00  0.00    +0.000 A 
ATOM     30  C   UNL     1      -3.132  11.722  18.582  0.00  0.00    +0.000 A 
ATOM     31  C   UNL     1      -1.915  11.083  18.855  0.00  0.00    +0.000 A 
ATOM     32  C   UNL     1      -1.382  10.223  17.885  0.00  0.00    +0.000 A 
ATOM     33  C   UNL     1      -2.062   9.984  16.684  0.00  0.00    +0.000 A 
BRANCH  28  35
ATOM     34  C   UNL     1      -3.334  10.083  14.123  0.00  0.00    +0.000 C 
ATOM     35  O   UNL     1      -4.036  10.461  15.302  0.00  0.00    +0.000 OA
ENDBRANCH  28  35
ENDBRANCH  27  31
ENDBRANCH  23  27
ENDBRANCH  22  24
ENDBRANCH  21  22
ENDBRANCH   1  21
TORSDOF 8
ENDMDL
MODEL 2
REMARK VINA RESULT:      -8.3      3.376      8.211
REMARK  Name = 
REMARK  10 active torsions:
REMARK  status: ('A' for Active; 'I' for Inactive)
REMARK    1  A    between atoms: C_1  and  O_2
REMARK    2  A    between atoms: O_2  and  C_3
REMARK    3  A    between atoms: C_6  and  C_7
REMARK    4  A    between atoms: C_7  and  N_8
REMARK    5  A    between atoms: C_9  and  C_11
REMARK    6  A    between atoms: C_11  and  O_12
REMARK    7  A    between atoms: O_12  and  C_13
REMARK    8  A    between atoms: C_15  and  C_16
REMARK    9  A    between atoms: C_21  and  C_22
REMARK   10  A    between atoms: N_29  and  C_30
REMARK                            x       y       z     vdW  Elec       q    Type
REMARK                         _______ _______ _______ _____ _____    ______ ____
ROOT
ATOM      1  C   UNL     1       1.693   6.207  20.531  0.00  0.00    +0.000 A 
ATOM      2  C   UNL     1       0.900   7.084  21.247  0.00  0.00    +0.000 A 
ATOM      3  C   UNL     1       0.718   8.416  20.805  0.00  0.00    +0.000 A 
ATOM      4  C   UNL     1       1.369   8.778  19.593  0.00  0.00    +0.000 A 
ATOM      5  C   UNL     1       1.548   9.922  18.718  0.00  0.00    +0.000 A 
ATOM      6  N   UNL     1       2.358   9.617  17.683  0.00  0.00    +0.000 NA
ATOM      7  N   UNL     1       2.681   8.331  17.866  0.00  0.00    +0.000 N 
ATOM      8  C   UNL     1       3.555   7.658  16.936  0.00  0.00    +0.000 C 
ATOM      9  C   UNL     1       2.134   7.780  18.983  0.00  0.00    +0.000 A 
ATOM     10  N   UNL     1       2.327   6.509  19.391  0.00  0.00    +0.000 NA
ENDROOT
BRANCH   5  11
ATOM     11  C   UNL     1       1.032  11.296  18.811  0.00  0.00    +0.000 A 
ATOM     12  C   UNL     1      -0.279  11.591  18.396  0.00  0.00    +0.000 A 
ATOM     13  C   UNL     1      -0.769  12.902  18.439  0.00  0.00    +0.000 A 
ATOM     14  C   UNL     1       0.052  13.938  18.873  0.00  0.00    +0.000 A 
ATOM     15  C   UNL     1       1.337  13.655  19.323  0.00  0.00    +0.000 A 
ATOM     16  C   UNL     1       1.800  12.336  19.334  0.00  0.00    +0.000 A 
ENDBRANCH   5  11
BRANCH   3  17
ATOM     17  C   UNL     1      -0.153   9.297  21.663  0.00  0.00    +0.000 C 
ATOM     18  F   UNL     1      -1.087   9.985  20.941  0.00  0.00    +0.000 F 
ATOM     19  F   UNL     1      -0.857   8.619  22.603  0.00  0.00    +0.000 F 
ATOM     20  F   UNL     1       0.559  10.260  22.310  0.00  0.00    +0.000 F 
ENDBRANCH   3  17
BRANCH   1  21
ATOM     21  O   UNL     1       1.831   4.946  21.081  0.00  0.00    +0.000 OA
BRANCH  21  22
ATOM     22  C   UNL     1       1.088   3.953  20.377  0.00  0.00    +0.000 C 
BRANCH  22  24
ATOM     23  N   UNL     1       3.137   3.395  19.152  0.00  0.00    +0.000 N 
ATOM     24  C   UNL     1       1.776   3.559  19.069  0.00  0.00    +0.000 C 
ATOM     25  O   UNL     1       1.138   3.420  18.030  0.00  0.00    +0.000 OA
ATOM     26  H   UNL     1       3.577   3.483  20.060  0.00  0.00    +0.000 HD
BRANCH  23  27
ATOM     27  C   UNL     1       3.940   3.004  18.018  0.00  0.00    +0.000 C 
BRANCH  27  31
ATOM     28  C   UNL     1       6.834   5.998  16.827  0.00  0.00    +0.000 A 
ATOM     29  C   UNL     1       6.590   5.730  18.174  0.00  0.00    +0.000 A 
ATOM     30  C   UNL     1       5.648   4.770  18.548  0.00  0.00    +0.000 A 
ATOM     31  C   UNL     1       4.910   4.076  17.580  0.00  0.00    +0.000 A 
ATOM     32  C   UNL     1       5.165   4.349  16.227  0.00  0.00    +0.000 A 
ATOM     33  C   UNL     1       6.112   5.310  15.854  0.00  0.00    +0.000 A 
BRANCH  28  35
ATOM     34  C   UNL     1       7.805   8.043  17.517  0.00  0.00    +0.000 C 
ATOM     35  O   UNL     1       7.773   6.964  16.589  0.00  0.00    +0.000 OA
ENDBRANCH  28  35
ENDBRANCH  27  31
ENDBRANCH  23  27
ENDBRANCH  22  24
ENDBRANCH  21  22
ENDBRANCH   1  21
TORSDOF 8
ENDMDL
MODEL 3
REMARK VINA RESULT:      -8.3      3.357      8.151
REMARK  Name = 
REMARK  10 active torsions:
REMARK  status: ('A' for Active; 'I' for Inactive)
REMARK    1  A    between atoms: C_1  and  O_2
REMARK    2  A    between atoms: O_2  and  C_3
REMARK    3  A    between atoms: C_6  and  C_7
REMARK    4  A    between atoms: C_7  and  N_8
REMARK    5  A    between atoms: C_9  and  C_11
REMARK    6  A    between atoms: C_11  and  O_12
REMARK    7  A    between atoms: O_12  and  C_13
REMARK    8  A    between atoms: C_15  and  C_16
REMARK    9  A    between atoms: C_21  and  C_22
REMARK   10  A    between atoms: N_29  and  C_30
REMARK                            x       y       z     vdW  Elec       q    Type
REMARK                         _______ _______ _______ _____ _____    ______ ____
ROOT
ATOM      1  C   UNL     1       1.779   6.150  20.562  0.00  0.00    +0.000 A 
ATOM      2  C   UNL     1       0.977   7.024  21.271  0.00  0.00    +0.000 A 
ATOM      3  C   UNL     1       0.768   8.346  20.810  0.00  0.00    +0.000 A 
ATOM      4  C   UNL     1       1.402   8.700  19.588  0.00  0.00    +0.000 A 
ATOM      5  C   UNL     1       1.554   9.834  18.693  0.00  0.00    +0.000 A 
ATOM      6  N   UNL     1       2.361   9.527  17.657  0.00  0.00    +0.000 NA
ATOM      7  N   UNL     1       2.707   8.250  17.856  0.00  0.00    +0.000 N 
ATOM      8  C   UNL     1       3.586   7.578  16.930  0.00  0.00    +0.000 C 
ATOM      9  C   UNL     1       2.179   7.706  18.986  0.00  0.00    +0.000 A 
ATOM     10  N   UNL     1       2.398   6.445  19.412  0.00  0.00    +0.000 NA
ENDROOT
BRANCH   5  11
ATOM     11  C   UNL     1       1.015  11.200  18.770  0.00  0.00    +0.000 A 
ATOM     12  C   UNL     1       1.845  12.270  19.145  0.00  0.00    +0.000 A 
ATOM     13  C   UNL     1       1.336  13.569  19.262  0.00  0.00    +0.000 A 
ATOM     14  C   UNL     1      -0.015  13.811  19.032  0.00  0.00    +0.000 A 
ATOM     15  C   UNL     1      -0.840  12.768  18.622  0.00  0.00    +0.000 A 
ATOM     16  C   UNL     1      -0.312  11.485  18.448  0.00  0.00    +0.000 A 
ENDBRANCH   5  11
BRANCH   3  17
ATOM     17  C   UNL     1      -0.112   9.224  21.662  0.00  0.00    +0.000 C 
ATOM     18  F   UNL     1       0.598  10.101  22.432  0.00  0.00    +0.000 F 
ATOM     19  F   UNL     1      -0.971   9.992  20.948  0.00  0.00    +0.000 F 
ATOM     20  F   UNL     1      -0.855   8.509  22.551  0.00  0.00    +0.000 F 
ENDBRANCH   3  17
BRANCH   1  21
ATOM     21  O   UNL     1       1.943   4.901  21.130  0.00  0.00    +0.000 OA
BRANCH  21  22
ATOM     22  C   UNL     1       1.184   3.890  20.469  0.00  0.00    +0.000 C 
BRANCH  22  24
ATOM     23  N   UNL     1       3.146   3.341  19.106  0.00  0.00    +0.000 N 
ATOM     24  C   UNL     1       1.786   3.534  19.109  0.00  0.00    +0.000 C 
ATOM     25  O   UNL     1       1.086   3.447  18.105  0.00  0.00    +0.000 OA
ATOM     26  H   UNL     1       3.639   3.385  19.989  0.00  0.00    +0.000 HD
BRANCH  23  27
ATOM     27  C   UNL     1       3.873   2.979  17.912  0.00  0.00    +0.000 C 
BRANCH  27  31
ATOM     28  C   UNL     1       6.843   5.913  16.759  0.00  0.00    +0.000 A 
ATOM     29  C   UNL     1       6.520   5.706  18.100  0.00  0.00    +0.000 A 
ATOM     30  C   UNL     1       5.554   4.765  18.462  0.00  0.00    +0.000 A 
ATOM     31  C   UNL     1       4.871   4.029  17.484  0.00  0.00    +0.000 A 
ATOM     32  C   UNL     1       5.206   4.240  16.138  0.00  0.00    +0.000 A 
ATOM     33  C   UNL     1       6.177   5.182  15.777  0.00  0.00    +0.000 A 
BRANCH  28  35
ATOM     34  C   UNL     1       7.732   8.021  17.363  0.00  0.00    +0.000 C 
ATOM     35  O   UNL     1       7.798   6.866  16.534  0.00  0.00    +0.000 OA
ENDBRANCH  28  35
ENDBRANCH  27  31
ENDBRANCH  23  27
ENDBRANCH  22  24
ENDBRANCH  21  22
ENDBRANCH   1  21
TORSDOF 8
ENDMDL
MODEL 4
REMARK VINA RESULT:      -8.0      3.448      8.244
REMARK  Name = 
REMARK  10 active torsions:
REMARK  status: ('A' for Active; 'I' for Inactive)
REMARK    1  A    between atoms: C_1  and  O_2
REMARK    2  A    between atoms: O_2  and  C_3
REMARK    3  A    between atoms: C_6  and  C_7
REMARK    4  A    between atoms: C_7  and  N_8
REMARK    5  A    between atoms: C_9  and  C_11
REMARK    6  A    between atoms: C_11  and  O_12
REMARK    7  A    between atoms: O_12  and  C_13
REMARK    8  A    between atoms: C_15  and  C_16
REMARK    9  A    between atoms: C_21  and  C_22
REMARK   10  A    between atoms: N_29  and  C_30
REMARK                            x       y       z     vdW  Elec       q    Type
REMARK                         _______ _______ _______ _____ _____    ______ ____
ROOT
ATOM      1  C   UNL     1       1.694   6.391  20.739  0.00  0.00    +0.000 A 
ATOM      2  C   UNL     1       0.907   7.307  21.408  0.00  0.00    +0.000 A 
ATOM      3  C   UNL     1       0.716   8.611  20.889  0.00  0.00    +0.000 A 
ATOM      4  C   UNL     1       1.354   8.900  19.651  0.00  0.00    +0.000 A 
ATOM      5  C   UNL     1       1.521   9.990  18.707  0.00  0.00    +0.000 A 
ATOM      6  N   UNL     1       2.322   9.625  17.684  0.00  0.00    +0.000 NA
ATOM      7  N   UNL     1       2.649   8.353  17.941  0.00  0.00    +0.000 N 
ATOM      8  C   UNL     1       3.516   7.627  17.044  0.00  0.00    +0.000 C 
ATOM      9  C   UNL     1       2.115   7.869  19.094  0.00  0.00    +0.000 A 
ATOM     10  N   UNL     1       2.316   6.625  19.576  0.00  0.00    +0.000 NA
ENDROOT
BRANCH   5  11
ATOM     11  C   UNL     1       1.002  11.366  18.722  0.00  0.00    +0.000 A 
ATOM     12  C   UNL     1      -0.369  11.610  18.530  0.00  0.00    +0.000 A 
ATOM     13  C   UNL     1      -0.870  12.916  18.500  0.00  0.00    +0.000 A 
ATOM     14  C   UNL     1      -0.005  13.997  18.636  0.00  0.00    +0.000 A 
ATOM     15  C   UNL     1       1.348  13.770  18.866  0.00  0.00    +0.000 A 
ATOM     16  C   UNL     1       1.832  12.462  18.955  0.00  0.00    +0.000 A 
ENDBRANCH   5  11
BRANCH   3  17
ATOM     17  C   UNL     1      -0.149   9.539  21.701  0.00  0.00    +0.000 C 
ATOM     18  F   UNL     1      -0.682   8.938  22.806  0.00  0.00    +0.000 F 
ATOM     19  F   UNL     1       0.509  10.628  22.170  0.00  0.00    +0.000 F 
ATOM     20  F   UNL     1      -1.227   9.990  21.002  0.00  0.00    +0.000 F 
ENDBRANCH   3  17
BRANCH   1  21
ATOM     21  O   UNL     1       1.841   5.166  21.362  0.00  0.00    +0.000 OA
BRANCH  21  22
ATOM     22  C   UNL     1       1.429   4.076  20.539  0.00  0.00    +0.000 C 
BRANCH  22  24
ATOM     23  N   UNL     1       2.797   3.736  18.533  0.00  0.00    +0.000 N 
ATOM     24  C   UNL     1       2.623   3.407  19.855  0.00  0.00    +0.000 C 
ATOM     25  O   UNL     1       3.349   2.626  20.461  0.00  0.00    +0.000 OA
ATOM     26  H   UNL     1       2.179   4.427  18.125  0.00  0.00    +0.000 HD
BRANCH  23  27
ATOM     27  C   UNL     1       3.885   3.212  17.741  0.00  0.00    +0.000 C 
BRANCH  27  31
ATOM     28  C   UNL     1       7.007   6.146  17.113  0.00  0.00    +0.000 A 
ATOM     29  C   UNL     1       6.346   5.558  16.035  0.00  0.00    +0.000 A 
ATOM     30  C   UNL     1       5.347   4.606  16.247  0.00  0.00    +0.000 A 
ATOM     31  C   UNL     1       5.008   4.202  17.545  0.00  0.00    +0.000 A 
ATOM     32  C   UNL     1       5.675   4.801  18.624  0.00  0.00    +0.000 A 
ATOM     33  C   UNL     1       6.674   5.758  18.410  0.00  0.00    +0.000 A 
BRANCH  28  35
ATOM     34  C   UNL     1       7.928   8.295  17.477  0.00  0.00    +0.000 C 
ATOM     35  O   UNL     1       7.969   7.057  16.775  0.00  0.00    +0.000 OA
ENDBRANCH  28  35
ENDBRANCH  27  31
ENDBRANCH  23  27
ENDBRANCH  22  24
ENDBRANCH  21  22
ENDBRANCH   1  21
TORSDOF 8
ENDMDL
MODEL 5
REMARK VINA RESULT:      -8.0      1.223      1.795
REMARK  Name = 
REMARK  10 active torsions:
REMARK  status: ('A' for Active; 'I' for Inactive)
REMARK    1  A    between atoms: C_1  and  O_2
REMARK    2  A    between atoms: O_2  and  C_3
REMARK    3  A    between atoms: C_6  and  C_7
REMARK    4  A    between atoms: C_7  and  N_8
REMARK    5  A    between atoms: C_9  and  C_11
REMARK    6  A    between atoms: C_11  and  O_12
REMARK    7  A    between atoms: O_12  and  C_13
REMARK    8  A    between atoms: C_15  and  C_16
REMARK    9  A    between atoms: C_21  and  C_22
REMARK   10  A    between atoms: N_29  and  C_30
REMARK                            x       y       z     vdW  Elec       q    Type
REMARK                         _______ _______ _______ _____ _____    ______ ____
ROOT
ATOM      1  C   UNL     1       1.953   6.056  19.938  0.00  0.00    +0.000 A 
ATOM      2  C   UNL     1       2.632   6.951  19.134  0.00  0.00    +0.000 A 
ATOM      3  C   UNL     1       3.480   6.490  18.098  0.00  0.00    +0.000 A 
ATOM      4  C   UNL     1       3.566   5.081  17.927  0.00  0.00    +0.000 A 
ATOM      5  C   UNL     1       4.235   4.092  17.101  0.00  0.00    +0.000 A 
ATOM      6  N   UNL     1       3.908   2.841  17.483  0.00  0.00    +0.000 NA
ATOM      7  N   UNL     1       3.054   3.004  18.501  0.00  0.00    +0.000 N 
ATOM      8  C   UNL     1       2.492   1.858  19.173  0.00  0.00    +0.000 C 
ATOM      9  C   UNL     1       2.817   4.306  18.818  0.00  0.00    +0.000 A 
ATOM     10  N   UNL     1       2.011   4.724  19.815  0.00  0.00    +0.000 NA
ENDROOT
BRANCH   5  11
ATOM     11  C   UNL     1       5.191   4.250  15.995  0.00  0.00    +0.000 A 
ATOM     12  C   UNL     1       4.829   3.884  14.686  0.00  0.00    +0.000 A 
ATOM     13  C   UNL     1       5.743   3.989  13.631  0.00  0.00    +0.000 A 
ATOM     14  C   UNL     1       7.038   4.436  13.873  0.00  0.00    +0.000 A 
ATOM     15  C   UNL     1       7.398   4.838  15.155  0.00  0.00    +0.000 A 
ATOM     16  C   UNL     1       6.462   4.788  16.193  0.00  0.00    +0.000 A 
ENDBRANCH   5  11
BRANCH   3  17
ATOM     17  C   UNL     1       4.186   7.545  17.286  0.00  0.00    +0.000 C 
ATOM     18  F   UNL     1       5.517   7.640  17.581  0.00  0.00    +0.000 F 
ATOM     19  F   UNL     1       4.131   7.332  15.948  0.00  0.00    +0.000 F 
ATOM     20  F   UNL     1       3.694   8.794  17.516  0.00  0.00    +0.000 F 
ENDBRANCH   3  17
BRANCH   1  21
ATOM     21  O   UNL     1       1.189   6.621  20.942  0.00  0.00    +0.000 OA
BRANCH  21  22
ATOM     22  C   UNL     1       1.548   7.974  21.214  0.00  0.00    +0.000 C 
BRANCH  22  24
ATOM     23  N   UNL     1       0.401  10.024  20.514  0.00  0.00    +0.000 N 
ATOM     24  C   UNL     1       0.318   8.881  21.270  0.00  0.00    +0.000 C 
ATOM     25  O   UNL     1      -0.655   8.593  21.960  0.00  0.00    +0.000 OA
ATOM     26  H   UNL     1       1.222  10.160  19.936  0.00  0.00    +0.000 HD
BRANCH  23  27
ATOM     27  C   UNL     1      -0.678  10.981  20.436  0.00  0.00    +0.000 C 
BRANCH  27  31
ATOM     28  C   UNL     1      -2.950  10.811  16.754  0.00  0.00    +0.000 A 
ATOM     29  C   UNL     1      -3.358  11.622  17.813  0.00  0.00    +0.000 A 
ATOM     30  C   UNL     1      -2.624  11.662  19.000  0.00  0.00    +0.000 A 
ATOM     31  C   UNL     1      -1.479  10.870  19.161  0.00  0.00    +0.000 A 
ATOM     32  C   UNL     1      -1.074  10.061  18.089  0.00  0.00    +0.000 A 
ATOM     33  C   UNL     1      -1.809  10.024  16.898  0.00  0.00    +0.000 A 
BRANCH  28  35
ATOM     34  C   UNL     1      -3.303  10.115  14.520  0.00  0.00    +0.000 C 
ATOM     35  O   UNL     1      -3.756  10.853  15.650  0.00  0.00    +0.000 OA
ENDBRANCH  28  35
ENDBRANCH  27  31
ENDBRANCH  23  27
ENDBRANCH  22  24
ENDBRANCH  21  22
ENDBRANCH   1  21
TORSDOF 8
ENDMDL
MODEL 6
REMARK VINA RESULT:      -8.0      2.310      3.172
REMARK  Name = 
REMARK  10 active torsions:
REMARK  status: ('A' for Active; 'I' for Inactive)
REMARK    1  A    between atoms: C_1  and  O_2
REMARK    2  A    between atoms: O_2  and  C_3
REMARK    3  A    between atoms: C_6  and  C_7
REMARK    4  A    between atoms: C_7  and  N_8
REMARK    5  A    between atoms: C_9  and  C_11
REMARK    6  A    between atoms: C_11  and  O_12
REMARK    7  A    between atoms: O_12  and  C_13
REMARK    8  A    between atoms: C_15  and  C_16
REMARK    9  A    between atoms: C_21  and  C_22
REMARK   10  A    between atoms: N_29  and  C_30
REMARK                            x       y       z     vdW  Elec       q    Type
REMARK                         _______ _______ _______ _____ _____    ______ ____
ROOT
ATOM      1  C   UNL     1       0.650   8.147  21.135  0.00  0.00    +0.000 A 
ATOM      2  C   UNL     1       1.142   6.861  21.241  0.00  0.00    +0.000 A 
ATOM      3  C   UNL     1       2.034   6.347  20.270  0.00  0.00    +0.000 A 
ATOM      4  C   UNL     1       2.403   7.228  19.217  0.00  0.00    +0.000 A 
ATOM      5  C   UNL     1       3.214   7.256  18.013  0.00  0.00    +0.000 A 
ATOM      6  N   UNL     1       3.112   8.447  17.388  0.00  0.00    +0.000 NA
ATOM      7  N   UNL     1       2.285   9.168  18.155  0.00  0.00    +0.000 N 
ATOM      8  C   UNL     1       1.936  10.518  17.784  0.00  0.00    +0.000 C 
ATOM      9  C   UNL     1       1.824   8.501  19.247  0.00  0.00    +0.000 A 
ATOM     10  N   UNL     1       0.967   9.006  20.157  0.00  0.00    +0.000 NA
ENDROOT
BRANCH   5  11
ATOM     11  C   UNL     1       4.054   6.220  17.394  0.00  0.00    +0.000 A 
ATOM     12  C   UNL     1       3.548   4.925  17.189  0.00  0.00    +0.000 A 
ATOM     13  C   UNL     1       4.350   3.917  16.640  0.00  0.00    +0.000 A 
ATOM     14  C   UNL     1       5.676   4.184  16.311  0.00  0.00    +0.000 A 
ATOM     15  C   UNL     1       6.178   5.471  16.471  0.00  0.00    +0.000 A 
ATOM     16  C   UNL     1       5.354   6.488  16.964  0.00  0.00    +0.000 A 
ENDBRANCH   5  11
BRANCH   3  17
ATOM     17  C   UNL     1       2.502   4.928  20.469  0.00  0.00    +0.000 C 
ATOM     18  F   UNL     1       1.857   4.037  19.658  0.00  0.00    +0.000 F 
ATOM     19  F   UNL     1       3.822   4.748  20.218  0.00  0.00    +0.000 F 
ATOM     20  F   UNL     1       2.266   4.475  21.731  0.00  0.00    +0.000 F 
ENDBRANCH   3  17
BRANCH   1  21
ATOM     21  O   UNL     1      -0.245   8.525  22.118  0.00  0.00    +0.000 OA
BRANCH  21  22
ATOM     22  C   UNL     1       0.052   9.803  22.674  0.00  0.00    +0.000 C 
BRANCH  22  24
ATOM     23  N   UNL     1      -0.941  11.253  20.964  0.00  0.00    +0.000 N 
ATOM     24  C   UNL     1      -0.993  10.846  22.275  0.00  0.00    +0.000 C 
ATOM     25  O   UNL     1      -1.800  11.284  23.089  0.00  0.00    +0.000 OA
ATOM     26  H   UNL     1      -0.274  10.804  20.348  0.00  0.00    +0.000 HD
BRANCH  23  27
ATOM     27  C   UNL     1      -1.866  12.216  20.415  0.00  0.00    +0.000 C 
BRANCH  27  31
ATOM     28  C   UNL     1      -3.585  11.138  16.588  0.00  0.00    +0.000 A 
ATOM     29  C   UNL     1      -4.390  11.566  17.643  0.00  0.00    +0.000 A 
ATOM     30  C   UNL     1      -3.828  11.902  18.876  0.00  0.00    +0.000 A 
ATOM     31  C   UNL     1      -2.447  11.790  19.087  0.00  0.00    +0.000 A 
ATOM     32  C   UNL     1      -1.644  11.363  18.020  0.00  0.00    +0.000 A 
ATOM     33  C   UNL     1      -2.209  11.029  16.783  0.00  0.00    +0.000 A 
BRANCH  28  35
ATOM     34  C   UNL     1      -3.495  10.162  14.435  0.00  0.00    +0.000 C 
ATOM     35  O   UNL     1      -4.254  10.831  15.436  0.00  0.00    +0.000 OA
ENDBRANCH  28  35
ENDBRANCH  27  31
ENDBRANCH  23  27
ENDBRANCH  22  24
ENDBRANCH  21  22
ENDBRANCH   1  21
TORSDOF 8
ENDMDL
MODEL 7
REMARK VINA RESULT:      -7.9      1.090      1.614
REMARK  Name = 
REMARK  10 active torsions:
REMARK  status: ('A' for Active; 'I' for Inactive)
REMARK    1  A    between atoms: C_1  and  O_2
REMARK    2  A    between atoms: O_2  and  C_3
REMARK    3  A    between atoms: C_6  and  C_7
REMARK    4  A    between atoms: C_7  and  N_8
REMARK    5  A    between atoms: C_9  and  C_11
REMARK    6  A    between atoms: C_11  and  O_12
REMARK    7  A    between atoms: O_12  and  C_13
REMARK    8  A    between atoms: C_15  and  C_16
REMARK    9  A    between atoms: C_21  and  C_22
REMARK   10  A    between atoms: N_29  and  C_30
REMARK                            x       y       z     vdW  Elec       q    Type
REMARK                         _______ _______ _______ _____ _____    ______ ____
ROOT
ATOM      1  C   UNL     1       1.530   6.921  20.631  0.00  0.00    +0.000 A 
ATOM      2  C   UNL     1       2.141   7.578  19.581  0.00  0.00    +0.000 A 
ATOM      3  C   UNL     1       3.079   6.909  18.759  0.00  0.00    +0.000 A 
ATOM      4  C   UNL     1       3.329   5.542  19.063  0.00  0.00    +0.000 A 
ATOM      5  C   UNL     1       4.139   4.426  18.612  0.00  0.00    +0.000 A 
ATOM      6  N   UNL     1       3.936   3.338  19.384  0.00  0.00    +0.000 NA
ATOM      7  N   UNL     1       3.025   3.721  20.286  0.00  0.00    +0.000 N 
ATOM      8  C   UNL     1       2.564   2.799  21.296  0.00  0.00    +0.000 C 
ATOM      9  C   UNL     1       2.631   5.017  20.155  0.00  0.00    +0.000 A 
ATOM     10  N   UNL     1       1.741   5.639  20.955  0.00  0.00    +0.000 NA
ENDROOT
BRANCH   5  11
ATOM     11  C   UNL     1       5.120   4.326  17.521  0.00  0.00    +0.000 A 
ATOM     12  C   UNL     1       6.476   4.608  17.758  0.00  0.00    +0.000 A 
ATOM     13  C   UNL     1       7.414   4.558  16.719  0.00  0.00    +0.000 A 
ATOM     14  C   UNL     1       7.004   4.251  15.425  0.00  0.00    +0.000 A 
ATOM     15  C   UNL     1       5.672   3.932  15.184  0.00  0.00    +0.000 A 
ATOM     16  C   UNL     1       4.752   3.924  16.237  0.00  0.00    +0.000 A 
ENDBRANCH   5  11
BRANCH   3  17
ATOM     17  C   UNL     1       3.699   7.718  17.649  0.00  0.00    +0.000 C 
ATOM     18  F   UNL     1       5.031   7.952  17.842  0.00  0.00    +0.000 F 
ATOM     19  F   UNL     1       3.614   7.128  16.431  0.00  0.00    +0.000 F 
ATOM     20  F   UNL     1       3.145   8.956  17.536  0.00  0.00    +0.000 F 
ENDBRANCH   3  17
BRANCH   1  21
ATOM     21  O   UNL     1       0.665   7.688  21.389  0.00  0.00    +0.000 OA
BRANCH  21  22
ATOM     22  C   UNL     1       1.328   8.733  22.096  0.00  0.00    +0.000 C 
BRANCH  22  24
ATOM     23  N   UNL     1       0.333  10.728  21.074  0.00  0.00    +0.000 N 
ATOM     24  C   UNL     1       0.445   9.976  22.218  0.00  0.00    +0.000 C 
ATOM     25  O   UNL     1      -0.102  10.268  23.277  0.00  0.00    +0.000 OA
ATOM     26  H   UNL     1       0.779  10.387  20.231  0.00  0.00    +0.000 HD
BRANCH  23  27
ATOM     27  C   UNL     1      -0.477  11.921  21.007  0.00  0.00    +0.000 C 
BRANCH  27  31
ATOM     28  C   UNL     1      -3.749  11.462  18.208  0.00  0.00    +0.000 A 
ATOM     29  C   UNL     1      -2.544  10.785  18.022  0.00  0.00    +0.000 A 
ATOM     30  C   UNL     1      -1.491  10.947  18.925  0.00  0.00    +0.000 A 
ATOM     31  C   UNL     1      -1.614  11.813  20.020  0.00  0.00    +0.000 A 
ATOM     32  C   UNL     1      -2.831  12.486  20.202  0.00  0.00    +0.000 A 
ATOM     33  C   UNL     1      -3.887  12.320  19.297  0.00  0.00    +0.000 A 
BRANCH  28  35
ATOM     34  C   UNL     1      -5.847  12.066  17.296  0.00  0.00    +0.000 C 
ATOM     35  O   UNL     1      -4.699  11.226  17.253  0.00  0.00    +0.000 OA
ENDBRANCH  28  35
ENDBRANCH  27  31
ENDBRANCH  23  27
ENDBRANCH  22  24
ENDBRANCH  21  22
ENDBRANCH   1  21
TORSDOF 8
ENDMDL
MODEL 8
REMARK VINA RESULT:      -7.9      1.207      1.585
REMARK  Name = 
REMARK  10 active torsions:
REMARK  status: ('A' for Active; 'I' for Inactive)
REMARK    1  A    between atoms: C_1  and  O_2
REMARK    2  A    between atoms: O_2  and  C_3
REMARK    3  A    between atoms: C_6  and  C_7
REMARK    4  A    between atoms: C_7  and  N_8
REMARK    5  A    between atoms: C_9  and  C_11
REMARK    6  A    between atoms: C_11  and  O_12
REMARK    7  A    between atoms: O_12  and  C_13
REMARK    8  A    between atoms: C_15  and  C_16
REMARK    9  A    between atoms: C_21  and  C_22
REMARK   10  A    between atoms: N_29  and  C_30
REMARK                            x       y       z     vdW  Elec       q    Type
REMARK                         _______ _______ _______ _____ _____    ______ ____
ROOT
ATOM      1  C   UNL     1       1.992   6.110  19.992  0.00  0.00    +0.000 A 
ATOM      2  C   UNL     1       2.650   6.988  19.153  0.00  0.00    +0.000 A 
ATOM      3  C   UNL     1       3.508   6.508  18.135  0.00  0.00    +0.000 A 
ATOM      4  C   UNL     1       3.626   5.096  18.018  0.00  0.00    +0.000 A 
ATOM      5  C   UNL     1       4.317   4.092  17.229  0.00  0.00    +0.000 A 
ATOM      6  N   UNL     1       4.019   2.849  17.660  0.00  0.00    +0.000 NA
ATOM      7  N   UNL     1       3.162   3.031  18.671  0.00  0.00    +0.000 N 
ATOM      8  C   UNL     1       2.627   1.899  19.388  0.00  0.00    +0.000 C 
ATOM      9  C   UNL     1       2.896   4.338  18.938  0.00  0.00    +0.000 A 
ATOM     10  N   UNL     1       2.081   4.776  19.920  0.00  0.00    +0.000 NA
ENDROOT
BRANCH   5  11
ATOM     11  C   UNL     1       5.269   4.229  16.116  0.00  0.00    +0.000 A 
ATOM     12  C   UNL     1       6.523   4.829  16.324  0.00  0.00    +0.000 A 
ATOM     13  C   UNL     1       7.421   5.005  15.265  0.00  0.00    +0.000 A 
ATOM     14  C   UNL     1       7.069   4.606  13.980  0.00  0.00    +0.000 A 
ATOM     15  C   UNL     1       5.848   3.975  13.766  0.00  0.00    +0.000 A 
ATOM     16  C   UNL     1       4.980   3.749  14.839  0.00  0.00    +0.000 A 
ENDBRANCH   5  11
BRANCH   3  17
ATOM     17  C   UNL     1       4.188   7.547  17.282  0.00  0.00    +0.000 C 
ATOM     18  F   UNL     1       4.159   7.245  15.950  0.00  0.00    +0.000 F 
ATOM     19  F   UNL     1       3.635   8.781  17.380  0.00  0.00    +0.000 F 
ATOM     20  F   UNL     1       5.512   7.675  17.576  0.00  0.00    +0.000 F 
ENDBRANCH   3  17
BRANCH   1  21
ATOM     21  O   UNL     1       1.216   6.695  20.975  0.00  0.00    +0.000 OA
BRANCH  21  22
ATOM     22  C   UNL     1       1.638   8.019  21.296  0.00  0.00    +0.000 C 
BRANCH  22  24
ATOM     23  N   UNL     1       0.699  10.174  20.600  0.00  0.00    +0.000 N 
ATOM     24  C   UNL     1       0.466   9.001  21.276  0.00  0.00    +0.000 C 
ATOM     25  O   UNL     1      -0.591   8.744  21.843  0.00  0.00    +0.000 OA
ATOM     26  H   UNL     1       1.584  10.284  20.120  0.00  0.00    +0.000 HD
BRANCH  23  27
ATOM     27  C   UNL     1      -0.305  11.203  20.465  0.00  0.00    +0.000 C 
BRANCH  27  31
ATOM     28  C   UNL     1      -2.978  10.682  17.098  0.00  0.00    +0.000 A 
ATOM     29  C   UNL     1      -3.298  11.550  18.142  0.00  0.00    +0.000 A 
ATOM     30  C   UNL     1      -2.434  11.704  19.228  0.00  0.00    +0.000 A 
ATOM     31  C   UNL     1      -1.242  10.970  19.304  0.00  0.00    +0.000 A 
ATOM     32  C   UNL     1      -0.926  10.103  18.248  0.00  0.00    +0.000 A 
ATOM     33  C   UNL     1      -1.792   9.952  17.158  0.00  0.00    +0.000 A 
BRANCH  28  35
ATOM     34  C   UNL     1      -3.394  10.631  14.769  0.00  0.00    +0.000 C 
ATOM     35  O   UNL     1      -3.907  10.613  16.097  0.00  0.00    +0.000 OA
ENDBRANCH  28  35
ENDBRANCH  27  31
ENDBRANCH  23  27
ENDBRANCH  22  24
ENDBRANCH  21  22
ENDBRANCH   1  21
TORSDOF 8
ENDMDL
MODEL 9
REMARK VINA RESULT:      -7.9      2.311      3.281
REMARK  Name = 
REMARK  10 active torsions:
REMARK  status: ('A' for Active; 'I' for Inactive)
REMARK    1  A    between atoms: C_1  and  O_2
REMARK    2  A    between atoms: O_2  and  C_3
REMARK    3  A    between atoms: C_6  and  C_7
REMARK    4  A    between atoms: C_7  and  N_8
REMARK    5  A    between atoms: C_9  and  C_11
REMARK    6  A    between atoms: C_11  and  O_12
REMARK    7  A    between atoms: O_12  and  C_13
REMARK    8  A    between atoms: C_15  and  C_16
REMARK    9  A    between atoms: C_21  and  C_22
REMARK   10  A    between atoms: N_29  and  C_30
REMARK                            x       y       z     vdW  Elec       q    Type
REMARK                         _______ _______ _______ _____ _____    ______ ____
ROOT
ATOM      1  C   UNL     1       0.777   8.313  21.275  0.00  0.00    +0.000 A 
ATOM      2  C   UNL     1       1.214   7.006  21.360  0.00  0.00    +0.000 A 
ATOM      3  C   UNL     1       2.017   6.445  20.338  0.00  0.00    +0.000 A 
ATOM      4  C   UNL     1       2.356   7.303  19.255  0.00  0.00    +0.000 A 
ATOM      5  C   UNL     1       3.088   7.286  18.001  0.00  0.00    +0.000 A 
ATOM      6  N   UNL     1       3.000   8.478  17.374  0.00  0.00    +0.000 NA
ATOM      7  N   UNL     1       2.259   9.240  18.187  0.00  0.00    +0.000 N 
ATOM      8  C   UNL     1       1.949  10.603  17.828  0.00  0.00    +0.000 C 
ATOM      9  C   UNL     1       1.840   8.601  19.312  0.00  0.00    +0.000 A 
ATOM     10  N   UNL     1       1.068   9.151  20.272  0.00  0.00    +0.000 NA
ENDROOT
BRANCH   5  11
ATOM     11  C   UNL     1       3.837   6.209  17.338  0.00  0.00    +0.000 A 
ATOM     12  C   UNL     1       3.322   4.902  17.305  0.00  0.00    +0.000 A 
ATOM     13  C   UNL     1       4.044   3.858  16.714  0.00  0.00    +0.000 A 
ATOM     14  C   UNL     1       5.301   4.102  16.170  0.00  0.00    +0.000 A 
ATOM     15  C   UNL     1       5.807   5.398  16.161  0.00  0.00    +0.000 A 
ATOM     16  C   UNL     1       5.054   6.446  16.699  0.00  0.00    +0.000 A 
ENDBRANCH   5  11
BRANCH   3  17
ATOM     17  C   UNL     1       2.431   5.008  20.518  0.00  0.00    +0.000 C 
ATOM     18  F   UNL     1       3.741   4.788  20.199  0.00  0.00    +0.000 F 
ATOM     19  F   UNL     1       2.293   4.555  21.789  0.00  0.00    +0.000 F 
ATOM     20  F   UNL     1       1.734   4.161  19.711  0.00  0.00    +0.000 F 
ENDBRANCH   3  17
BRANCH   1  21
ATOM     21  O   UNL     1      -0.035   8.737  22.310  0.00  0.00    +0.000 OA
BRANCH  21  22
ATOM     22  C   UNL     1       0.155  10.113  22.632  0.00  0.00    +0.000 C 
BRANCH  22  24
ATOM     23  N   UNL     1      -0.807  11.319  20.727  0.00  0.00    +0.000 N 
ATOM     24  C   UNL     1      -0.959  10.984  22.050  0.00  0.00    +0.000 C 
ATOM     25  O   UNL     1      -1.904  11.356  22.739  0.00  0.00    +0.000 OA
ATOM     26  H   UNL     1      -0.022  10.929  20.220  0.00  0.00    +0.000 HD
BRANCH  23  27
ATOM     27  C   UNL     1      -1.776  12.118  20.013  0.00  0.00    +0.000 C 
BRANCH  27  31
ATOM     28  C   UNL     1      -3.134  10.133  16.413  0.00  0.00    +0.000 A 
ATOM     29  C   UNL     1      -1.879   9.857  16.955  0.00  0.00    +0.000 A 
ATOM     30  C   UNL     1      -1.446  10.510  18.111  0.00  0.00    +0.000 A 
ATOM     31  C   UNL     1      -2.251  11.473  18.733  0.00  0.00    +0.000 A 
ATOM     32  C   UNL     1      -3.514  11.741  18.184  0.00  0.00    +0.000 A 
ATOM     33  C   UNL     1      -3.948  11.083  17.026  0.00  0.00    +0.000 A 
BRANCH  28  35
ATOM     34  C   UNL     1      -3.699  10.218  14.116  0.00  0.00    +0.000 C 
ATOM     35  O   UNL     1      -3.439   9.435  15.277  0.00  0.00    +0.000 OA
ENDBRANCH  28  35
ENDBRANCH  27  31
ENDBRANCH  23  27
ENDBRANCH  22  24
ENDBRANCH  21  22
ENDBRANCH   1  21
TORSDOF 8
ENDMDL
