MODEL 1
REMARK VINA RESULT:      -8.2      0.000      0.000
REMARK  Name = 
REMARK  6 active torsions:
REMARK  status: ('A' for Active; 'I' for Inactive)
REMARK    1  A    between atoms: O_1  and  C_2
REMARK    2  A    between atoms: C_2  and  C_3
REMARK    3  A    between atoms: C_3  and  C_4
REMARK    4  A    between atoms: C_4  and  N_5
REMARK    5  A    between atoms: N_5  and  C_6
REMARK    6  A    between atoms: N_25  and  C_26
REMARK                            x       y       z     vdW  Elec       q    Type
REMARK                         _______ _______ _______ _____ _____    ______ ____
ROOT
ATOM      1  C   UNL     1       5.234   5.326  15.317  0.00  0.00    +0.000 C 
ATOM      2  C   UNL     1       5.032   6.788  15.759  0.00  0.00    +0.000 C 
ATOM      3  C   UNL     1       5.258   6.951  17.261  0.00  0.00    +0.000 C 
ATOM      4  N   UNL     1       4.403   6.018  17.985  0.00  0.00    +0.000 N 
ATOM      5  C   UNL     1       3.371   6.415  18.805  0.00  0.00    +0.000 A 
ATOM      6  C   UNL     1       2.735   7.626  18.610  0.00  0.00    +0.000 A 
ATOM      7  C   UNL     1       1.751   8.059  19.489  0.00  0.00    +0.000 A 
ATOM      8  C   UNL     1       1.409   7.308  20.600  0.00  0.00    +0.000 A 
ATOM      9  N   UNL     1       0.512   7.771  21.560  0.00  0.00    +0.000 N 
ATOM     10  C   UNL     1       0.185   9.085  21.888  0.00  0.00    +0.000 A 
ATOM     11  N   UNL     1      -0.725   9.247  22.870  0.00  0.00    +0.000 NA
ATOM     12  C   UNL     1      -1.135  10.498  23.189  0.00  0.00    +0.000 A 
ATOM     13  C   UNL     1      -0.620  11.596  22.505  0.00  0.00    +0.000 A 
ATOM     14  C   UNL     1      -0.819  13.005  22.501  0.00  0.00    +0.000 A 
ATOM     15  C   UNL     1      -1.664  13.869  23.213  0.00  0.00    +0.000 A 
ATOM     16  C   UNL     1      -1.586  15.215  22.903  0.00  0.00    +0.000 A 
ATOM     17  N   UNL     1      -0.762  15.740  21.975  0.00  0.00    +0.000 NA
ATOM     18  C   UNL     1       0.057  14.920  21.284  0.00  0.00    +0.000 A 
ATOM     19  C   UNL     1       0.038  13.551  21.536  0.00  0.00    +0.000 A 
ATOM     20  N   UNL     1       0.751  12.499  20.977  0.00  0.00    +0.000 N 
ATOM     21  C   UNL     1       0.335  11.317  21.550  0.00  0.00    +0.000 A 
ATOM     22  N   UNL     1       0.768  10.095  21.225  0.00  0.00    +0.000 NA
ATOM     23  N   UNL     1       1.970   6.093  20.736  0.00  0.00    +0.000 NA
ATOM     24  N   UNL     1       2.946   5.646  19.830  0.00  0.00    +0.000 NA
ATOM     25  C   UNL     1       4.589   4.608  17.680  0.00  0.00    +0.000 C 
ATOM     26  C   UNL     1       4.335   4.413  16.181  0.00  0.00    +0.000 C 
ATOM     27  H   UNL     1       0.278   7.116  22.288  0.00  0.00    +0.000 HD
ENDROOT
BRANCH  20  28
ATOM     28  C   UNL     1       1.749  12.584  19.922  0.00  0.00    +0.000 C 
ATOM     29  C   UNL     1       1.178  12.920  18.543  0.00  0.00    +0.000 C 
ATOM     30  C   UNL     1       2.374  13.416  17.743  0.00  0.00    +0.000 C 
ATOM     31  C   UNL     1       3.360  13.994  18.755  0.00  0.00    +0.000 C 
ATOM     32  C   UNL     1       2.842  13.634  20.146  0.00  0.00    +0.000 C 
ENDBRANCH  20  28
BRANCH   1  33
ATOM     33  N   UNL     1       6.670   4.993  15.393  0.00  0.00    +0.000 NA
ATOM     34  H   UNL     1       7.187   5.810  15.720  0.00  0.00    +0.000 HD
BRANCH  33  35
ATOM     35  C   UNL     1       7.216   4.593  14.093  0.00  0.00    +0.000 C 
BRANCH  35  36
ATOM     36  C   UNL     1       6.118   4.027  13.195  0.00  0.00    +0.000 C 
BRANCH  36  37
ATOM     37  C   UNL     1       6.732   3.302  12.003  0.00  0.00    +0.000 C 
BRANCH  37  38
ATOM     38  O   UNL     1       6.172   2.001  11.891  0.00  0.00    +0.000 OA
ATOM     39  H   UNL     1       5.238   2.112  11.642  0.00  0.00    +0.000 HD
ENDBRANCH  37  38
ENDBRANCH  36  37
ENDBRANCH  35  36
ENDBRANCH  33  35
ENDBRANCH   1  33
TORSDOF 6
ENDMDL
MODEL 2
REMARK VINA RESULT:      -7.1      1.779      2.300
REMARK  Name = 
REMARK  6 active torsions:
REMARK  status: ('A' for Active; 'I' for Inactive)
REMARK    1  A    between atoms: O_1  and  C_2
REMARK    2  A    between atoms: C_2  and  C_3
REMARK    3  A    between atoms: C_3  and  C_4
REMARK    4  A    between atoms: C_4  and  N_5
REMARK    5  A    between atoms: N_5  and  C_6
REMARK    6  A    between atoms: N_25  and  C_26
REMARK                            x       y       z     vdW  Elec       q    Type
REMARK                         _______ _______ _______ _____ _____    ______ ____
ROOT
ATOM      1  C   UNL     1       3.966   4.866  16.734  0.00  0.00    +0.000 C 
ATOM      2  C   UNL     1       4.110   6.386  16.938  0.00  0.00    +0.000 C 
ATOM      3  C   UNL     1       4.282   6.736  18.415  0.00  0.00    +0.000 C 
ATOM      4  N   UNL     1       3.180   6.164  19.181  0.00  0.00    +0.000 N 
ATOM      5  C   UNL     1       2.233   6.925  19.831  0.00  0.00    +0.000 A 
ATOM      6  C   UNL     1       1.933   8.203  19.401  0.00  0.00    +0.000 A 
ATOM      7  C   UNL     1       1.038   8.996  20.108  0.00  0.00    +0.000 A 
ATOM      8  C   UNL     1       0.455   8.540  21.278  0.00  0.00    +0.000 A 
ATOM      9  N   UNL     1      -0.353   9.355  22.068  0.00  0.00    +0.000 N 
ATOM     10  C   UNL     1      -0.360  10.744  22.169  0.00  0.00    +0.000 A 
ATOM     11  N   UNL     1      -1.256  11.277  23.024  0.00  0.00    +0.000 NA
ATOM     12  C   UNL     1      -1.359  12.624  23.116  0.00  0.00    +0.000 A 
ATOM     13  C   UNL     1      -0.547  13.441  22.334  0.00  0.00    +0.000 A 
ATOM     14  C   UNL     1      -0.387  14.836  22.107  0.00  0.00    +0.000 A 
ATOM     15  C   UNL     1      -1.030  15.981  22.601  0.00  0.00    +0.000 A 
ATOM     16  C   UNL     1      -0.600  17.201  22.107  0.00  0.00    +0.000 A 
ATOM     17  N   UNL     1       0.382  17.355  21.198  0.00  0.00    +0.000 NA
ATOM     18  C   UNL     1       1.010  16.261  20.716  0.00  0.00    +0.000 A 
ATOM     19  C   UNL     1       0.635  14.996  21.161  0.00  0.00    +0.000 A 
ATOM     20  N   UNL     1       1.094  13.728  20.832  0.00  0.00    +0.000 N 
ATOM     21  C   UNL     1       0.362  12.789  21.528  0.00  0.00    +0.000 A 
ATOM     22  N   UNL     1       0.495  11.464  21.426  0.00  0.00    +0.000 NA
ATOM     23  N   UNL     1       0.686   7.267  21.642  0.00  0.00    +0.000 NA
ATOM     24  N   UNL     1       1.571   6.458  20.910  0.00  0.00    +0.000 NA
ATOM     25  C   UNL     1       3.026   4.720  19.103  0.00  0.00    +0.000 C 
ATOM     26  C   UNL     1       2.819   4.347  17.630  0.00  0.00    +0.000 C 
ATOM     27  H   UNL     1      -0.785   8.902  22.857  0.00  0.00    +0.000 HD
ENDROOT
BRANCH  20  28
ATOM     28  C   UNL     1       2.142  13.399  19.877  0.00  0.00    +0.000 C 
ATOM     29  C   UNL     1       1.685  13.402  18.417  0.00  0.00    +0.000 C 
ATOM     30  C   UNL     1       2.972  13.512  17.614  0.00  0.00    +0.000 C 
ATOM     31  C   UNL     1       3.979  14.231  18.508  0.00  0.00    +0.000 C 
ATOM     32  C   UNL     1       3.354  14.335  19.897  0.00  0.00    +0.000 C 
ENDBRANCH  20  28
BRANCH   1  33
ATOM     33  N   UNL     1       5.267   4.219  16.997  0.00  0.00    +0.000 NA
ATOM     34  H   UNL     1       5.722   4.686  17.782  0.00  0.00    +0.000 HD
BRANCH  33  35
ATOM     35  C   UNL     1       6.164   4.285  15.840  0.00  0.00    +0.000 C 
BRANCH  35  36
ATOM     36  C   UNL     1       7.283   5.297  16.079  0.00  0.00    +0.000 C 
BRANCH  36  37
ATOM     37  C   UNL     1       7.679   5.309  17.551  0.00  0.00    +0.000 C 
BRANCH  37  38
ATOM     38  O   UNL     1       8.246   4.055  17.905  0.00  0.00    +0.000 OA
ATOM     39  H   UNL     1       9.007   3.907  17.317  0.00  0.00    +0.000 HD
ENDBRANCH  37  38
ENDBRANCH  36  37
ENDBRANCH  35  36
ENDBRANCH  33  35
ENDBRANCH   1  33
TORSDOF 6
ENDMDL
MODEL 3
REMARK VINA RESULT:      -7.1      1.947      2.313
REMARK  Name = 
REMARK  6 active torsions:
REMARK  status: ('A' for Active; 'I' for Inactive)
REMARK    1  A    between atoms: O_1  and  C_2
REMARK    2  A    between atoms: C_2  and  C_3
REMARK    3  A    between atoms: C_3  and  C_4
REMARK    4  A    between atoms: C_4  and  N_5
REMARK    5  A    between atoms: N_5  and  C_6
REMARK    6  A    between atoms: N_25  and  C_26
REMARK                            x       y       z     vdW  Elec       q    Type
REMARK                         _______ _______ _______ _____ _____    ______ ____
ROOT
ATOM      1  C   UNL     1       4.951   5.131  15.867  0.00  0.00    +0.000 C 
ATOM      2  C   UNL     1       4.848   6.624  16.235  0.00  0.00    +0.000 C 
ATOM      3  C   UNL     1       5.005   6.839  17.738  0.00  0.00    +0.000 C 
ATOM      4  N   UNL     1       4.037   6.013  18.451  0.00  0.00    +0.000 N 
ATOM      5  C   UNL     1       2.999   6.530  19.193  0.00  0.00    +0.000 A 
ATOM      6  C   UNL     1       2.478   7.778  18.910  0.00  0.00    +0.000 A 
ATOM      7  C   UNL     1       1.487   8.330  19.710  0.00  0.00    +0.000 A 
ATOM      8  C   UNL     1       1.023   7.662  20.831  0.00  0.00    +0.000 A 
ATOM      9  N   UNL     1       0.117   8.242  21.716  0.00  0.00    +0.000 N 
ATOM     10  C   UNL     1      -0.116   9.592  21.969  0.00  0.00    +0.000 A 
ATOM     11  N   UNL     1      -1.061   9.873  22.889  0.00  0.00    +0.000 NA
ATOM     12  C   UNL     1      -1.383  11.167  23.129  0.00  0.00    +0.000 A 
ATOM     13  C   UNL     1      -0.741  12.186  22.431  0.00  0.00    +0.000 A 
ATOM     14  C   UNL     1      -0.822  13.604  22.355  0.00  0.00    +0.000 A 
ATOM     15  C   UNL     1      -1.629  14.566  22.980  0.00  0.00    +0.000 A 
ATOM     16  C   UNL     1      -1.422  15.886  22.617  0.00  0.00    +0.000 A 
ATOM     17  N   UNL     1      -0.508  16.298  21.718  0.00  0.00    +0.000 NA
ATOM     18  C   UNL     1       0.276  15.382  21.110  0.00  0.00    +0.000 A 
ATOM     19  C   UNL     1       0.130  14.033  21.419  0.00  0.00    +0.000 A 
ATOM     20  N   UNL     1       0.781  12.901  20.948  0.00  0.00    +0.000 N 
ATOM     21  C   UNL     1       0.237  11.785  21.546  0.00  0.00    +0.000 A 
ATOM     22  N   UNL     1       0.584  10.519  21.298  0.00  0.00    +0.000 NA
ATOM     23  N   UNL     1       1.473   6.414  21.050  0.00  0.00    +0.000 NA
ATOM     24  N   UNL     1       2.457   5.847  20.223  0.00  0.00    +0.000 NA
ATOM     25  C   UNL     1       4.122   4.579  18.217  0.00  0.00    +0.000 C 
ATOM     26  C   UNL     1       3.934   4.335  16.716  0.00  0.00    +0.000 C 
ATOM     27  H   UNL     1      -0.209   7.642  22.456  0.00  0.00    +0.000 HD
ENDROOT
BRANCH  20  28
ATOM     28  C   UNL     1       1.839  12.856  19.949  0.00  0.00    +0.000 C 
ATOM     29  C   UNL     1       1.386  13.230  18.537  0.00  0.00    +0.000 C 
ATOM     30  C   UNL     1       2.673  13.574  17.800  0.00  0.00    +0.000 C 
ATOM     31  C   UNL     1       3.661  14.055  18.859  0.00  0.00    +0.000 C 
ATOM     32  C   UNL     1       3.030  13.780  20.223  0.00  0.00    +0.000 C 
ENDBRANCH  20  28
BRANCH   1  33
ATOM     33  N   UNL     1       6.349   4.687  16.041  0.00  0.00    +0.000 NA
ATOM     34  H   UNL     1       6.356   3.772  16.495  0.00  0.00    +0.000 HD
BRANCH  33  35
ATOM     35  C   UNL     1       7.128   5.615  16.864  0.00  0.00    +0.000 C 
BRANCH  35  36
ATOM     36  C   UNL     1       7.778   4.884  18.038  0.00  0.00    +0.000 C 
BRANCH  36  37
ATOM     37  C   UNL     1       7.897   5.815  19.239  0.00  0.00    +0.000 C 
BRANCH  37  38
ATOM     38  O   UNL     1       8.662   5.187  20.258  0.00  0.00    +0.000 OA
ATOM     39  H   UNL     1       9.416   5.772  20.453  0.00  0.00    +0.000 HD
ENDBRANCH  37  38
ENDBRANCH  36  37
ENDBRANCH  35  36
ENDBRANCH  33  35
ENDBRANCH   1  33
TORSDOF 6
ENDMDL
MODEL 4
REMARK VINA RESULT:      -6.9      0.795      1.009
REMARK  Name = 
REMARK  6 active torsions:
REMARK  status: ('A' for Active; 'I' for Inactive)
REMARK    1  A    between atoms: O_1  and  C_2
REMARK    2  A    between atoms: C_2  and  C_3
REMARK    3  A    between atoms: C_3  and  C_4
REMARK    4  A    between atoms: C_4  and  N_5
REMARK    5  A    between atoms: N_5  and  C_6
REMARK    6  A    between atoms: N_25  and  C_26
REMARK                            x       y       z     vdW  Elec       q    Type
REMARK                         _______ _______ _______ _____ _____    ______ ____
ROOT
ATOM      1  C   UNL     1       5.081   5.208  15.463  0.00  0.00    +0.000 C 
ATOM      2  C   UNL     1       4.709   6.687  15.677  0.00  0.00    +0.000 C 
ATOM      3  C   UNL     1       5.028   7.140  17.101  0.00  0.00    +0.000 C 
ATOM      4  N   UNL     1       4.374   6.249  18.052  0.00  0.00    +0.000 N 
ATOM      5  C   UNL     1       3.364   6.651  18.897  0.00  0.00    +0.000 A 
ATOM      6  C   UNL     1       2.550   7.718  18.572  0.00  0.00    +0.000 A 
ATOM      7  C   UNL     1       1.587   8.172  19.464  0.00  0.00    +0.000 A 
ATOM      8  C   UNL     1       1.443   7.591  20.712  0.00  0.00    +0.000 A 
ATOM      9  N   UNL     1       0.569   8.100  21.669  0.00  0.00    +0.000 N 
ATOM     10  C   UNL     1       0.085   9.399  21.810  0.00  0.00    +0.000 A 
ATOM     11  N   UNL     1      -0.757   9.616  22.840  0.00  0.00    +0.000 NA
ATOM     12  C   UNL     1      -1.315  10.841  22.989  0.00  0.00    +0.000 A 
ATOM     13  C   UNL     1      -1.016  11.857  22.085  0.00  0.00    +0.000 A 
ATOM     14  C   UNL     1      -1.413  13.206  21.870  0.00  0.00    +0.000 A 
ATOM     15  C   UNL     1      -2.313  14.069  22.514  0.00  0.00    +0.000 A 
ATOM     16  C   UNL     1      -2.451  15.339  21.981  0.00  0.00    +0.000 A 
ATOM     17  N   UNL     1      -1.786  15.791  20.900  0.00  0.00    +0.000 NA
ATOM     18  C   UNL     1      -0.916  14.972  20.273  0.00  0.00    +0.000 A 
ATOM     19  C   UNL     1      -0.720  13.677  20.747  0.00  0.00    +0.000 A 
ATOM     20  N   UNL     1       0.088  12.642  20.298  0.00  0.00    +0.000 N 
ATOM     21  C   UNL     1      -0.110  11.536  21.097  0.00  0.00    +0.000 A 
ATOM     22  N   UNL     1       0.465  10.341  20.934  0.00  0.00    +0.000 NA
ATOM     23  N   UNL     1       2.180   6.500  20.987  0.00  0.00    +0.000 NA
ATOM     24  N   UNL     1       3.135   6.027  20.073  0.00  0.00    +0.000 NA
ATOM     25  C   UNL     1       4.734   4.842  17.965  0.00  0.00    +0.000 C 
ATOM     26  C   UNL     1       4.392   4.355  16.552  0.00  0.00    +0.000 C 
ATOM     27  H   UNL     1       0.489   7.559  22.515  0.00  0.00    +0.000 HD
ENDROOT
BRANCH  20  28
ATOM     28  C   UNL     1       0.977  12.665  19.146  0.00  0.00    +0.000 C 
ATOM     29  C   UNL     1       2.351  13.278  19.425  0.00  0.00    +0.000 C 
ATOM     30  C   UNL     1       3.230  12.779  18.287  0.00  0.00    +0.000 C 
ATOM     31  C   UNL     1       2.631  11.453  17.828  0.00  0.00    +0.000 C 
ATOM     32  C   UNL     1       1.289  11.294  18.539  0.00  0.00    +0.000 C 
ENDBRANCH  20  28
BRANCH   1  33
ATOM     33  N   UNL     1       6.552   5.077  15.445  0.00  0.00    +0.000 NA
ATOM     34  H   UNL     1       6.971   5.966  15.721  0.00  0.00    +0.000 HD
BRANCH  33  35
ATOM     35  C   UNL     1       7.061   4.721  14.118  0.00  0.00    +0.000 C 
BRANCH  35  36
ATOM     36  C   UNL     1       6.174   3.663  13.463  0.00  0.00    +0.000 C 
BRANCH  36  37
ATOM     37  C   UNL     1       6.585   3.456  12.010  0.00  0.00    +0.000 C 
BRANCH  37  38
ATOM     38  O   UNL     1       6.745   2.068  11.750  0.00  0.00    +0.000 OA
ATOM     39  H   UNL     1       6.393   1.900  10.859  0.00  0.00    +0.000 HD
ENDBRANCH  37  38
ENDBRANCH  36  37
ENDBRANCH  35  36
ENDBRANCH  33  35
ENDBRANCH   1  33
TORSDOF 6
ENDMDL
MODEL 5
REMARK VINA RESULT:      -6.9      4.646     11.159
REMARK  Name = 
REMARK  6 active torsions:
REMARK  status: ('A' for Active; 'I' for Inactive)
REMARK    1  A    between atoms: O_1  and  C_2
REMARK    2  A    between atoms: C_2  and  C_3
REMARK    3  A    between atoms: C_3  and  C_4
REMARK    4  A    between atoms: C_4  and  N_5
REMARK    5  A    between atoms: N_5  and  C_6
REMARK    6  A    between atoms: N_25  and  C_26
REMARK                            x       y       z     vdW  Elec       q    Type
REMARK                         _______ _______ _______ _____ _____    ______ ____
ROOT
ATOM      1  C   UNL     1      -2.719  16.197  21.945  0.00  0.00    +0.000 C 
ATOM      2  C   UNL     1      -2.301  14.793  22.423  0.00  0.00    +0.000 C 
ATOM      3  C   UNL     1      -0.794  14.585  22.288  0.00  0.00    +0.000 C 
ATOM      4  N   UNL     1      -0.386  14.860  20.915  0.00  0.00    +0.000 N 
ATOM      5  C   UNL     1       0.110  13.898  20.065  0.00  0.00    +0.000 A 
ATOM      6  C   UNL     1      -0.217  12.566  20.231  0.00  0.00    +0.000 A 
ATOM      7  C   UNL     1       0.351  11.591  19.422  0.00  0.00    +0.000 A 
ATOM      8  C   UNL     1       1.285  11.923  18.456  0.00  0.00    +0.000 A 
ATOM      9  N   UNL     1       1.957  10.956  17.712  0.00  0.00    +0.000 N 
ATOM     10  C   UNL     1       2.224   9.628  18.042  0.00  0.00    +0.000 A 
ATOM     11  N   UNL     1       2.902   8.909  17.126  0.00  0.00    +0.000 NA
ATOM     12  C   UNL     1       3.132   7.595  17.357  0.00  0.00    +0.000 A 
ATOM     13  C   UNL     1       2.671   7.002  18.530  0.00  0.00    +0.000 A 
ATOM     14  C   UNL     1       2.660   5.700  19.101  0.00  0.00    +0.000 A 
ATOM     15  C   UNL     1       3.126   4.447  18.674  0.00  0.00    +0.000 A 
ATOM     16  C   UNL     1       2.902   3.376  19.521  0.00  0.00    +0.000 A 
ATOM     17  N   UNL     1       2.276   3.459  20.711  0.00  0.00    +0.000 NA
ATOM     18  C   UNL     1       1.824   4.658  21.134  0.00  0.00    +0.000 A 
ATOM     19  C   UNL     1       2.009   5.787  20.340  0.00  0.00    +0.000 A 
ATOM     20  N   UNL     1       1.645   7.114  20.520  0.00  0.00    +0.000 N 
ATOM     21  C   UNL     1       2.027   7.841  19.414  0.00  0.00    +0.000 A 
ATOM     22  N   UNL     1       1.798   9.143  19.218  0.00  0.00    +0.000 NA
ATOM     23  N   UNL     1       1.534  13.227  18.243  0.00  0.00    +0.000 NA
ATOM     24  N   UNL     1       0.937  14.214  19.045  0.00  0.00    +0.000 NA
ATOM     25  C   UNL     1      -0.676  16.195  20.415  0.00  0.00    +0.000 C 
ATOM     26  C   UNL     1      -2.190  16.416  20.509  0.00  0.00    +0.000 C 
ATOM     27  H   UNL     1       2.560  11.308  16.987  0.00  0.00    +0.000 HD
ENDROOT
BRANCH  20  28
ATOM     28  C   UNL     1       0.931   7.675  21.658  0.00  0.00    +0.000 C 
ATOM     29  C   UNL     1       1.611   8.892  22.288  0.00  0.00    +0.000 C 
ATOM     30  C   UNL     1       0.512   9.570  23.093  0.00  0.00    +0.000 C 
ATOM     31  C   UNL     1      -0.806   9.210  22.413  0.00  0.00    +0.000 C 
ATOM     32  C   UNL     1      -0.495   8.149  21.359  0.00  0.00    +0.000 C 
ENDBRANCH  20  28
BRANCH   1  33
ATOM     33  N   UNL     1      -2.239  17.200  22.916  0.00  0.00    +0.000 NA
ATOM     34  H   UNL     1      -2.133  16.758  23.831  0.00  0.00    +0.000 HD
BRANCH  33  35
ATOM     35  C   UNL     1      -3.165  18.326  23.055  0.00  0.00    +0.000 C 
BRANCH  35  36
ATOM     36  C   UNL     1      -4.354  17.945  23.935  0.00  0.00    +0.000 C 
BRANCH  36  37
ATOM     37  C   UNL     1      -3.872  17.240  25.198  0.00  0.00    +0.000 C 
BRANCH  37  38
ATOM     38  O   UNL     1      -4.192  15.857  25.126  0.00  0.00    +0.000 OA
ATOM     39  H   UNL     1      -5.127  15.792  24.865  0.00  0.00    +0.000 HD
ENDBRANCH  37  38
ENDBRANCH  36  37
ENDBRANCH  35  36
ENDBRANCH  33  35
ENDBRANCH   1  33
TORSDOF 6
ENDMDL
MODEL 6
REMARK VINA RESULT:      -6.9      1.912      2.922
REMARK  Name = 
REMARK  6 active torsions:
REMARK  status: ('A' for Active; 'I' for Inactive)
REMARK    1  A    between atoms: O_1  and  C_2
REMARK    2  A    between atoms: C_2  and  C_3
REMARK    3  A    between atoms: C_3  and  C_4
REMARK    4  A    between atoms: C_4  and  N_5
REMARK    5  A    between atoms: N_5  and  C_6
REMARK    6  A    between atoms: N_25  and  C_26
REMARK                            x       y       z     vdW  Elec       q    Type
REMARK                         _______ _______ _______ _____ _____    ______ ____
ROOT
ATOM      1  C   UNL     1       3.387   5.303  17.315  0.00  0.00    +0.000 C 
ATOM      2  C   UNL     1       3.674   6.808  17.475  0.00  0.00    +0.000 C 
ATOM      3  C   UNL     1       3.806   7.196  18.946  0.00  0.00    +0.000 C 
ATOM      4  N   UNL     1       2.616   6.767  19.671  0.00  0.00    +0.000 N 
ATOM      5  C   UNL     1       1.720   7.642  20.244  0.00  0.00    +0.000 A 
ATOM      6  C   UNL     1       1.573   8.926  19.756  0.00  0.00    +0.000 A 
ATOM      7  C   UNL     1       0.729   9.831  20.387  0.00  0.00    +0.000 A 
ATOM      8  C   UNL     1       0.045   9.482  21.539  0.00  0.00    +0.000 A 
ATOM      9  N   UNL     1      -0.714  10.402  22.258  0.00  0.00    +0.000 N 
ATOM     10  C   UNL     1      -0.585  11.789  22.311  0.00  0.00    +0.000 A 
ATOM     11  N   UNL     1      -1.464  12.441  23.099  0.00  0.00    +0.000 NA
ATOM     12  C   UNL     1      -1.435  13.794  23.140  0.00  0.00    +0.000 A 
ATOM     13  C   UNL     1      -0.506  14.495  22.375  0.00  0.00    +0.000 A 
ATOM     14  C   UNL     1      -0.195  15.857  22.109  0.00  0.00    +0.000 A 
ATOM     15  C   UNL     1      -0.742  17.079  22.529  0.00  0.00    +0.000 A 
ATOM     16  C   UNL     1      -0.167  18.230  22.019  0.00  0.00    +0.000 A 
ATOM     17  N   UNL     1       0.869  18.250  21.158  0.00  0.00    +0.000 NA
ATOM     18  C   UNL     1       1.406  17.082  20.747  0.00  0.00    +0.000 A 
ATOM     19  C   UNL     1       0.883  15.878  21.214  0.00  0.00    +0.000 A 
ATOM     20  N   UNL     1       1.227  14.559  20.953  0.00  0.00    +0.000 N 
ATOM     21  C   UNL     1       0.371  13.725  21.640  0.00  0.00    +0.000 A 
ATOM     22  N   UNL     1       0.374  12.390  21.591  0.00  0.00    +0.000 NA
ATOM     23  N   UNL     1       0.128   8.207  21.958  0.00  0.00    +0.000 NA
ATOM     24  N   UNL     1       0.962   7.286  21.302  0.00  0.00    +0.000 NA
ATOM     25  C   UNL     1       2.321   5.343  19.634  0.00  0.00    +0.000 C 
ATOM     26  C   UNL     1       2.150   4.936  18.166  0.00  0.00    +0.000 C 
ATOM     27  H   UNL     1      -1.228  10.026  23.037  0.00  0.00    +0.000 HD
ENDROOT
BRANCH  20  28
ATOM     28  C   UNL     1       2.282  14.091  20.067  0.00  0.00    +0.000 C 
ATOM     29  C   UNL     1       2.074  14.455  18.596  0.00  0.00    +0.000 C 
ATOM     30  C   UNL     1       3.452  14.307  17.966  0.00  0.00    +0.000 C 
ATOM     31  C   UNL     1       4.464  14.551  19.082  0.00  0.00    +0.000 C 
ATOM     32  C   UNL     1       3.684  14.616  20.393  0.00  0.00    +0.000 C 
ENDBRANCH  20  28
BRANCH   1  33
ATOM     33  N   UNL     1       4.601   4.540  17.668  0.00  0.00    +0.000 NA
ATOM     34  H   UNL     1       5.358   5.192  17.879  0.00  0.00    +0.000 HD
BRANCH  33  35
ATOM     35  C   UNL     1       5.040   3.662  16.581  0.00  0.00    +0.000 C 
BRANCH  35  36
ATOM     36  C   UNL     1       6.207   4.288  15.817  0.00  0.00    +0.000 C 
BRANCH  36  37
ATOM     37  C   UNL     1       7.168   4.968  16.785  0.00  0.00    +0.000 C 
BRANCH  37  38
ATOM     38  O   UNL     1       7.602   4.035  17.765  0.00  0.00    +0.000 OA
ATOM     39  H   UNL     1       7.180   3.183  17.557  0.00  0.00    +0.000 HD
ENDBRANCH  37  38
ENDBRANCH  36  37
ENDBRANCH  35  36
ENDBRANCH  33  35
ENDBRANCH   1  33
TORSDOF 6
ENDMDL
MODEL 7
REMARK VINA RESULT:      -6.8      4.525     11.081
REMARK  Name = 
REMARK  6 active torsions:
REMARK  status: ('A' for Active; 'I' for Inactive)
REMARK    1  A    between atoms: O_1  and  C_2
REMARK    2  A    between atoms: C_2  and  C_3
REMARK    3  A    between atoms: C_3  and  C_4
REMARK    4  A    between atoms: C_4  and  N_5
REMARK    5  A    between atoms: N_5  and  C_6
REMARK    6  A    between atoms: N_25  and  C_26
REMARK                            x       y       z     vdW  Elec       q    Type
REMARK                         _______ _______ _______ _____ _____    ______ ____
ROOT
ATOM      1  C   UNL     1      -2.248  16.364  22.560  0.00  0.00    +0.000 C 
ATOM      2  C   UNL     1      -1.871  14.923  22.952  0.00  0.00    +0.000 C 
ATOM      3  C   UNL     1      -0.385  14.654  22.720  0.00  0.00    +0.000 C 
ATOM      4  N   UNL     1      -0.044  14.972  21.338  0.00  0.00    +0.000 N 
ATOM      5  C   UNL     1       0.357  14.028  20.420  0.00  0.00    +0.000 A 
ATOM      6  C   UNL     1      -0.022  12.706  20.549  0.00  0.00    +0.000 A 
ATOM      7  C   UNL     1       0.452  11.743  19.668  0.00  0.00    +0.000 A 
ATOM      8  C   UNL     1       1.344  12.076  18.662  0.00  0.00    +0.000 A 
ATOM      9  N   UNL     1       1.926  11.115  17.840  0.00  0.00    +0.000 N 
ATOM     10  C   UNL     1       2.148   9.763  18.097  0.00  0.00    +0.000 A 
ATOM     11  N   UNL     1       2.739   9.057  17.113  0.00  0.00    +0.000 NA
ATOM     12  C   UNL     1       2.920   7.724  17.275  0.00  0.00    +0.000 A 
ATOM     13  C   UNL     1       2.499   7.101  18.446  0.00  0.00    +0.000 A 
ATOM     14  C   UNL     1       2.460   5.776  18.962  0.00  0.00    +0.000 A 
ATOM     15  C   UNL     1       2.841   4.524  18.456  0.00  0.00    +0.000 A 
ATOM     16  C   UNL     1       2.616   3.427  19.269  0.00  0.00    +0.000 A 
ATOM     17  N   UNL     1       2.063   3.484  20.496  0.00  0.00    +0.000 NA
ATOM     18  C   UNL     1       1.694   4.683  20.996  0.00  0.00    +0.000 A 
ATOM     19  C   UNL     1       1.885   5.836  20.239  0.00  0.00    +0.000 A 
ATOM     20  N   UNL     1       1.595   7.168  20.497  0.00  0.00    +0.000 N 
ATOM     21  C   UNL     1       1.947   7.927  19.402  0.00  0.00    +0.000 A 
ATOM     22  N   UNL     1       1.768   9.245  19.275  0.00  0.00    +0.000 NA
ATOM     23  N   UNL     1       1.641  13.377  18.491  0.00  0.00    +0.000 NA
ATOM     24  N   UNL     1       1.139  14.352  19.368  0.00  0.00    +0.000 NA
ATOM     25  C   UNL     1      -0.299  16.340  20.913  0.00  0.00    +0.000 C 
ATOM     26  C   UNL     1      -1.793  16.623  21.106  0.00  0.00    +0.000 C 
ATOM     27  H   UNL     1       2.502  11.472  17.096  0.00  0.00    +0.000 HD
ENDROOT
BRANCH  20  28
ATOM     28  C   UNL     1       0.974   7.710  21.698  0.00  0.00    +0.000 C 
ATOM     29  C   UNL     1       1.697   8.923  22.286  0.00  0.00    +0.000 C 
ATOM     30  C   UNL     1       0.664   9.582  23.188  0.00  0.00    +0.000 C 
ATOM     31  C   UNL     1      -0.704   9.221  22.616  0.00  0.00    +0.000 C 
ATOM     32  C   UNL     1      -0.474   8.176  21.525  0.00  0.00    +0.000 C 
ENDBRANCH  20  28
BRANCH   1  33
ATOM     33  N   UNL     1      -1.667  17.300  23.542  0.00  0.00    +0.000 NA
ATOM     34  H   UNL     1      -0.672  17.096  23.653  0.00  0.00    +0.000 HD
BRANCH  33  35
ATOM     35  C   UNL     1      -2.306  17.193  24.856  0.00  0.00    +0.000 C 
BRANCH  35  36
ATOM     36  C   UNL     1      -1.530  17.991  25.903  0.00  0.00    +0.000 C 
BRANCH  36  37
ATOM     37  C   UNL     1      -0.680  17.057  26.756  0.00  0.00    +0.000 C 
BRANCH  37  38
ATOM     38  O   UNL     1      -0.182  15.995  25.954  0.00  0.00    +0.000 OA
ATOM     39  H   UNL     1      -0.934  15.637  25.452  0.00  0.00    +0.000 HD
ENDBRANCH  37  38
ENDBRANCH  36  37
ENDBRANCH  35  36
ENDBRANCH  33  35
ENDBRANCH   1  33
TORSDOF 6
ENDMDL
MODEL 8
REMARK VINA RESULT:      -6.7      2.051      3.415
REMARK  Name = 
REMARK  6 active torsions:
REMARK  status: ('A' for Active; 'I' for Inactive)
REMARK    1  A    between atoms: O_1  and  C_2
REMARK    2  A    between atoms: C_2  and  C_3
REMARK    3  A    between atoms: C_3  and  C_4
REMARK    4  A    between atoms: C_4  and  N_5
REMARK    5  A    between atoms: N_5  and  C_6
REMARK    6  A    between atoms: N_25  and  C_26
REMARK                            x       y       z     vdW  Elec       q    Type
REMARK                         _______ _______ _______ _____ _____    ______ ____
ROOT
ATOM      1  C   UNL     1       2.793   5.472  17.639  0.00  0.00    +0.000 C 
ATOM      2  C   UNL     1       2.876   7.000  17.465  0.00  0.00    +0.000 C 
ATOM      3  C   UNL     1       3.286   7.687  18.766  0.00  0.00    +0.000 C 
ATOM      4  N   UNL     1       2.377   7.288  19.834  0.00  0.00    +0.000 N 
ATOM      5  C   UNL     1       1.516   8.160  20.462  0.00  0.00    +0.000 A 
ATOM      6  C   UNL     1       1.065   9.297  19.821  0.00  0.00    +0.000 A 
ATOM      7  C   UNL     1       0.264  10.215  20.487  0.00  0.00    +0.000 A 
ATOM      8  C   UNL     1      -0.072  10.033  21.817  0.00  0.00    +0.000 A 
ATOM      9  N   UNL     1      -0.774  10.994  22.541  0.00  0.00    +0.000 N 
ATOM     10  C   UNL     1      -0.850  12.368  22.327  0.00  0.00    +0.000 A 
ATOM     11  N   UNL     1      -1.610  13.068  23.193  0.00  0.00    +0.000 NA
ATOM     12  C   UNL     1      -1.778  14.397  22.998  0.00  0.00    +0.000 A 
ATOM     13  C   UNL     1      -1.171  15.025  21.913  0.00  0.00    +0.000 A 
ATOM     14  C   UNL     1      -1.142  16.332  21.352  0.00  0.00    +0.000 A 
ATOM     15  C   UNL     1      -1.756  17.548  21.688  0.00  0.00    +0.000 A 
ATOM     16  C   UNL     1      -1.498  18.627  20.861  0.00  0.00    +0.000 A 
ATOM     17  N   UNL     1      -0.706  18.584  19.772  0.00  0.00    +0.000 NA
ATOM     18  C   UNL     1      -0.108  17.421  19.439  0.00  0.00    +0.000 A 
ATOM     19  C   UNL     1      -0.318  16.287  20.219  0.00  0.00    +0.000 A 
ATOM     20  N   UNL     1       0.153  14.987  20.104  0.00  0.00    +0.000 N 
ATOM     21  C   UNL     1      -0.383  14.221  21.118  0.00  0.00    +0.000 A 
ATOM     22  N   UNL     1      -0.188  12.911  21.294  0.00  0.00    +0.000 NA
ATOM     23  N   UNL     1       0.299   8.884  22.408  0.00  0.00    +0.000 NA
ATOM     24  N   UNL     1       1.088   7.944  21.724  0.00  0.00    +0.000 NA
ATOM     25  C   UNL     1       2.302   5.862  20.113  0.00  0.00    +0.000 C 
ATOM     26  C   UNL     1       1.858   5.153  18.828  0.00  0.00    +0.000 C 
ATOM     27  H   UNL     1      -1.029  10.729  23.479  0.00  0.00    +0.000 HD
ENDROOT
BRANCH  20  28
ATOM     28  C   UNL     1       1.032  14.465  19.068  0.00  0.00    +0.000 C 
ATOM     29  C   UNL     1       2.498  14.348  19.488  0.00  0.00    +0.000 C 
ATOM     30  C   UNL     1       3.107  13.381  18.483  0.00  0.00    +0.000 C 
ATOM     31  C   UNL     1       1.970  12.483  18.004  0.00  0.00    +0.000 C 
ATOM     32  C   UNL     1       0.671  13.068  18.553  0.00  0.00    +0.000 C 
ENDBRANCH  20  28
BRANCH   1  33
ATOM     33  N   UNL     1       4.157   4.928  17.791  0.00  0.00    +0.000 NA
ATOM     34  H   UNL     1       4.834   5.682  17.667  0.00  0.00    +0.000 HD
BRANCH  33  35
ATOM     35  C   UNL     1       4.450   3.882  16.809  0.00  0.00    +0.000 C 
BRANCH  35  36
ATOM     36  C   UNL     1       5.731   4.203  16.040  0.00  0.00    +0.000 C 
BRANCH  36  37
ATOM     37  C   UNL     1       6.696   4.984  16.924  0.00  0.00    +0.000 C 
BRANCH  37  38
ATOM     38  O   UNL     1       7.257   4.119  17.902  0.00  0.00    +0.000 OA
ATOM     39  H   UNL     1       8.008   4.589  18.305  0.00  0.00    +0.000 HD
ENDBRANCH  37  38
ENDBRANCH  36  37
ENDBRANCH  35  36
ENDBRANCH  33  35
ENDBRANCH   1  33
TORSDOF 6
ENDMDL
MODEL 9
REMARK VINA RESULT:      -6.6      4.683     11.502
REMARK  Name = 
REMARK  6 active torsions:
REMARK  status: ('A' for Active; 'I' for Inactive)
REMARK    1  A    between atoms: O_1  and  C_2
REMARK    2  A    between atoms: C_2  and  C_3
REMARK    3  A    between atoms: C_3  and  C_4
REMARK    4  A    between atoms: C_4  and  N_5
REMARK    5  A    between atoms: N_5  and  C_6
REMARK    6  A    between atoms: N_25  and  C_26
REMARK                            x       y       z     vdW  Elec       q    Type
REMARK                         _______ _______ _______ _____ _____    ______ ____
ROOT
ATOM      1  C   UNL     1      -4.564  15.198  23.333  0.00  0.00    +0.000 C 
ATOM      2  C   UNL     1      -3.795  13.890  23.601  0.00  0.00    +0.000 C 
ATOM      3  C   UNL     1      -2.299  14.063  23.346  0.00  0.00    +0.000 C 
ATOM      4  N   UNL     1      -2.092  14.576  21.997  0.00  0.00    +0.000 N 
ATOM      5  C   UNL     1      -1.467  13.859  21.001  0.00  0.00    +0.000 A 
ATOM      6  C   UNL     1      -1.465  12.477  21.016  0.00  0.00    +0.000 A 
ATOM      7  C   UNL     1      -0.765  11.760  20.055  0.00  0.00    +0.000 A 
ATOM      8  C   UNL     1      -0.024  12.408  19.082  0.00  0.00    +0.000 A 
ATOM      9  N   UNL     1       0.781  11.716  18.180  0.00  0.00    +0.000 N 
ATOM     10  C   UNL     1       1.373  10.463  18.320  0.00  0.00    +0.000 A 
ATOM     11  N   UNL     1       2.112  10.031  17.279  0.00  0.00    +0.000 NA
ATOM     12  C   UNL     1       2.657   8.792  17.326  0.00  0.00    +0.000 A 
ATOM     13  C   UNL     1       2.451   7.982  18.439  0.00  0.00    +0.000 A 
ATOM     14  C   UNL     1       2.791   6.660  18.839  0.00  0.00    +0.000 A 
ATOM     15  C   UNL     1       3.490   5.608  18.227  0.00  0.00    +0.000 A 
ATOM     16  C   UNL     1       3.595   4.428  18.942  0.00  0.00    +0.000 A 
ATOM     17  N   UNL     1       3.078   4.229  20.170  0.00  0.00    +0.000 NA
ATOM     18  C   UNL     1       2.404   5.233  20.771  0.00  0.00    +0.000 A 
ATOM     19  C   UNL     1       2.253   6.453  20.117  0.00  0.00    +0.000 A 
ATOM     20  N   UNL     1       1.613   7.627  20.488  0.00  0.00    +0.000 N 
ATOM     21  C   UNL     1       1.716   8.541  19.463  0.00  0.00    +0.000 A 
ATOM     22  N   UNL     1       1.178   9.764  19.449  0.00  0.00    +0.000 NA
ATOM     23  N   UNL     1      -0.100  13.750  19.023  0.00  0.00    +0.000 NA
ATOM     24  N   UNL     1      -0.831  14.472  19.981  0.00  0.00    +0.000 NA
ATOM     25  C   UNL     1      -2.723  15.850  21.691  0.00  0.00    +0.000 C 
ATOM     26  C   UNL     1      -4.232  15.692  21.907  0.00  0.00    +0.000 C 
ATOM     27  H   UNL     1       1.219  12.279  17.469  0.00  0.00    +0.000 HD
ENDROOT
BRANCH  20  28
ATOM     28  C   UNL     1       0.896   7.874  21.731  0.00  0.00    +0.000 C 
ATOM     29  C   UNL     1       1.504   8.977  22.598  0.00  0.00    +0.000 C 
ATOM     30  C   UNL     1       0.384   9.379  23.547  0.00  0.00    +0.000 C 
ATOM     31  C   UNL     1      -0.924   9.070  22.825  0.00  0.00    +0.000 C 
ATOM     32  C   UNL     1      -0.569   8.287  21.563  0.00  0.00    +0.000 C 
ENDBRANCH  20  28
BRANCH   1  33
ATOM     33  N   UNL     1      -4.240  16.174  24.393  0.00  0.00    +0.000 NA
ATOM     34  H   UNL     1      -4.308  15.716  25.303  0.00  0.00    +0.000 HD
BRANCH  33  35
ATOM     35  C   UNL     1      -5.150  17.322  24.387  0.00  0.00    +0.000 C 
BRANCH  35  36
ATOM     36  C   UNL     1      -4.370  18.631  24.267  0.00  0.00    +0.000 C 
BRANCH  36  37
ATOM     37  C   UNL     1      -3.187  18.631  25.228  0.00  0.00    +0.000 C 
BRANCH  37  38
ATOM     38  O   UNL     1      -2.033  18.129  24.569  0.00  0.00    +0.000 OA
ATOM     39  H   UNL     1      -2.260  18.030  23.628  0.00  0.00    +0.000 HD
ENDBRANCH  37  38
ENDBRANCH  36  37
ENDBRANCH  35  36
ENDBRANCH  33  35
ENDBRANCH   1  33
TORSDOF 6
ENDMDL
