MODEL 1
REMARK VINA RESULT:      -8.5      0.000      0.000
REMARK  Name = 
REMARK  6 active torsions:
REMARK  status: ('A' for Active; 'I' for Inactive)
REMARK    1  A    between atoms: C_1  and  O_2
REMARK    2  A    between atoms: O_2  and  C_3
REMARK    3  A    between atoms: C_6  and  C_7
REMARK    4  A    between atoms: N_9  and  C_10
REMARK    5  A    between atoms: C_10  and  C_11
REMARK    6  A    between atoms: C_20  and  C_22
REMARK                            x       y       z     vdW  Elec       q    Type
REMARK                         _______ _______ _______ _____ _____    ______ ____
ROOT
ATOM      1  C   UNL     1       2.684   7.247  18.708  0.00  0.00    +0.000 A 
ATOM      2  C   UNL     1       3.131   7.663  17.435  0.00  0.00    +0.000 A 
ATOM      3  C   UNL     1       4.174   6.980  16.770  0.00  0.00    +0.000 A 
ATOM      4  C   UNL     1       4.757   5.878  17.388  0.00  0.00    +0.000 A 
ATOM      5  C   UNL     1       4.145   5.368  18.557  0.00  0.00    +0.000 A 
ATOM      6  C   UNL     1       3.092   6.008  19.200  0.00  0.00    +0.000 A 
ATOM      7  C   UNL     1       5.141   4.511  19.294  0.00  0.00    +0.000 C 
ATOM      8  C   UNL     1       6.331   5.411  18.993  0.00  0.00    +0.000 C 
ATOM      9  N   UNL     1       6.178   5.677  17.538  0.00  0.00    +0.000 N 
ATOM     10  C   UNL     1       7.048   4.888  16.762  0.00  0.00    +0.000 C 
ATOM     11  O   UNL     1       8.028   4.337  17.279  0.00  0.00    +0.000 OA
ENDROOT
BRANCH  10  12
ATOM     12  C   UNL     1       6.871   4.600  15.321  0.00  0.00    +0.000 A 
ATOM     13  C   UNL     1       5.860   3.797  14.811  0.00  0.00    +0.000 A 
ATOM     14  C   UNL     1       5.769   3.586  13.431  0.00  0.00    +0.000 A 
ATOM     15  C   UNL     1       6.657   4.217  12.557  0.00  0.00    +0.000 A 
ATOM     16  C   UNL     1       7.616   5.095  13.052  0.00  0.00    +0.000 A 
ATOM     17  C   UNL     1       7.718   5.287  14.427  0.00  0.00    +0.000 A 
ENDBRANCH  10  12
BRANCH   1  18
ATOM     18  C   UNL     1       2.040   8.230  19.665  0.00  0.00    +0.000 C 
BRANCH  18  21
ATOM     19  C   UNL     1       0.607  10.010  18.851  0.00  0.00    +0.000 C 
ATOM     20  O   UNL     1       1.557  10.794  18.794  0.00  0.00    +0.000 OA
ATOM     21  N   UNL     1       0.743   8.697  19.258  0.00  0.00    +0.000 N 
ATOM     22  H   UNL     1      -0.053   8.140  19.519  0.00  0.00    +0.000 HD
BRANCH  19  26
ATOM     23  C   UNL     1      -3.389  11.217  17.777  0.00  0.00    +0.000 A 
ATOM     24  C   UNL     1      -2.708  10.250  17.033  0.00  0.00    +0.000 A 
ATOM     25  C   UNL     1      -1.411   9.877  17.383  0.00  0.00    +0.000 A 
ATOM     26  C   UNL     1      -0.765  10.473  18.475  0.00  0.00    +0.000 A 
ATOM     27  C   UNL     1      -1.445  11.459  19.202  0.00  0.00    +0.000 A 
ATOM     28  C   UNL     1      -2.746  11.834  18.849  0.00  0.00    +0.000 A 
BRANCH  23  30
ATOM     29  C   UNL     1      -5.701  11.110  18.254  0.00  0.00    +0.000 C 
ATOM     30  O   UNL     1      -4.662  11.497  17.360  0.00  0.00    +0.000 OA
ENDBRANCH  23  30
ENDBRANCH  19  26
ENDBRANCH  18  21
ENDBRANCH   1  18
TORSDOF 5
ENDMDL
MODEL 2
REMARK VINA RESULT:      -8.4      0.132      1.272
REMARK  Name = 
REMARK  6 active torsions:
REMARK  status: ('A' for Active; 'I' for Inactive)
REMARK    1  A    between atoms: C_1  and  O_2
REMARK    2  A    between atoms: O_2  and  C_3
REMARK    3  A    between atoms: C_6  and  C_7
REMARK    4  A    between atoms: N_9  and  C_10
REMARK    5  A    between atoms: C_10  and  C_11
REMARK    6  A    between atoms: C_20  and  C_22
REMARK                            x       y       z     vdW  Elec       q    Type
REMARK                         _______ _______ _______ _____ _____    ______ ____
ROOT
ATOM      1  C   UNL     1       2.692   7.293  18.697  0.00  0.00    +0.000 A 
ATOM      2  C   UNL     1       3.189   7.761  17.462  0.00  0.00    +0.000 A 
ATOM      3  C   UNL     1       4.238   7.089  16.797  0.00  0.00    +0.000 A 
ATOM      4  C   UNL     1       4.777   5.944  17.376  0.00  0.00    +0.000 A 
ATOM      5  C   UNL     1       4.117   5.390  18.497  0.00  0.00    +0.000 A 
ATOM      6  C   UNL     1       3.057   6.021  19.138  0.00  0.00    +0.000 A 
ATOM      7  C   UNL     1       5.069   4.474  19.221  0.00  0.00    +0.000 C 
ATOM      8  C   UNL     1       6.288   5.361  19.003  0.00  0.00    +0.000 C 
ATOM      9  N   UNL     1       6.188   5.702  17.559  0.00  0.00    +0.000 N 
ATOM     10  C   UNL     1       7.065   4.934  16.772  0.00  0.00    +0.000 C 
ATOM     11  O   UNL     1       8.015   4.334  17.291  0.00  0.00    +0.000 OA
ENDROOT
BRANCH  10  12
ATOM     12  C   UNL     1       6.929   4.723  15.313  0.00  0.00    +0.000 A 
ATOM     13  C   UNL     1       7.762   5.302  14.366  0.00  0.00    +0.000 A 
ATOM     14  C   UNL     1       7.559   5.039  13.007  0.00  0.00    +0.000 A 
ATOM     15  C   UNL     1       6.554   4.159  12.597  0.00  0.00    +0.000 A 
ATOM     16  C   UNL     1       5.773   3.505  13.544  0.00  0.00    +0.000 A 
ATOM     17  C   UNL     1       5.964   3.783  14.895  0.00  0.00    +0.000 A 
ENDBRANCH  10  12
BRANCH   1  18
ATOM     18  C   UNL     1       2.038   8.241  19.683  0.00  0.00    +0.000 C 
BRANCH  18  21
ATOM     19  C   UNL     1       0.570   9.950  18.784  0.00  0.00    +0.000 C 
ATOM     20  O   UNL     1       1.519  10.716  18.599  0.00  0.00    +0.000 OA
ATOM     21  N   UNL     1       0.723   8.680  19.306  0.00  0.00    +0.000 N 
ATOM     22  H   UNL     1      -0.060   8.159  19.663  0.00  0.00    +0.000 HD
BRANCH  19  26
ATOM     23  C   UNL     1      -3.389  11.339  17.797  0.00  0.00    +0.000 A 
ATOM     24  C   UNL     1      -2.734  11.796  18.945  0.00  0.00    +0.000 A 
ATOM     25  C   UNL     1      -1.459  11.330  19.259  0.00  0.00    +0.000 A 
ATOM     26  C   UNL     1      -0.819  10.388  18.442  0.00  0.00    +0.000 A 
ATOM     27  C   UNL     1      -1.491   9.917  17.306  0.00  0.00    +0.000 A 
ATOM     28  C   UNL     1      -2.771  10.384  16.991  0.00  0.00    +0.000 A 
BRANCH  23  30
ATOM     29  C   UNL     1      -5.711  11.210  18.218  0.00  0.00    +0.000 C 
ATOM     30  O   UNL     1      -4.628  11.873  17.571  0.00  0.00    +0.000 OA
ENDBRANCH  23  30
ENDBRANCH  19  26
ENDBRANCH  18  21
ENDBRANCH   1  18
TORSDOF 5
ENDMDL
MODEL 3
REMARK VINA RESULT:      -8.3      0.639      1.101
REMARK  Name = 
REMARK  6 active torsions:
REMARK  status: ('A' for Active; 'I' for Inactive)
REMARK    1  A    between atoms: C_1  and  O_2
REMARK    2  A    between atoms: O_2  and  C_3
REMARK    3  A    between atoms: C_6  and  C_7
REMARK    4  A    between atoms: N_9  and  C_10
REMARK    5  A    between atoms: C_10  and  C_11
REMARK    6  A    between atoms: C_20  and  C_22
REMARK                            x       y       z     vdW  Elec       q    Type
REMARK                         _______ _______ _______ _____ _____    ______ ____
ROOT
ATOM      1  C   UNL     1       2.673   7.181  18.809  0.00  0.00    +0.000 A 
ATOM      2  C   UNL     1       3.164   7.678  17.583  0.00  0.00    +0.000 A 
ATOM      3  C   UNL     1       4.211   7.021  16.898  0.00  0.00    +0.000 A 
ATOM      4  C   UNL     1       4.751   5.863  17.449  0.00  0.00    +0.000 A 
ATOM      5  C   UNL     1       4.096   5.284  18.560  0.00  0.00    +0.000 A 
ATOM      6  C   UNL     1       3.040   5.900  19.220  0.00  0.00    +0.000 A 
ATOM      7  C   UNL     1       5.052   4.352  19.259  0.00  0.00    +0.000 C 
ATOM      8  C   UNL     1       6.270   5.244  19.056  0.00  0.00    +0.000 C 
ATOM      9  N   UNL     1       6.163   5.618  17.621  0.00  0.00    +0.000 N 
ATOM     10  C   UNL     1       7.038   4.867  16.813  0.00  0.00    +0.000 C 
ATOM     11  O   UNL     1       7.990   4.257  17.314  0.00  0.00    +0.000 OA
ENDROOT
BRANCH  10  12
ATOM     12  C   UNL     1       6.895   4.689  15.350  0.00  0.00    +0.000 A 
ATOM     13  C   UNL     1       7.729   5.283  14.413  0.00  0.00    +0.000 A 
ATOM     14  C   UNL     1       7.519   5.052  13.050  0.00  0.00    +0.000 A 
ATOM     15  C   UNL     1       6.508   4.188  12.624  0.00  0.00    +0.000 A 
ATOM     16  C   UNL     1       5.725   3.518  13.559  0.00  0.00    +0.000 A 
ATOM     17  C   UNL     1       5.922   3.766  14.915  0.00  0.00    +0.000 A 
ENDBRANCH  10  12
BRANCH   1  18
ATOM     18  C   UNL     1       2.023   8.107  19.819  0.00  0.00    +0.000 C 
BRANCH  18  21
ATOM     19  C   UNL     1       0.524  10.012  19.723  0.00  0.00    +0.000 C 
ATOM     20  O   UNL     1       1.311  10.707  20.371  0.00  0.00    +0.000 OA
ATOM     21  N   UNL     1       0.791   8.701  19.378  0.00  0.00    +0.000 N 
ATOM     22  H   UNL     1       0.066   8.082  19.058  0.00  0.00    +0.000 HD
BRANCH  19  26
ATOM     23  C   UNL     1      -3.306  11.542  18.470  0.00  0.00    +0.000 A 
ATOM     24  C   UNL     1      -2.714  10.462  17.809  0.00  0.00    +0.000 A 
ATOM     25  C   UNL     1      -1.469   9.984  18.216  0.00  0.00    +0.000 A 
ATOM     26  C   UNL     1      -0.786  10.584  19.282  0.00  0.00    +0.000 A 
ATOM     27  C   UNL     1      -1.374  11.682  19.924  0.00  0.00    +0.000 A 
ATOM     28  C   UNL     1      -2.623  12.162  19.515  0.00  0.00    +0.000 A 
BRANCH  23  30
ATOM     29  C   UNL     1      -4.770  11.675  16.620  0.00  0.00    +0.000 C 
ATOM     30  O   UNL     1      -4.535  11.920  18.004  0.00  0.00    +0.000 OA
ENDBRANCH  23  30
ENDBRANCH  19  26
ENDBRANCH  18  21
ENDBRANCH   1  18
TORSDOF 5
ENDMDL
MODEL 4
REMARK VINA RESULT:      -8.3      2.428      3.592
REMARK  Name = 
REMARK  6 active torsions:
REMARK  status: ('A' for Active; 'I' for Inactive)
REMARK    1  A    between atoms: C_1  and  O_2
REMARK    2  A    between atoms: O_2  and  C_3
REMARK    3  A    between atoms: C_6  and  C_7
REMARK    4  A    between atoms: N_9  and  C_10
REMARK    5  A    between atoms: C_10  and  C_11
REMARK    6  A    between atoms: C_20  and  C_22
REMARK                            x       y       z     vdW  Elec       q    Type
REMARK                         _______ _______ _______ _____ _____    ______ ____
ROOT
ATOM      1  C   UNL     1       4.143   4.202  18.783  0.00  0.00    +0.000 A 
ATOM      2  C   UNL     1       3.395   4.149  17.588  0.00  0.00    +0.000 A 
ATOM      3  C   UNL     1       4.033   4.175  16.328  0.00  0.00    +0.000 A 
ATOM      4  C   UNL     1       5.422   4.246  16.279  0.00  0.00    +0.000 A 
ATOM      5  C   UNL     1       6.141   4.084  17.486  0.00  0.00    +0.000 A 
ATOM      6  C   UNL     1       5.524   4.018  18.730  0.00  0.00    +0.000 A 
ATOM      7  C   UNL     1       7.533   4.631  17.303  0.00  0.00    +0.000 C 
ATOM      8  C   UNL     1       7.093   5.811  16.447  0.00  0.00    +0.000 C 
ATOM      9  N   UNL     1       6.169   5.177  15.469  0.00  0.00    +0.000 N 
ATOM     10  C   UNL     1       6.782   4.973  14.219  0.00  0.00    +0.000 C 
ATOM     11  O   UNL     1       7.819   5.577  13.920  0.00  0.00    +0.000 OA
ENDROOT
BRANCH  10  12
ATOM     12  C   UNL     1       6.307   4.020  13.190  0.00  0.00    +0.000 A 
ATOM     13  C   UNL     1       4.976   3.879  12.820  0.00  0.00    +0.000 A 
ATOM     14  C   UNL     1       4.623   2.954  11.833  0.00  0.00    +0.000 A 
ATOM     15  C   UNL     1       5.604   2.205  11.179  0.00  0.00    +0.000 A 
ATOM     16  C   UNL     1       6.948   2.404  11.480  0.00  0.00    +0.000 A 
ATOM     17  C   UNL     1       7.296   3.311  12.477  0.00  0.00    +0.000 A 
ENDBRANCH  10  12
BRANCH   1  18
ATOM     18  C   UNL     1       3.535   4.755  20.058  0.00  0.00    +0.000 C 
BRANCH  18  21
ATOM     19  C   UNL     1       1.904   6.522  20.385  0.00  0.00    +0.000 C 
ATOM     20  O   UNL     1       1.073   5.720  20.818  0.00  0.00    +0.000 OA
ATOM     21  N   UNL     1       3.175   6.144  19.993  0.00  0.00    +0.000 N 
ATOM     22  H   UNL     1       3.755   6.749  19.437  0.00  0.00    +0.000 HD
BRANCH  19  26
ATOM     23  C   UNL     1       0.800  10.664  19.940  0.00  0.00    +0.000 A 
ATOM     24  C   UNL     1       1.319   9.941  18.863  0.00  0.00    +0.000 A 
ATOM     25  C   UNL     1       1.684   8.605  19.023  0.00  0.00    +0.000 A 
ATOM     26  C   UNL     1       1.550   7.970  20.265  0.00  0.00    +0.000 A 
ATOM     27  C   UNL     1       1.052   8.708  21.347  0.00  0.00    +0.000 A 
ATOM     28  C   UNL     1       0.687  10.049  21.186  0.00  0.00    +0.000 A 
BRANCH  23  30
ATOM     29  C   UNL     1      -0.939  12.212  19.532  0.00  0.00    +0.000 C 
ATOM     30  O   UNL     1       0.457  11.961  19.673  0.00  0.00    +0.000 OA
ENDBRANCH  23  30
ENDBRANCH  19  26
ENDBRANCH  18  21
ENDBRANCH   1  18
TORSDOF 5
ENDMDL
MODEL 5
REMARK VINA RESULT:      -8.2      2.669     10.969
REMARK  Name = 
REMARK  6 active torsions:
REMARK  status: ('A' for Active; 'I' for Inactive)
REMARK    1  A    between atoms: C_1  and  O_2
REMARK    2  A    between atoms: O_2  and  C_3
REMARK    3  A    between atoms: C_6  and  C_7
REMARK    4  A    between atoms: N_9  and  C_10
REMARK    5  A    between atoms: C_10  and  C_11
REMARK    6  A    between atoms: C_20  and  C_22
REMARK                            x       y       z     vdW  Elec       q    Type
REMARK                         _______ _______ _______ _____ _____    ______ ____
ROOT
ATOM      1  C   UNL     1       0.021  10.135  18.497  0.00  0.00    +0.000 A 
ATOM      2  C   UNL     1      -0.507  11.000  19.477  0.00  0.00    +0.000 A 
ATOM      3  C   UNL     1      -1.861  11.402  19.441  0.00  0.00    +0.000 A 
ATOM      4  C   UNL     1      -2.677  10.923  18.421  0.00  0.00    +0.000 A 
ATOM      5  C   UNL     1      -2.171   9.899  17.588  0.00  0.00    +0.000 A 
ATOM      6  C   UNL     1      -0.851   9.466  17.639  0.00  0.00    +0.000 A 
ATOM      7  C   UNL     1      -2.989   9.850  16.323  0.00  0.00    +0.000 C 
ATOM      8  C   UNL     1      -3.149  11.361  16.217  0.00  0.00    +0.000 C 
ATOM      9  N   UNL     1      -3.535  11.744  17.601  0.00  0.00    +0.000 N 
ATOM     10  C   UNL     1      -4.918  11.976  17.720  0.00  0.00    +0.000 C 
ATOM     11  O   UNL     1      -5.612  12.172  16.714  0.00  0.00    +0.000 OA
ENDROOT
BRANCH  10  12
ATOM     12  C   UNL     1      -5.672  11.962  18.994  0.00  0.00    +0.000 A 
ATOM     13  C   UNL     1      -5.467  12.868  20.025  0.00  0.00    +0.000 A 
ATOM     14  C   UNL     1      -6.233  12.778  21.192  0.00  0.00    +0.000 A 
ATOM     15  C   UNL     1      -7.238  11.815  21.308  0.00  0.00    +0.000 A 
ATOM     16  C   UNL     1      -7.512  10.962  20.245  0.00  0.00    +0.000 A 
ATOM     17  C   UNL     1      -6.734  11.039  19.092  0.00  0.00    +0.000 A 
ENDBRANCH  10  12
BRANCH   1  18
ATOM     18  C   UNL     1       1.499  10.154  18.155  0.00  0.00    +0.000 C 
BRANCH  18  21
ATOM     19  C   UNL     1       2.188   7.952  18.904  0.00  0.00    +0.000 C 
ATOM     20  O   UNL     1       1.809   8.187  20.054  0.00  0.00    +0.000 OA
ATOM     21  N   UNL     1       2.063   8.863  17.873  0.00  0.00    +0.000 N 
ATOM     22  H   UNL     1       2.572   8.758  17.011  0.00  0.00    +0.000 HD
BRANCH  19  26
ATOM     23  C   UNL     1       3.882   4.104  17.952  0.00  0.00    +0.000 A 
ATOM     24  C   UNL     1       2.935   4.239  18.972  0.00  0.00    +0.000 A 
ATOM     25  C   UNL     1       2.404   5.490  19.278  0.00  0.00    +0.000 A 
ATOM     26  C   UNL     1       2.818   6.634  18.582  0.00  0.00    +0.000 A 
ATOM     27  C   UNL     1       3.786   6.495  17.577  0.00  0.00    +0.000 A 
ATOM     28  C   UNL     1       4.319   5.239  17.271  0.00  0.00    +0.000 A 
BRANCH  23  30
ATOM     29  C   UNL     1       3.393   1.793  18.006  0.00  0.00    +0.000 C 
ATOM     30  O   UNL     1       4.326   2.831  17.720  0.00  0.00    +0.000 OA
ENDBRANCH  23  30
ENDBRANCH  19  26
ENDBRANCH  18  21
ENDBRANCH   1  18
TORSDOF 5
ENDMDL
MODEL 6
REMARK VINA RESULT:      -8.1      1.994      2.581
REMARK  Name = 
REMARK  6 active torsions:
REMARK  status: ('A' for Active; 'I' for Inactive)
REMARK    1  A    between atoms: C_1  and  O_2
REMARK    2  A    between atoms: O_2  and  C_3
REMARK    3  A    between atoms: C_6  and  C_7
REMARK    4  A    between atoms: N_9  and  C_10
REMARK    5  A    between atoms: C_10  and  C_11
REMARK    6  A    between atoms: C_20  and  C_22
REMARK                            x       y       z     vdW  Elec       q    Type
REMARK                         _______ _______ _______ _____ _____    ______ ____
ROOT
ATOM      1  C   UNL     1       2.630   6.847  18.868  0.00  0.00    +0.000 A 
ATOM      2  C   UNL     1       3.098   7.416  17.665  0.00  0.00    +0.000 A 
ATOM      3  C   UNL     1       4.171   6.835  16.953  0.00  0.00    +0.000 A 
ATOM      4  C   UNL     1       4.762   5.679  17.454  0.00  0.00    +0.000 A 
ATOM      5  C   UNL     1       4.134   5.025  18.538  0.00  0.00    +0.000 A 
ATOM      6  C   UNL     1       3.053   5.566  19.224  0.00  0.00    +0.000 A 
ATOM      7  C   UNL     1       5.130   4.106  19.198  0.00  0.00    +0.000 C 
ATOM      8  C   UNL     1       6.308   5.058  19.034  0.00  0.00    +0.000 C 
ATOM      9  N   UNL     1       6.183   5.488  17.616  0.00  0.00    +0.000 N 
ATOM     10  C   UNL     1       7.089   4.811  16.777  0.00  0.00    +0.000 C 
ATOM     11  O   UNL     1       8.067   4.221  17.252  0.00  0.00    +0.000 OA
ENDROOT
BRANCH  10  12
ATOM     12  C   UNL     1       6.951   4.690  15.307  0.00  0.00    +0.000 A 
ATOM     13  C   UNL     1       7.798   5.308  14.397  0.00  0.00    +0.000 A 
ATOM     14  C   UNL     1       7.593   5.131  13.025  0.00  0.00    +0.000 A 
ATOM     15  C   UNL     1       6.573   4.296  12.563  0.00  0.00    +0.000 A 
ATOM     16  C   UNL     1       5.777   3.602  13.468  0.00  0.00    +0.000 A 
ATOM     17  C   UNL     1       5.970   3.796  14.833  0.00  0.00    +0.000 A 
ENDBRANCH  10  12
BRANCH   1  18
ATOM     18  C   UNL     1       1.942   7.699  19.917  0.00  0.00    +0.000 C 
BRANCH  18  21
ATOM     19  C   UNL     1       0.611   9.725  20.025  0.00  0.00    +0.000 C 
ATOM     20  O   UNL     1      -0.173   9.207  20.825  0.00  0.00    +0.000 OA
ATOM     21  N   UNL     1       1.714   9.062  19.522  0.00  0.00    +0.000 N 
ATOM     22  H   UNL     1       2.208   9.399  18.713  0.00  0.00    +0.000 HD
BRANCH  19  26
ATOM     23  C   UNL     1      -0.076  13.803  18.811  0.00  0.00    +0.000 A 
ATOM     24  C   UNL     1      -1.072  13.072  19.466  0.00  0.00    +0.000 A 
ATOM     25  C   UNL     1      -0.841  11.750  19.843  0.00  0.00    +0.000 A 
ATOM     26  C   UNL     1       0.382  11.128  19.560  0.00  0.00    +0.000 A 
ATOM     27  C   UNL     1       1.367  11.858  18.882  0.00  0.00    +0.000 A 
ATOM     28  C   UNL     1       1.135  13.185  18.503  0.00  0.00    +0.000 A 
BRANCH  23  30
ATOM     29  C   UNL     1      -0.678  15.943  19.612  0.00  0.00    +0.000 C 
ATOM     30  O   UNL     1      -0.398  15.096  18.501  0.00  0.00    +0.000 OA
ENDBRANCH  23  30
ENDBRANCH  19  26
ENDBRANCH  18  21
ENDBRANCH   1  18
TORSDOF 5
ENDMDL
MODEL 7
REMARK VINA RESULT:      -8.1      1.811      2.413
REMARK  Name = 
REMARK  6 active torsions:
REMARK  status: ('A' for Active; 'I' for Inactive)
REMARK    1  A    between atoms: C_1  and  O_2
REMARK    2  A    between atoms: O_2  and  C_3
REMARK    3  A    between atoms: C_6  and  C_7
REMARK    4  A    between atoms: N_9  and  C_10
REMARK    5  A    between atoms: C_10  and  C_11
REMARK    6  A    between atoms: C_20  and  C_22
REMARK                            x       y       z     vdW  Elec       q    Type
REMARK                         _______ _______ _______ _____ _____    ______ ____
ROOT
ATOM      1  C   UNL     1       2.612   6.645  19.060  0.00  0.00    +0.000 A 
ATOM      2  C   UNL     1       2.993   7.184  17.813  0.00  0.00    +0.000 A 
ATOM      3  C   UNL     1       4.059   6.626  17.073  0.00  0.00    +0.000 A 
ATOM      4  C   UNL     1       4.732   5.523  17.591  0.00  0.00    +0.000 A 
ATOM      5  C   UNL     1       4.190   4.886  18.732  0.00  0.00    +0.000 A 
ATOM      6  C   UNL     1       3.116   5.403  19.447  0.00  0.00    +0.000 A 
ATOM      7  C   UNL     1       5.261   4.047  19.378  0.00  0.00    +0.000 C 
ATOM      8  C   UNL     1       6.380   5.046  19.117  0.00  0.00    +0.000 C 
ATOM      9  N   UNL     1       6.167   5.408  17.691  0.00  0.00    +0.000 N 
ATOM     10  C   UNL     1       7.065   4.741  16.837  0.00  0.00    +0.000 C 
ATOM     11  O   UNL     1       8.093   4.221  17.286  0.00  0.00    +0.000 OA
ENDROOT
BRANCH  10  12
ATOM     12  C   UNL     1       6.865   4.550  15.382  0.00  0.00    +0.000 A 
ATOM     13  C   UNL     1       5.824   3.812  14.834  0.00  0.00    +0.000 A 
ATOM     14  C   UNL     1       5.714   3.691  13.445  0.00  0.00    +0.000 A 
ATOM     15  C   UNL     1       6.613   4.348  12.602  0.00  0.00    +0.000 A 
ATOM     16  C   UNL     1       7.604   5.163  13.140  0.00  0.00    +0.000 A 
ATOM     17  C   UNL     1       7.725   5.265  14.524  0.00  0.00    +0.000 A 
ENDBRANCH  10  12
BRANCH   1  18
ATOM     18  C   UNL     1       1.932   7.507  20.106  0.00  0.00    +0.000 C 
BRANCH  18  21
ATOM     19  C   UNL     1       0.575   9.512  20.273  0.00  0.00    +0.000 C 
ATOM     20  O   UNL     1      -0.087   9.027  21.194  0.00  0.00    +0.000 OA
ATOM     21  N   UNL     1       1.621   8.840  19.669  0.00  0.00    +0.000 N 
ATOM     22  H   UNL     1       1.999   9.139  18.786  0.00  0.00    +0.000 HD
BRANCH  19  26
ATOM     23  C   UNL     1      -0.225  13.469  18.765  0.00  0.00    +0.000 A 
ATOM     24  C   UNL     1       0.787  13.251  19.704  0.00  0.00    +0.000 A 
ATOM     25  C   UNL     1       1.028  11.968  20.193  0.00  0.00    +0.000 A 
ATOM     26  C   UNL     1       0.254  10.881  19.765  0.00  0.00    +0.000 A 
ATOM     27  C   UNL     1      -0.775  11.111  18.842  0.00  0.00    +0.000 A 
ATOM     28  C   UNL     1      -1.018  12.399  18.352  0.00  0.00    +0.000 A 
BRANCH  23  30
ATOM     29  C   UNL     1      -0.396  15.749  19.362  0.00  0.00    +0.000 C 
ATOM     30  O   UNL     1      -0.367  14.760  18.336  0.00  0.00    +0.000 OA
ENDBRANCH  23  30
ENDBRANCH  19  26
ENDBRANCH  18  21
ENDBRANCH   1  18
TORSDOF 5
ENDMDL
MODEL 8
REMARK VINA RESULT:      -8.0      2.558      3.798
REMARK  Name = 
REMARK  6 active torsions:
REMARK  status: ('A' for Active; 'I' for Inactive)
REMARK    1  A    between atoms: C_1  and  O_2
REMARK    2  A    between atoms: O_2  and  C_3
REMARK    3  A    between atoms: C_6  and  C_7
REMARK    4  A    between atoms: N_9  and  C_10
REMARK    5  A    between atoms: C_10  and  C_11
REMARK    6  A    between atoms: C_20  and  C_22
REMARK                            x       y       z     vdW  Elec       q    Type
REMARK                         _______ _______ _______ _____ _____    ______ ____
ROOT
ATOM      1  C   UNL     1       4.191   4.197  18.710  0.00  0.00    +0.000 A 
ATOM      2  C   UNL     1       3.452   4.156  17.509  0.00  0.00    +0.000 A 
ATOM      3  C   UNL     1       4.099   4.191  16.253  0.00  0.00    +0.000 A 
ATOM      4  C   UNL     1       5.488   4.259  16.215  0.00  0.00    +0.000 A 
ATOM      5  C   UNL     1       6.198   4.085  17.426  0.00  0.00    +0.000 A 
ATOM      6  C   UNL     1       5.572   4.010  18.665  0.00  0.00    +0.000 A 
ATOM      7  C   UNL     1       7.593   4.631  17.257  0.00  0.00    +0.000 C 
ATOM      8  C   UNL     1       7.162   5.820  16.409  0.00  0.00    +0.000 C 
ATOM      9  N   UNL     1       6.243   5.197  15.419  0.00  0.00    +0.000 N 
ATOM     10  C   UNL     1       6.864   5.002  14.171  0.00  0.00    +0.000 C 
ATOM     11  O   UNL     1       7.905   5.607  13.885  0.00  0.00    +0.000 OA
ENDROOT
BRANCH  10  12
ATOM     12  C   UNL     1       6.394   4.059  13.130  0.00  0.00    +0.000 A 
ATOM     13  C   UNL     1       7.214   3.136  12.496  0.00  0.00    +0.000 A 
ATOM     14  C   UNL     1       6.679   2.281  11.527  0.00  0.00    +0.000 A 
ATOM     15  C   UNL     1       5.315   2.314  11.227  0.00  0.00    +0.000 A 
ATOM     16  C   UNL     1       4.470   3.174  11.922  0.00  0.00    +0.000 A 
ATOM     17  C   UNL     1       5.009   4.038  12.872  0.00  0.00    +0.000 A 
ENDBRANCH  10  12
BRANCH   1  18
ATOM     18  C   UNL     1       3.576   4.740  19.985  0.00  0.00    +0.000 C 
BRANCH  18  21
ATOM     19  C   UNL     1       1.926   6.474  20.382  0.00  0.00    +0.000 C 
ATOM     20  O   UNL     1       1.145   5.663  20.885  0.00  0.00    +0.000 OA
ATOM     21  N   UNL     1       3.177   6.118  19.915  0.00  0.00    +0.000 N 
ATOM     22  H   UNL     1       3.706   6.724  19.310  0.00  0.00    +0.000 HD
BRANCH  19  26
ATOM     23  C   UNL     1       0.872  10.645  20.111  0.00  0.00    +0.000 A 
ATOM     24  C   UNL     1       0.768   9.956  21.323  0.00  0.00    +0.000 A 
ATOM     25  C   UNL     1       1.100   8.604  21.395  0.00  0.00    +0.000 A 
ATOM     26  C   UNL     1       1.529   7.911  20.255  0.00  0.00    +0.000 A 
ATOM     27  C   UNL     1       1.608   8.601  19.038  0.00  0.00    +0.000 A 
ATOM     28  C   UNL     1       1.273   9.958  18.966  0.00  0.00    +0.000 A 
BRANCH  23  30
ATOM     29  C   UNL     1      -0.857  12.253  20.202  0.00  0.00    +0.000 C 
ATOM     30  O   UNL     1       0.539  11.971  20.153  0.00  0.00    +0.000 OA
ENDBRANCH  23  30
ENDBRANCH  19  26
ENDBRANCH  18  21
ENDBRANCH   1  18
TORSDOF 5
ENDMDL
MODEL 9
REMARK VINA RESULT:      -7.9      4.317     10.448
REMARK  Name = 
REMARK  6 active torsions:
REMARK  status: ('A' for Active; 'I' for Inactive)
REMARK    1  A    between atoms: C_1  and  O_2
REMARK    2  A    between atoms: O_2  and  C_3
REMARK    3  A    between atoms: C_6  and  C_7
REMARK    4  A    between atoms: N_9  and  C_10
REMARK    5  A    between atoms: C_10  and  C_11
REMARK    6  A    between atoms: C_20  and  C_22
REMARK                            x       y       z     vdW  Elec       q    Type
REMARK                         _______ _______ _______ _____ _____    ______ ____
ROOT
ATOM      1  C   UNL     1       1.084  11.263  18.675  0.00  0.00    +0.000 A 
ATOM      2  C   UNL     1      -0.003  12.136  18.892  0.00  0.00    +0.000 A 
ATOM      3  C   UNL     1       0.164  13.538  18.828  0.00  0.00    +0.000 A 
ATOM      4  C   UNL     1       1.424  14.051  18.538  0.00  0.00    +0.000 A 
ATOM      5  C   UNL     1       2.431  13.152  18.121  0.00  0.00    +0.000 A 
ATOM      6  C   UNL     1       2.268  11.771  18.142  0.00  0.00    +0.000 A 
ATOM      7  C   UNL     1       3.776  13.808  18.297  0.00  0.00    +0.000 C 
ATOM      8  C   UNL     1       3.408  14.502  19.601  0.00  0.00    +0.000 C 
ATOM      9  N   UNL     1       2.079  15.094  19.291  0.00  0.00    +0.000 N 
ATOM     10  C   UNL     1       2.165  16.470  19.012  0.00  0.00    +0.000 C 
ATOM     11  O   UNL     1       3.166  17.118  19.342  0.00  0.00    +0.000 OA
ENDROOT
BRANCH  10  12
ATOM     12  C   UNL     1       1.141  17.250  18.280  0.00  0.00    +0.000 A 
ATOM     13  C   UNL     1       1.378  17.901  17.077  0.00  0.00    +0.000 A 
ATOM     14  C   UNL     1       0.346  18.611  16.455  0.00  0.00    +0.000 A 
ATOM     15  C   UNL     1      -0.936  18.630  17.010  0.00  0.00    +0.000 A 
ATOM     16  C   UNL     1      -1.205  17.906  18.167  0.00  0.00    +0.000 A 
ATOM     17  C   UNL     1      -0.171  17.217  18.796  0.00  0.00    +0.000 A 
ENDBRANCH  10  12
BRANCH   1  18
ATOM     18  C   UNL     1       1.102   9.876  19.288  0.00  0.00    +0.000 C 
BRANCH  18  21
ATOM     19  C   UNL     1       2.170   7.705  19.118  0.00  0.00    +0.000 C 
ATOM     20  O   UNL     1       1.898   7.441  20.292  0.00  0.00    +0.000 OA
ATOM     21  N   UNL     1       1.802   8.891  18.511  0.00  0.00    +0.000 N 
ATOM     22  H   UNL     1       2.218   9.191  17.646  0.00  0.00    +0.000 HD
BRANCH  19  26
ATOM     23  C   UNL     1       4.484   4.909  16.792  0.00  0.00    +0.000 A 
ATOM     24  C   UNL     1       4.738   6.282  16.723  0.00  0.00    +0.000 A 
ATOM     25  C   UNL     1       3.974   7.177  17.471  0.00  0.00    +0.000 A 
ATOM     26  C   UNL     1       2.934   6.719  18.291  0.00  0.00    +0.000 A 
ATOM     27  C   UNL     1       2.669   5.344  18.336  0.00  0.00    +0.000 A 
ATOM     28  C   UNL     1       3.435   4.446  17.585  0.00  0.00    +0.000 A 
BRANCH  23  30
ATOM     29  C   UNL     1       6.334   4.797  15.325  0.00  0.00    +0.000 C 
ATOM     30  O   UNL     1       5.301   4.117  16.033  0.00  0.00    +0.000 OA
ENDBRANCH  23  30
ENDBRANCH  19  26
ENDBRANCH  18  21
ENDBRANCH   1  18
TORSDOF 5
ENDMDL
