MODEL 1
REMARK VINA RESULT:      -8.5      0.000      0.000
REMARK  Name = 
REMARK  2 active torsions:
REMARK  status: ('A' for Active; 'I' for Inactive)
REMARK    1  A    between atoms: C_1  and  C_2
REMARK    2  A    between atoms: C_5  and  C_6
REMARK                            x       y       z     vdW  Elec       q    Type
REMARK                         _______ _______ _______ _____ _____    ______ ____
ROOT
ATOM      1  C   UNL     1       3.340   6.026  19.114  0.00  0.00    +0.000 C 
ATOM      2  C   UNL     1       4.575   6.219  18.217  0.00  0.00    +0.000 C 
ATOM      3  C   UNL     1       4.568   5.414  16.940  0.00  0.00    +0.000 C 
ATOM      4  O   UNL     1       5.262   5.708  15.972  0.00  0.00    +0.000 OA
ATOM      5  N   UNL     1       3.840   4.255  16.948  0.00  0.00    +0.000 N 
ATOM      6  C   UNL     1       2.916   3.880  17.895  0.00  0.00    +0.000 C 
ATOM      7  C   UNL     1       2.602   4.722  18.889  0.00  0.00    +0.000 C 
ATOM      8  C   UNL     1       1.559   4.322  19.872  0.00  0.00    +0.000 C 
ATOM      9  O   UNL     1       1.307   5.043  20.838  0.00  0.00    +0.000 OA
ATOM     10  C   UNL     1       0.774   3.046  19.686  0.00  0.00    +0.000 C 
ATOM     11  C   UNL     1       1.284   2.040  18.674  0.00  0.00    +0.000 C 
ATOM     12  C   UNL     1       2.357   2.501  17.702  0.00  0.00    +0.000 C 
ATOM     13  H   UNL     1       3.985   3.671  16.130  0.00  0.00    +0.000 HD
ENDROOT
BRANCH   1  18
ATOM     14  C   UNL     1       0.048  10.885  18.971  0.00  0.00    +0.000 C 
ATOM     15  C   UNL     1       0.865   9.626  19.058  0.00  0.00    +0.000 A 
ATOM     16  C   UNL     1       1.429   9.106  17.887  0.00  0.00    +0.000 A 
ATOM     17  C   UNL     1       2.215   7.952  17.928  0.00  0.00    +0.000 A 
ATOM     18  C   UNL     1       2.471   7.282  19.136  0.00  0.00    +0.000 A 
ATOM     19  C   UNL     1       1.897   7.791  20.307  0.00  0.00    +0.000 A 
ATOM     20  C   UNL     1       1.098   8.947  20.265  0.00  0.00    +0.000 A 
ATOM     21 BR   UNL     1       0.343   9.547  21.903  0.00  0.00    +0.000 Br
ENDBRANCH   1  18
TORSDOF 1
ENDMDL
MODEL 2
REMARK VINA RESULT:      -7.7      3.329      4.943
REMARK  Name = 
REMARK  2 active torsions:
REMARK  status: ('A' for Active; 'I' for Inactive)
REMARK    1  A    between atoms: C_1  and  C_2
REMARK    2  A    between atoms: C_5  and  C_6
REMARK                            x       y       z     vdW  Elec       q    Type
REMARK                         _______ _______ _______ _____ _____    ______ ____
ROOT
ATOM      1  C   UNL     1       6.177   4.756  18.273  0.00  0.00    +0.000 C 
ATOM      2  C   UNL     1       7.232   5.683  18.899  0.00  0.00    +0.000 C 
ATOM      3  C   UNL     1       7.743   6.773  17.990  0.00  0.00    +0.000 C 
ATOM      4  O   UNL     1       8.289   7.786  18.417  0.00  0.00    +0.000 OA
ATOM      5  N   UNL     1       7.686   6.530  16.645  0.00  0.00    +0.000 N 
ATOM      6  C   UNL     1       6.984   5.520  16.029  0.00  0.00    +0.000 C 
ATOM      7  C   UNL     1       6.203   4.711  16.758  0.00  0.00    +0.000 C 
ATOM      8  C   UNL     1       5.407   3.660  16.069  0.00  0.00    +0.000 C 
ATOM      9  O   UNL     1       4.743   2.855  16.722  0.00  0.00    +0.000 OA
ATOM     10  C   UNL     1       5.376   3.583  14.561  0.00  0.00    +0.000 C 
ATOM     11  C   UNL     1       6.408   4.379  13.788  0.00  0.00    +0.000 C 
ATOM     12  C   UNL     1       7.199   5.431  14.547  0.00  0.00    +0.000 C 
ATOM     13  H   UNL     1       8.176   7.217  16.080  0.00  0.00    +0.000 HD
ENDROOT
BRANCH   1  18
ATOM     14  C   UNL     1       0.895   5.822  20.603  0.00  0.00    +0.000 C 
ATOM     15  C   UNL     1       2.239   5.491  20.016  0.00  0.00    +0.000 A 
ATOM     16  C   UNL     1       2.840   6.411  19.149  0.00  0.00    +0.000 A 
ATOM     17  C   UNL     1       4.099   6.154  18.601  0.00  0.00    +0.000 A 
ATOM     18  C   UNL     1       4.804   4.976  18.904  0.00  0.00    +0.000 A 
ATOM     19  C   UNL     1       4.199   4.048  19.759  0.00  0.00    +0.000 A 
ATOM     20  C   UNL     1       2.927   4.302  20.303  0.00  0.00    +0.000 A 
ATOM     21 BR   UNL     1       2.179   2.970  21.434  0.00  0.00    +0.000 Br
ENDBRANCH   1  18
TORSDOF 1
ENDMDL
MODEL 3
REMARK VINA RESULT:      -7.5      1.581      3.691
REMARK  Name = 
REMARK  2 active torsions:
REMARK  status: ('A' for Active; 'I' for Inactive)
REMARK    1  A    between atoms: C_1  and  C_2
REMARK    2  A    between atoms: C_5  and  C_6
REMARK                            x       y       z     vdW  Elec       q    Type
REMARK                         _______ _______ _______ _____ _____    ______ ____
ROOT
ATOM      1  C   UNL     1       2.990   5.824  18.040  0.00  0.00    +0.000 C 
ATOM      2  C   UNL     1       2.298   4.610  18.682  0.00  0.00    +0.000 C 
ATOM      3  C   UNL     1       3.129   3.869  19.702  0.00  0.00    +0.000 C 
ATOM      4  O   UNL     1       2.630   3.132  20.548  0.00  0.00    +0.000 OA
ATOM      5  N   UNL     1       4.487   3.952  19.567  0.00  0.00    +0.000 N 
ATOM      6  C   UNL     1       5.174   4.838  18.769  0.00  0.00    +0.000 C 
ATOM      7  C   UNL     1       4.505   5.781  18.092  0.00  0.00    +0.000 C 
ATOM      8  C   UNL     1       5.268   6.766  17.279  0.00  0.00    +0.000 C 
ATOM      9  O   UNL     1       4.674   7.594  16.587  0.00  0.00    +0.000 OA
ATOM     10  C   UNL     1       6.777   6.787  17.312  0.00  0.00    +0.000 C 
ATOM     11  C   UNL     1       7.490   5.600  17.926  0.00  0.00    +0.000 C 
ATOM     12  C   UNL     1       6.657   4.620  18.737  0.00  0.00    +0.000 C 
ATOM     13  H   UNL     1       5.002   3.321  20.173  0.00  0.00    +0.000 HD
ENDROOT
BRANCH   1  18
ATOM     14  C   UNL     1       0.536  10.931  19.578  0.00  0.00    +0.000 C 
ATOM     15  C   UNL     1       1.146   9.600  19.235  0.00  0.00    +0.000 A 
ATOM     16  C   UNL     1       1.386   9.294  17.890  0.00  0.00    +0.000 A 
ATOM     17  C   UNL     1       1.974   8.080  17.531  0.00  0.00    +0.000 A 
ATOM     18  C   UNL     1       2.350   7.132  18.498  0.00  0.00    +0.000 A 
ATOM     19  C   UNL     1       2.099   7.428  19.843  0.00  0.00    +0.000 A 
ATOM     20  C   UNL     1       1.497   8.647  20.205  0.00  0.00    +0.000 A 
ATOM     21 BR   UNL     1       1.175   8.947  22.054  0.00  0.00    +0.000 Br
ENDBRANCH   1  18
TORSDOF 1
ENDMDL
MODEL 4
REMARK VINA RESULT:      -7.4      3.078      5.144
REMARK  Name = 
REMARK  2 active torsions:
REMARK  status: ('A' for Active; 'I' for Inactive)
REMARK    1  A    between atoms: C_1  and  C_2
REMARK    2  A    between atoms: C_5  and  C_6
REMARK                            x       y       z     vdW  Elec       q    Type
REMARK                         _______ _______ _______ _____ _____    ______ ____
ROOT
ATOM      1  C   UNL     1       2.697   5.183  18.013  0.00  0.00    +0.000 C 
ATOM      2  C   UNL     1       2.100   6.588  18.200  0.00  0.00    +0.000 C 
ATOM      3  C   UNL     1       2.097   7.096  19.622  0.00  0.00    +0.000 C 
ATOM      4  O   UNL     1       2.004   8.289  19.895  0.00  0.00    +0.000 OA
ATOM      5  N   UNL     1       2.078   6.153  20.613  0.00  0.00    +0.000 N 
ATOM      6  C   UNL     1       2.319   4.807  20.460  0.00  0.00    +0.000 C 
ATOM      7  C   UNL     1       2.686   4.327  19.264  0.00  0.00    +0.000 C 
ATOM      8  C   UNL     1       2.998   2.878  19.131  0.00  0.00    +0.000 C 
ATOM      9  O   UNL     1       3.261   2.398  18.028  0.00  0.00    +0.000 OA
ATOM     10  C   UNL     1       3.026   1.982  20.346  0.00  0.00    +0.000 C 
ATOM     11  C   UNL     1       2.425   2.511  21.632  0.00  0.00    +0.000 C 
ATOM     12  C   UNL     1       2.117   3.998  21.706  0.00  0.00    +0.000 C 
ATOM     13  H   UNL     1       1.923   6.532  21.541  0.00  0.00    +0.000 HD
ENDROOT
BRANCH   1  18
ATOM     14  C   UNL     1       7.739   5.234  15.006  0.00  0.00    +0.000 C 
ATOM     15  C   UNL     1       6.461   5.275  15.796  0.00  0.00    +0.000 A 
ATOM     16  C   UNL     1       5.407   4.435  15.418  0.00  0.00    +0.000 A 
ATOM     17  C   UNL     1       4.212   4.424  16.139  0.00  0.00    +0.000 A 
ATOM     18  C   UNL     1       4.028   5.244  17.266  0.00  0.00    +0.000 A 
ATOM     19  C   UNL     1       5.074   6.095  17.640  0.00  0.00    +0.000 A 
ATOM     20  C   UNL     1       6.274   6.114  16.907  0.00  0.00    +0.000 A 
ATOM     21 BR   UNL     1       7.627   7.321  17.476  0.00  0.00    +0.000 Br
ENDBRANCH   1  18
TORSDOF 1
ENDMDL
MODEL 5
REMARK VINA RESULT:      -7.3      2.929      4.545
REMARK  Name = 
REMARK  2 active torsions:
REMARK  status: ('A' for Active; 'I' for Inactive)
REMARK    1  A    between atoms: C_1  and  C_2
REMARK    2  A    between atoms: C_5  and  C_6
REMARK                            x       y       z     vdW  Elec       q    Type
REMARK                         _______ _______ _______ _____ _____    ______ ____
ROOT
ATOM      1  C   UNL     1       5.899   4.969  18.425  0.00  0.00    +0.000 C 
ATOM      2  C   UNL     1       7.048   5.775  19.056  0.00  0.00    +0.000 C 
ATOM      3  C   UNL     1       7.758   6.716  18.113  0.00  0.00    +0.000 C 
ATOM      4  O   UNL     1       8.426   7.667  18.510  0.00  0.00    +0.000 OA
ATOM      5  N   UNL     1       7.733   6.392  16.784  0.00  0.00    +0.000 N 
ATOM      6  C   UNL     1       6.921   5.454  16.190  0.00  0.00    +0.000 C 
ATOM      7  C   UNL     1       5.994   4.817  16.920  0.00  0.00    +0.000 C 
ATOM      8  C   UNL     1       5.087   3.848  16.249  0.00  0.00    +0.000 C 
ATOM      9  O   UNL     1       4.280   3.193  16.910  0.00  0.00    +0.000 OA
ATOM     10  C   UNL     1       5.120   3.673  14.750  0.00  0.00    +0.000 C 
ATOM     11  C   UNL     1       6.295   4.256  13.992  0.00  0.00    +0.000 C 
ATOM     12  C   UNL     1       7.194   5.234  14.732  0.00  0.00    +0.000 C 
ATOM     13  H   UNL     1       8.346   6.961  16.209  0.00  0.00    +0.000 HD
ENDROOT
BRANCH   1  18
ATOM     14  C   UNL     1       0.678   6.535  20.605  0.00  0.00    +0.000 C 
ATOM     15  C   UNL     1       2.023   6.190  20.030  0.00  0.00    +0.000 A 
ATOM     16  C   UNL     1       2.686   5.050  20.500  0.00  0.00    +0.000 A 
ATOM     17  C   UNL     1       3.925   4.680  19.975  0.00  0.00    +0.000 A 
ATOM     18  C   UNL     1       4.544   5.428  18.959  0.00  0.00    +0.000 A 
ATOM     19  C   UNL     1       3.891   6.576  18.495  0.00  0.00    +0.000 A 
ATOM     20  C   UNL     1       2.647   6.955  19.031  0.00  0.00    +0.000 A 
ATOM     21 BR   UNL     1       1.851   8.542  18.355  0.00  0.00    +0.000 Br
ENDBRANCH   1  18
TORSDOF 1
ENDMDL
MODEL 6
REMARK VINA RESULT:      -7.3      1.928      3.925
REMARK  Name = 
REMARK  2 active torsions:
REMARK  status: ('A' for Active; 'I' for Inactive)
REMARK    1  A    between atoms: C_1  and  C_2
REMARK    2  A    between atoms: C_5  and  C_6
REMARK                            x       y       z     vdW  Elec       q    Type
REMARK                         _______ _______ _______ _____ _____    ______ ____
ROOT
ATOM      1  C   UNL     1       3.077   5.579  17.679  0.00  0.00    +0.000 C 
ATOM      2  C   UNL     1       2.394   4.203  17.762  0.00  0.00    +0.000 C 
ATOM      3  C   UNL     1       3.243   3.105  18.355  0.00  0.00    +0.000 C 
ATOM      4  O   UNL     1       2.759   2.077  18.820  0.00  0.00    +0.000 OA
ATOM      5  N   UNL     1       4.599   3.244  18.241  0.00  0.00    +0.000 N 
ATOM      6  C   UNL     1       5.272   4.389  17.878  0.00  0.00    +0.000 C 
ATOM      7  C   UNL     1       4.592   5.526  17.678  0.00  0.00    +0.000 C 
ATOM      8  C   UNL     1       5.342   6.766  17.343  0.00  0.00    +0.000 C 
ATOM      9  O   UNL     1       4.737   7.806  17.078  0.00  0.00    +0.000 OA
ATOM     10  C   UNL     1       6.852   6.780  17.351  0.00  0.00    +0.000 C 
ATOM     11  C   UNL     1       7.573   5.448  17.390  0.00  0.00    +0.000 C 
ATOM     12  C   UNL     1       6.754   4.213  17.728  0.00  0.00    +0.000 C 
ATOM     13  H   UNL     1       5.124   2.419  18.513  0.00  0.00    +0.000 HD
ENDROOT
BRANCH   1  18
ATOM     14  C   UNL     1       0.662   9.204  21.614  0.00  0.00    +0.000 C 
ATOM     15  C   UNL     1       1.297   8.323  20.575  0.00  0.00    +0.000 A 
ATOM     16  C   UNL     1       1.676   7.023  20.933  0.00  0.00    +0.000 A 
ATOM     17  C   UNL     1       2.245   6.164  19.991  0.00  0.00    +0.000 A 
ATOM     18  C   UNL     1       2.451   6.567  18.660  0.00  0.00    +0.000 A 
ATOM     19  C   UNL     1       2.086   7.870  18.302  0.00  0.00    +0.000 A 
ATOM     20  C   UNL     1       1.522   8.739  19.253  0.00  0.00    +0.000 A 
ATOM     21 BR   UNL     1       1.082  10.496  18.677  0.00  0.00    +0.000 Br
ENDBRANCH   1  18
TORSDOF 1
ENDMDL
MODEL 7
REMARK VINA RESULT:      -7.3      3.252      5.194
REMARK  Name = 
REMARK  2 active torsions:
REMARK  status: ('A' for Active; 'I' for Inactive)
REMARK    1  A    between atoms: C_1  and  C_2
REMARK    2  A    between atoms: C_5  and  C_6
REMARK                            x       y       z     vdW  Elec       q    Type
REMARK                         _______ _______ _______ _____ _____    ______ ____
ROOT
ATOM      1  C   UNL     1       6.410   4.619  18.130  0.00  0.00    +0.000 C 
ATOM      2  C   UNL     1       7.386   5.598  18.803  0.00  0.00    +0.000 C 
ATOM      3  C   UNL     1       7.779   6.787  17.960  0.00  0.00    +0.000 C 
ATOM      4  O   UNL     1       8.236   7.818  18.447  0.00  0.00    +0.000 OA
ATOM      5  N   UNL     1       7.722   6.626  16.603  0.00  0.00    +0.000 N 
ATOM      6  C   UNL     1       7.106   5.595  15.931  0.00  0.00    +0.000 C 
ATOM      7  C   UNL     1       6.416   4.672  16.614  0.00  0.00    +0.000 C 
ATOM      8  C   UNL     1       5.709   3.598  15.867  0.00  0.00    +0.000 C 
ATOM      9  O   UNL     1       5.134   2.694  16.474  0.00  0.00    +0.000 OA
ATOM     10  C   UNL     1       5.660   3.614  14.358  0.00  0.00    +0.000 C 
ATOM     11  C   UNL     1       6.602   4.549  13.627  0.00  0.00    +0.000 C 
ATOM     12  C   UNL     1       7.305   5.621  14.445  0.00  0.00    +0.000 C 
ATOM     13  H   UNL     1       8.137   7.389  16.079  0.00  0.00    +0.000 HD
ENDROOT
BRANCH   1  18
ATOM     14  C   UNL     1       1.127   4.580  20.688  0.00  0.00    +0.000 C 
ATOM     15  C   UNL     1       2.483   4.648  20.041  0.00  0.00    +0.000 A 
ATOM     16  C   UNL     1       3.259   3.485  19.979  0.00  0.00    +0.000 A 
ATOM     17  C   UNL     1       4.513   3.499  19.366  0.00  0.00    +0.000 A 
ATOM     18  C   UNL     1       5.033   4.670  18.787  0.00  0.00    +0.000 A 
ATOM     19  C   UNL     1       4.266   5.838  18.859  0.00  0.00    +0.000 A 
ATOM     20  C   UNL     1       3.007   5.827  19.487  0.00  0.00    +0.000 A 
ATOM     21 BR   UNL     1       2.051   7.468  19.556  0.00  0.00    +0.000 Br
ENDBRANCH   1  18
TORSDOF 1
ENDMDL
MODEL 8
REMARK VINA RESULT:      -7.0      4.077      7.512
REMARK  Name = 
REMARK  2 active torsions:
REMARK  status: ('A' for Active; 'I' for Inactive)
REMARK    1  A    between atoms: C_1  and  C_2
REMARK    2  A    between atoms: C_5  and  C_6
REMARK                            x       y       z     vdW  Elec       q    Type
REMARK                         _______ _______ _______ _____ _____    ______ ____
ROOT
ATOM      1  C   UNL     1      -0.366  10.593  19.368  0.00  0.00    +0.000 C 
ATOM      2  C   UNL     1      -1.622  10.389  18.504  0.00  0.00    +0.000 C 
ATOM      3  C   UNL     1      -1.847  11.442  17.447  0.00  0.00    +0.000 C 
ATOM      4  O   UNL     1      -2.562  11.249  16.467  0.00  0.00    +0.000 OA
ATOM      5  N   UNL     1      -1.317  12.679  17.687  0.00  0.00    +0.000 N 
ATOM      6  C   UNL     1      -0.391  12.994  18.655  0.00  0.00    +0.000 C 
ATOM      7  C   UNL     1       0.134  12.024  19.416  0.00  0.00    +0.000 C 
ATOM      8  C   UNL     1       1.176  12.375  20.418  0.00  0.00    +0.000 C 
ATOM      9  O   UNL     1       1.617  11.516  21.182  0.00  0.00    +0.000 OA
ATOM     10  C   UNL     1       1.729  13.778  20.495  0.00  0.00    +0.000 C 
ATOM     11  C   UNL     1       0.984  14.876  19.763  0.00  0.00    +0.000 C 
ATOM     12  C   UNL     1      -0.077  14.457  18.758  0.00  0.00    +0.000 C 
ATOM     13  H   UNL     1      -1.619  13.393  17.031  0.00  0.00    +0.000 HD
ENDROOT
BRANCH   1  18
ATOM     14  C   UNL     1       3.748   6.633  18.004  0.00  0.00    +0.000 C 
ATOM     15  C   UNL     1       2.696   7.629  18.409  0.00  0.00    +0.000 A 
ATOM     16  C   UNL     1       2.503   8.766  17.616  0.00  0.00    +0.000 A 
ATOM     17  C   UNL     1       1.520   9.702  17.943  0.00  0.00    +0.000 A 
ATOM     18  C   UNL     1       0.692   9.534  19.066  0.00  0.00    +0.000 A 
ATOM     19  C   UNL     1       0.891   8.405  19.869  0.00  0.00    +0.000 A 
ATOM     20  C   UNL     1       1.888   7.467  19.546  0.00  0.00    +0.000 A 
ATOM     21 BR   UNL     1       2.098   5.979  20.710  0.00  0.00    +0.000 Br
ENDBRANCH   1  18
TORSDOF 1
ENDMDL
MODEL 9
REMARK VINA RESULT:      -7.0      3.913      6.709
REMARK  Name = 
REMARK  2 active torsions:
REMARK  status: ('A' for Active; 'I' for Inactive)
REMARK    1  A    between atoms: C_1  and  C_2
REMARK    2  A    between atoms: C_5  and  C_6
REMARK                            x       y       z     vdW  Elec       q    Type
REMARK                         _______ _______ _______ _____ _____    ______ ____
ROOT
ATOM      1  C   UNL     1       5.015   4.405  17.135  0.00  0.00    +0.000 C 
ATOM      2  C   UNL     1       4.523   3.006  17.544  0.00  0.00    +0.000 C 
ATOM      3  C   UNL     1       3.024   2.861  17.643  0.00  0.00    +0.000 C 
ATOM      4  O   UNL     1       2.463   1.770  17.597  0.00  0.00    +0.000 OA
ATOM      5  N   UNL     1       2.313   3.997  17.916  0.00  0.00    +0.000 N 
ATOM      6  C   UNL     1       2.785   5.288  17.854  0.00  0.00    +0.000 C 
ATOM      7  C   UNL     1       4.030   5.522  17.419  0.00  0.00    +0.000 C 
ATOM      8  C   UNL     1       4.504   6.927  17.304  0.00  0.00    +0.000 C 
ATOM      9  O   UNL     1       5.668   7.166  16.982  0.00  0.00    +0.000 OA
ATOM     10  C   UNL     1       3.561   8.080  17.551  0.00  0.00    +0.000 C 
ATOM     11  C   UNL     1       2.235   7.782  18.220  0.00  0.00    +0.000 C 
ATOM     12  C   UNL     1       1.807   6.327  18.318  0.00  0.00    +0.000 C 
ATOM     13  H   UNL     1       1.333   3.831  18.126  0.00  0.00    +0.000 HD
ENDROOT
BRANCH   1  18
ATOM     14  C   UNL     1       7.504   4.467  11.819  0.00  0.00    +0.000 C 
ATOM     15  C   UNL     1       6.829   4.410  13.161  0.00  0.00    +0.000 A 
ATOM     16  C   UNL     1       7.534   4.846  14.289  0.00  0.00    +0.000 A 
ATOM     17  C   UNL     1       6.935   4.834  15.550  0.00  0.00    +0.000 A 
ATOM     18  C   UNL     1       5.613   4.392  15.730  0.00  0.00    +0.000 A 
ATOM     19  C   UNL     1       4.910   3.942  14.606  0.00  0.00    +0.000 A 
ATOM     20  C   UNL     1       5.516   3.945  13.337  0.00  0.00    +0.000 A 
ATOM     21 BR   UNL     1       4.490   3.293  11.877  0.00  0.00    +0.000 Br
ENDBRANCH   1  18
TORSDOF 1
ENDMDL
