MODEL 1
REMARK VINA RESULT:      -8.1      0.000      0.000
REMARK  Name = 
REMARK  9 active torsions:
REMARK  status: ('A' for Active; 'I' for Inactive)
REMARK    1  A    between atoms: C_2  and  C_3
REMARK    2  A    between atoms: C_4  and  C_5
REMARK    3  A    between atoms: N_13  and  C_14
REMARK    4  A    between atoms: C_14  and  C_15
REMARK    5  A    between atoms: C_15  and  C_16
REMARK    6  A    between atoms: C_16  and  C_17
REMARK    7  A    between atoms: C_17  and  C_18
REMARK    8  A    between atoms: C_18  and  N_19
REMARK    9  A    between atoms: C_22  and  C_23
REMARK                            x       y       z     vdW  Elec       q    Type
REMARK                         _______ _______ _______ _____ _____    ______ ____
ROOT
ATOM      1  C   UNL     1       4.900   4.452  15.706  0.00  0.00    +0.000 C 
ENDROOT
BRANCH   1   2
ATOM      2  C   UNL     1       6.368   4.555  15.277  0.00  0.00    +0.000 C 
BRANCH   2   3
ATOM      3  C   UNL     1       7.234   5.462  16.157  0.00  0.00    +0.000 C 
BRANCH   3   4
ATOM      4  C   UNL     1       6.474   6.681  16.679  0.00  0.00    +0.000 C 
BRANCH   4   7
ATOM      5  O   UNL     1       8.085   6.941  18.998  0.00  0.00    +0.000 OA
ATOM      6  C   UNL     1       8.111   7.806  18.134  0.00  0.00    +0.000 C 
ATOM      7  N   UNL     1       7.361   7.782  16.983  0.00  0.00    +0.000 N 
ATOM      8  H   UNL     1       7.413   8.549  16.322  0.00  0.00    +0.000 HD
BRANCH   6   9
ATOM      9  C   UNL     1       8.980   9.006  18.221  0.00  0.00    +0.000 C 
ATOM     10  C   UNL     1       8.490  10.154  18.707  0.00  0.00    +0.000 C 
BRANCH  10  11
ATOM     11  C   UNL     1       9.330  11.348  18.855  0.00  0.00    +0.000 A 
ATOM     12  C   UNL     1      10.431  11.288  19.723  0.00  0.00    +0.000 A 
ATOM     13  C   UNL     1      11.265  12.398  19.885  0.00  0.00    +0.000 A 
ATOM     14  C   UNL     1      11.003  13.573  19.182  0.00  0.00    +0.000 A 
ATOM     15 CL   UNL     1      12.041  14.931  19.373  0.00  0.00    +0.000 Cl
ATOM     16  C   UNL     1       9.908  13.655  18.325  0.00  0.00    +0.000 A 
ATOM     17  C   UNL     1       9.072  12.546  18.165  0.00  0.00    +0.000 A 
ATOM     18 CL   UNL     1       7.719  12.708  17.099  0.00  0.00    +0.000 Cl
ENDBRANCH  10  11
ENDBRANCH   6   9
ENDBRANCH   4   7
ENDBRANCH   3   4
ENDBRANCH   2   3
ENDBRANCH   1   2
BRANCH   1  19
ATOM     19  C   UNL     1       4.554   3.234  16.581  0.00  0.00    +0.000 C 
BRANCH  19  20
ATOM     20  N   UNL     1       3.987   3.546  17.915  0.00  0.00    +0.000 NA
ATOM     21  C   UNL     1       4.735   4.635  18.561  0.00  0.00    +0.000 C 
ATOM     22  C   UNL     1       4.096   5.158  19.848  0.00  0.00    +0.000 C 
ATOM     23  C   UNL     1       2.630   5.554  19.686  0.00  0.00    +0.000 C 
ATOM     24  C   UNL     1       1.874   4.395  19.028  0.00  0.00    +0.000 C 
ATOM     25  C   UNL     1       2.550   3.850  17.765  0.00  0.00    +0.000 C 
BRANCH  23  26
ATOM     26  C   UNL     1       2.405   6.916  19.048  0.00  0.00    +0.000 A 
ATOM     27  C   UNL     1       2.793   7.351  17.793  0.00  0.00    +0.000 A 
ATOM     28  N   UNL     1       2.401   8.656  17.626  0.00  0.00    +0.000 N 
ATOM     29  C   UNL     1       1.759   9.106  18.753  0.00  0.00    +0.000 A 
ATOM     30  C   UNL     1       1.200  10.364  19.026  0.00  0.00    +0.000 A 
ATOM     31  C   UNL     1       0.609  10.555  20.281  0.00  0.00    +0.000 A 
ATOM     32  C   UNL     1       0.578   9.523  21.215  0.00  0.00    +0.000 A 
ATOM     33  C   UNL     1       1.134   8.271  20.918  0.00  0.00    +0.000 A 
ATOM     34  C   UNL     1       1.743   8.048  19.661  0.00  0.00    +0.000 A 
ATOM     35  H   UNL     1       2.565   9.212  16.801  0.00  0.00    +0.000 HD
ENDBRANCH  23  26
ENDBRANCH  19  20
ENDBRANCH   1  19
TORSDOF 9
ENDMDL
MODEL 2
REMARK VINA RESULT:      -8.1      4.993      7.266
REMARK  Name = 
REMARK  9 active torsions:
REMARK  status: ('A' for Active; 'I' for Inactive)
REMARK    1  A    between atoms: C_2  and  C_3
REMARK    2  A    between atoms: C_4  and  C_5
REMARK    3  A    between atoms: N_13  and  C_14
REMARK    4  A    between atoms: C_14  and  C_15
REMARK    5  A    between atoms: C_15  and  C_16
REMARK    6  A    between atoms: C_16  and  C_17
REMARK    7  A    between atoms: C_17  and  C_18
REMARK    8  A    between atoms: C_18  and  N_19
REMARK    9  A    between atoms: C_22  and  C_23
REMARK                            x       y       z     vdW  Elec       q    Type
REMARK                         _______ _______ _______ _____ _____    ______ ____
ROOT
ATOM      1  C   UNL     1       1.893   5.945  20.795  0.00  0.00    +0.000 C 
ENDROOT
BRANCH   1   2
ATOM      2  C   UNL     1       2.229   4.450  20.767  0.00  0.00    +0.000 C 
BRANCH   2   3
ATOM      3  C   UNL     1       1.014   3.517  20.723  0.00  0.00    +0.000 C 
BRANCH   3   4
ATOM      4  C   UNL     1       0.722   2.992  19.318  0.00  0.00    +0.000 C 
BRANCH   4   7
ATOM      5  O   UNL     1       3.109   1.691  18.510  0.00  0.00    +0.000 OA
ATOM      6  C   UNL     1       2.801   2.767  18.016  0.00  0.00    +0.000 C 
ATOM      7  N   UNL     1       1.676   3.484  18.347  0.00  0.00    +0.000 N 
ATOM      8  H   UNL     1       1.497   4.383  17.917  0.00  0.00    +0.000 HD
BRANCH   6   9
ATOM      9  C   UNL     1       3.613   3.438  16.971  0.00  0.00    +0.000 C 
ATOM     10  C   UNL     1       4.939   3.244  16.927  0.00  0.00    +0.000 C 
BRANCH  10  11
ATOM     11  C   UNL     1       5.770   3.848  15.879  0.00  0.00    +0.000 A 
ATOM     12  C   UNL     1       5.488   3.542  14.540  0.00  0.00    +0.000 A 
ATOM     13  C   UNL     1       6.247   4.105  13.510  0.00  0.00    +0.000 A 
ATOM     14  C   UNL     1       7.291   4.976  13.813  0.00  0.00    +0.000 A 
ATOM     15 CL   UNL     1       8.213   5.679  12.542  0.00  0.00    +0.000 Cl
ATOM     16  C   UNL     1       7.594   5.283  15.137  0.00  0.00    +0.000 A 
ATOM     17  C   UNL     1       6.837   4.718  16.168  0.00  0.00    +0.000 A 
ATOM     18 CL   UNL     1       7.266   5.123  17.795  0.00  0.00    +0.000 Cl
ENDBRANCH  10  11
ENDBRANCH   6   9
ENDBRANCH   4   7
ENDBRANCH   3   4
ENDBRANCH   2   3
ENDBRANCH   1   2
BRANCH   1  19
ATOM     19  C   UNL     1       2.060   6.682  19.454  0.00  0.00    +0.000 C 
BRANCH  19  20
ATOM     20  N   UNL     1       2.076   8.162  19.536  0.00  0.00    +0.000 NA
ATOM     21  C   UNL     1       1.951   8.763  18.201  0.00  0.00    +0.000 C 
ATOM     22  C   UNL     1       1.754  10.279  18.211  0.00  0.00    +0.000 C 
ATOM     23  C   UNL     1       0.604  10.742  19.103  0.00  0.00    +0.000 C 
ATOM     24  C   UNL     1       0.772  10.115  20.491  0.00  0.00    +0.000 C 
ATOM     25  C   UNL     1       1.014   8.602  20.464  0.00  0.00    +0.000 C 
BRANCH  23  26
ATOM     26  C   UNL     1      -0.779  10.589  18.489  0.00  0.00    +0.000 A 
ATOM     27  C   UNL     1      -1.158   9.817  17.405  0.00  0.00    +0.000 A 
ATOM     28  N   UNL     1      -2.501   9.984  17.179  0.00  0.00    +0.000 N 
ATOM     29  C   UNL     1      -3.030  10.862  18.092  0.00  0.00    +0.000 A 
ATOM     30  C   UNL     1      -4.348  11.325  18.234  0.00  0.00    +0.000 A 
ATOM     31  C   UNL     1      -4.609  12.241  19.261  0.00  0.00    +0.000 A 
ATOM     32  C   UNL     1      -3.590  12.664  20.109  0.00  0.00    +0.000 A 
ATOM     33  C   UNL     1      -2.283  12.181  19.957  0.00  0.00    +0.000 A 
ATOM     34  C   UNL     1      -1.986  11.260  18.925  0.00  0.00    +0.000 A 
ATOM     35  H   UNL     1      -3.027   9.537  16.444  0.00  0.00    +0.000 HD
ENDBRANCH  23  26
ENDBRANCH  19  20
ENDBRANCH   1  19
TORSDOF 9
ENDMDL
MODEL 3
REMARK VINA RESULT:      -7.8      4.663      6.528
REMARK  Name = 
REMARK  9 active torsions:
REMARK  status: ('A' for Active; 'I' for Inactive)
REMARK    1  A    between atoms: C_2  and  C_3
REMARK    2  A    between atoms: C_4  and  C_5
REMARK    3  A    between atoms: N_13  and  C_14
REMARK    4  A    between atoms: C_14  and  C_15
REMARK    5  A    between atoms: C_15  and  C_16
REMARK    6  A    between atoms: C_16  and  C_17
REMARK    7  A    between atoms: C_17  and  C_18
REMARK    8  A    between atoms: C_18  and  N_19
REMARK    9  A    between atoms: C_22  and  C_23
REMARK                            x       y       z     vdW  Elec       q    Type
REMARK                         _______ _______ _______ _____ _____    ______ ____
ROOT
ATOM      1  C   UNL     1       7.691   8.972  17.917  0.00  0.00    +0.000 C 
ENDROOT
BRANCH   1   2
ATOM      2  C   UNL     1       8.845   9.979  17.858  0.00  0.00    +0.000 C 
BRANCH   2   3
ATOM      3  C   UNL     1       9.525  10.258  19.203  0.00  0.00    +0.000 C 
BRANCH   3   4
ATOM      4  C   UNL     1       9.486  11.737  19.589  0.00  0.00    +0.000 C 
BRANCH   4   7
ATOM      5  O   UNL     1      10.188  13.520  21.679  0.00  0.00    +0.000 OA
ATOM      6  C   UNL     1       9.162  12.858  21.757  0.00  0.00    +0.000 C 
ATOM      7  N   UNL     1       8.740  11.958  20.809  0.00  0.00    +0.000 N 
ATOM      8  H   UNL     1       7.892  11.424  20.952  0.00  0.00    +0.000 HD
BRANCH   6   9
ATOM      9  C   UNL     1       8.225  12.956  22.904  0.00  0.00    +0.000 C 
ATOM     10  C   UNL     1       8.326  12.097  23.927  0.00  0.00    +0.000 C 
BRANCH  10  11
ATOM     11  C   UNL     1       7.451  12.192  25.102  0.00  0.00    +0.000 A 
ATOM     12  C   UNL     1       6.246  11.474  25.098  0.00  0.00    +0.000 A 
ATOM     13  C   UNL     1       5.389  11.526  26.201  0.00  0.00    +0.000 A 
ATOM     14  C   UNL     1       5.731  12.296  27.311  0.00  0.00    +0.000 A 
ATOM     15 CL   UNL     1       4.680  12.345  28.672  0.00  0.00    +0.000 Cl
ATOM     16  C   UNL     1       6.917  13.025  27.328  0.00  0.00    +0.000 A 
ATOM     17  C   UNL     1       7.774  12.975  26.224  0.00  0.00    +0.000 A 
ATOM     18 CL   UNL     1       9.228  13.912  26.293  0.00  0.00    +0.000 Cl
ENDBRANCH  10  11
ENDBRANCH   6   9
ENDBRANCH   4   7
ENDBRANCH   3   4
ENDBRANCH   2   3
ENDBRANCH   1   2
BRANCH   1  19
ATOM     19  C   UNL     1       8.111   7.495  18.023  0.00  0.00    +0.000 C 
BRANCH  19  20
ATOM     20  N   UNL     1       7.295   6.541  17.235  0.00  0.00    +0.000 NA
ATOM     21  C   UNL     1       7.136   5.269  17.954  0.00  0.00    +0.000 C 
ATOM     22  C   UNL     1       6.142   4.303  17.308  0.00  0.00    +0.000 C 
ATOM     23  C   UNL     1       4.774   4.925  17.033  0.00  0.00    +0.000 C 
ATOM     24  C   UNL     1       4.971   6.237  16.269  0.00  0.00    +0.000 C 
ATOM     25  C   UNL     1       6.004   7.176  16.902  0.00  0.00    +0.000 C 
BRANCH  23  26
ATOM     26  C   UNL     1       3.861   5.016  18.247  0.00  0.00    +0.000 A 
ATOM     27  C   UNL     1       3.877   5.953  19.265  0.00  0.00    +0.000 A 
ATOM     28  N   UNL     1       2.888   5.654  20.169  0.00  0.00    +0.000 N 
ATOM     29  C   UNL     1       2.211   4.526  19.775  0.00  0.00    +0.000 A 
ATOM     30  C   UNL     1       1.139   3.863  20.391  0.00  0.00    +0.000 A 
ATOM     31  C   UNL     1       0.643   2.710  19.768  0.00  0.00    +0.000 A 
ATOM     32  C   UNL     1       1.199   2.253  18.577  0.00  0.00    +0.000 A 
ATOM     33  C   UNL     1       2.264   2.937  17.974  0.00  0.00    +0.000 A 
ATOM     34  C   UNL     1       2.791   4.101  18.581  0.00  0.00    +0.000 A 
ATOM     35  H   UNL     1       2.689   6.178  21.006  0.00  0.00    +0.000 HD
ENDBRANCH  23  26
ENDBRANCH  19  20
ENDBRANCH   1  19
TORSDOF 9
ENDMDL
MODEL 4
REMARK VINA RESULT:      -7.8      5.475      9.757
REMARK  Name = 
REMARK  9 active torsions:
REMARK  status: ('A' for Active; 'I' for Inactive)
REMARK    1  A    between atoms: C_2  and  C_3
REMARK    2  A    between atoms: C_4  and  C_5
REMARK    3  A    between atoms: N_13  and  C_14
REMARK    4  A    between atoms: C_14  and  C_15
REMARK    5  A    between atoms: C_15  and  C_16
REMARK    6  A    between atoms: C_16  and  C_17
REMARK    7  A    between atoms: C_17  and  C_18
REMARK    8  A    between atoms: C_18  and  N_19
REMARK    9  A    between atoms: C_22  and  C_23
REMARK                            x       y       z     vdW  Elec       q    Type
REMARK                         _______ _______ _______ _____ _____    ______ ____
ROOT
ATOM      1  C   UNL     1       2.019   5.370  20.896  0.00  0.00    +0.000 C 
ENDROOT
BRANCH   1   2
ATOM      2  C   UNL     1       1.081   6.574  21.039  0.00  0.00    +0.000 C 
BRANCH   2   3
ATOM      3  C   UNL     1       1.592   7.868  20.396  0.00  0.00    +0.000 C 
BRANCH   3   4
ATOM      4  C   UNL     1       1.694   9.022  21.392  0.00  0.00    +0.000 C 
BRANCH   4   7
ATOM      5  O   UNL     1       0.614   9.624  23.945  0.00  0.00    +0.000 OA
ATOM      6  C   UNL     1      -0.020   9.891  22.933  0.00  0.00    +0.000 C 
ATOM      7  N   UNL     1       0.406   9.628  21.653  0.00  0.00    +0.000 N 
ATOM      8  H   UNL     1      -0.184   9.852  20.861  0.00  0.00    +0.000 HD
BRANCH   6   9
ATOM      9  C   UNL     1      -1.348  10.552  22.964  0.00  0.00    +0.000 C 
ATOM     10  C   UNL     1      -1.430  11.885  23.075  0.00  0.00    +0.000 C 
BRANCH  10  11
ATOM     11  C   UNL     1      -2.722  12.581  23.059  0.00  0.00    +0.000 A 
ATOM     12  C   UNL     1      -3.661  12.273  24.055  0.00  0.00    +0.000 A 
ATOM     13  C   UNL     1      -4.899  12.920  24.085  0.00  0.00    +0.000 A 
ATOM     14  C   UNL     1      -5.205  13.878  23.120  0.00  0.00    +0.000 A 
ATOM     15 CL   UNL     1      -6.724  14.683  23.169  0.00  0.00    +0.000 Cl
ATOM     16  C   UNL     1      -4.291  14.189  22.117  0.00  0.00    +0.000 A 
ATOM     17  C   UNL     1      -3.053  13.539  22.085  0.00  0.00    +0.000 A 
ATOM     18 CL   UNL     1      -1.962  13.954  20.808  0.00  0.00    +0.000 Cl
ENDBRANCH  10  11
ENDBRANCH   6   9
ENDBRANCH   4   7
ENDBRANCH   3   4
ENDBRANCH   2   3
ENDBRANCH   1   2
BRANCH   1  19
ATOM     19  C   UNL     1       1.323   4.000  20.810  0.00  0.00    +0.000 C 
BRANCH  19  20
ATOM     20  N   UNL     1       1.603   3.218  19.582  0.00  0.00    +0.000 NA
ATOM     21  C   UNL     1       1.672   4.096  18.405  0.00  0.00    +0.000 C 
ATOM     22  C   UNL     1       2.157   3.403  17.132  0.00  0.00    +0.000 C 
ATOM     23  C   UNL     1       3.477   2.656  17.306  0.00  0.00    +0.000 C 
ATOM     24  C   UNL     1       3.369   1.737  18.527  0.00  0.00    +0.000 C 
ATOM     25  C   UNL     1       2.838   2.435  19.784  0.00  0.00    +0.000 C 
BRANCH  23  26
ATOM     26  C   UNL     1       4.717   3.537  17.270  0.00  0.00    +0.000 A 
ATOM     27  C   UNL     1       5.357   4.162  18.326  0.00  0.00    +0.000 A 
ATOM     28  N   UNL     1       6.429   4.873  17.846  0.00  0.00    +0.000 N 
ATOM     29  C   UNL     1       6.514   4.740  16.482  0.00  0.00    +0.000 A 
ATOM     30  C   UNL     1       7.441   5.289  15.583  0.00  0.00    +0.000 A 
ATOM     31  C   UNL     1       7.282   4.994  14.223  0.00  0.00    +0.000 A 
ATOM     32  C   UNL     1       6.241   4.176  13.792  0.00  0.00    +0.000 A 
ATOM     33  C   UNL     1       5.333   3.629  14.708  0.00  0.00    +0.000 A 
ATOM     34  C   UNL     1       5.462   3.914  16.088  0.00  0.00    +0.000 A 
ATOM     35  H   UNL     1       7.060   5.423  18.407  0.00  0.00    +0.000 HD
ENDBRANCH  23  26
ENDBRANCH  19  20
ENDBRANCH   1  19
TORSDOF 9
ENDMDL
MODEL 5
REMARK VINA RESULT:      -7.8      4.104      6.010
REMARK  Name = 
REMARK  9 active torsions:
REMARK  status: ('A' for Active; 'I' for Inactive)
REMARK    1  A    between atoms: C_2  and  C_3
REMARK    2  A    between atoms: C_4  and  C_5
REMARK    3  A    between atoms: N_13  and  C_14
REMARK    4  A    between atoms: C_14  and  C_15
REMARK    5  A    between atoms: C_15  and  C_16
REMARK    6  A    between atoms: C_16  and  C_17
REMARK    7  A    between atoms: C_17  and  C_18
REMARK    8  A    between atoms: C_18  and  N_19
REMARK    9  A    between atoms: C_22  and  C_23
REMARK                            x       y       z     vdW  Elec       q    Type
REMARK                         _______ _______ _______ _____ _____    ______ ____
ROOT
ATOM      1  C   UNL     1       8.284   8.902  17.807  0.00  0.00    +0.000 C 
ENDROOT
BRANCH   1   2
ATOM      2  C   UNL     1       8.930   9.889  18.784  0.00  0.00    +0.000 C 
BRANCH   2   3
ATOM      3  C   UNL     1       9.836  10.940  18.134  0.00  0.00    +0.000 C 
BRANCH   3   4
ATOM      4  C   UNL     1       9.161  12.304  18.002  0.00  0.00    +0.000 C 
BRANCH   4   7
ATOM      5  O   UNL     1      10.473  14.252  19.591  0.00  0.00    +0.000 OA
ATOM      6  C   UNL     1       9.414  13.767  19.967  0.00  0.00    +0.000 C 
ATOM      7  N   UNL     1       8.708  12.809  19.280  0.00  0.00    +0.000 N 
ATOM      8  H   UNL     1       7.850  12.433  19.665  0.00  0.00    +0.000 HD
BRANCH   6   9
ATOM      9  C   UNL     1       8.746  14.169  21.229  0.00  0.00    +0.000 C 
ATOM     10  C   UNL     1       9.457  14.264  22.362  0.00  0.00    +0.000 C 
BRANCH  10  11
ATOM     11  C   UNL     1       8.844  14.707  23.620  0.00  0.00    +0.000 A 
ATOM     12  C   UNL     1       8.736  16.084  23.864  0.00  0.00    +0.000 A 
ATOM     13  C   UNL     1       8.148  16.550  25.043  0.00  0.00    +0.000 A 
ATOM     14  C   UNL     1       7.665  15.642  25.984  0.00  0.00    +0.000 A 
ATOM     15 CL   UNL     1       6.929  16.219  27.427  0.00  0.00    +0.000 Cl
ATOM     16  C   UNL     1       7.774  14.271  25.765  0.00  0.00    +0.000 A 
ATOM     17  C   UNL     1       8.364  13.805  24.586  0.00  0.00    +0.000 A 
ATOM     18 CL   UNL     1       8.486  12.092  24.372  0.00  0.00    +0.000 Cl
ENDBRANCH  10  11
ENDBRANCH   6   9
ENDBRANCH   4   7
ENDBRANCH   3   4
ENDBRANCH   2   3
ENDBRANCH   1   2
BRANCH   1  19
ATOM     19  C   UNL     1       8.063   7.481  18.356  0.00  0.00    +0.000 C 
BRANCH  19  20
ATOM     20  N   UNL     1       7.256   6.582  17.497  0.00  0.00    +0.000 NA
ATOM     21  C   UNL     1       6.993   5.305  18.175  0.00  0.00    +0.000 C 
ATOM     22  C   UNL     1       5.999   4.400  17.447  0.00  0.00    +0.000 C 
ATOM     23  C   UNL     1       4.681   5.091  17.102  0.00  0.00    +0.000 C 
ATOM     24  C   UNL     1       4.987   6.408  16.381  0.00  0.00    +0.000 C 
ATOM     25  C   UNL     1       6.019   7.284  17.099  0.00  0.00    +0.000 C 
BRANCH  23  26
ATOM     26  C   UNL     1       3.698   5.201  18.257  0.00  0.00    +0.000 A 
ATOM     27  C   UNL     1       3.579   6.217  19.190  0.00  0.00    +0.000 A 
ATOM     28  N   UNL     1       2.570   5.908  20.068  0.00  0.00    +0.000 N 
ATOM     29  C   UNL     1       2.014   4.696  19.742  0.00  0.00    +0.000 A 
ATOM     30  C   UNL     1       0.968   3.993  20.361  0.00  0.00    +0.000 A 
ATOM     31  C   UNL     1       0.607   2.754  19.819  0.00  0.00    +0.000 A 
ATOM     32  C   UNL     1       1.264   2.250  18.700  0.00  0.00    +0.000 A 
ATOM     33  C   UNL     1       2.299   2.973  18.091  0.00  0.00    +0.000 A 
ATOM     34  C   UNL     1       2.692   4.226  18.619  0.00  0.00    +0.000 A 
ATOM     35  H   UNL     1       2.282   6.479  20.846  0.00  0.00    +0.000 HD
ENDBRANCH  23  26
ENDBRANCH  19  20
ENDBRANCH   1  19
TORSDOF 9
ENDMDL
MODEL 6
REMARK VINA RESULT:      -7.7      4.558      9.936
REMARK  Name = 
REMARK  9 active torsions:
REMARK  status: ('A' for Active; 'I' for Inactive)
REMARK    1  A    between atoms: C_2  and  C_3
REMARK    2  A    between atoms: C_4  and  C_5
REMARK    3  A    between atoms: N_13  and  C_14
REMARK    4  A    between atoms: C_14  and  C_15
REMARK    5  A    between atoms: C_15  and  C_16
REMARK    6  A    between atoms: C_16  and  C_17
REMARK    7  A    between atoms: C_17  and  C_18
REMARK    8  A    between atoms: C_18  and  N_19
REMARK    9  A    between atoms: C_22  and  C_23
REMARK                            x       y       z     vdW  Elec       q    Type
REMARK                         _______ _______ _______ _____ _____    ______ ____
ROOT
ATOM      1  C   UNL     1       8.974  12.270  17.767  0.00  0.00    +0.000 C 
ENDROOT
BRANCH   1   2
ATOM      2  C   UNL     1       9.395  10.845  18.143  0.00  0.00    +0.000 C 
BRANCH   2   3
ATOM      3  C   UNL     1       8.236   9.860  18.335  0.00  0.00    +0.000 C 
BRANCH   3   4
ATOM      4  C   UNL     1       8.481   8.518  17.646  0.00  0.00    +0.000 C 
BRANCH   4   7
ATOM      5  O   UNL     1       7.691   6.364  15.980  0.00  0.00    +0.000 OA
ATOM      6  C   UNL     1       7.129   6.547  17.051  0.00  0.00    +0.000 C 
ATOM      7  N   UNL     1       7.426   7.568  17.923  0.00  0.00    +0.000 N 
ATOM      8  H   UNL     1       6.900   7.676  18.782  0.00  0.00    +0.000 HD
BRANCH   6   9
ATOM      9  C   UNL     1       6.044   5.669  17.554  0.00  0.00    +0.000 C 
ATOM     10  C   UNL     1       4.811   5.767  17.039  0.00  0.00    +0.000 C 
BRANCH  10  11
ATOM     11  C   UNL     1       3.723   4.882  17.473  0.00  0.00    +0.000 A 
ATOM     12  C   UNL     1       3.862   3.501  17.271  0.00  0.00    +0.000 A 
ATOM     13  C   UNL     1       2.856   2.621  17.680  0.00  0.00    +0.000 A 
ATOM     14  C   UNL     1       1.707   3.117  18.293  0.00  0.00    +0.000 A 
ATOM     15 CL   UNL     1       0.478   2.030  18.809  0.00  0.00    +0.000 Cl
ATOM     16  C   UNL     1       1.546   4.486  18.492  0.00  0.00    +0.000 A 
ATOM     17  C   UNL     1       2.551   5.367  18.080  0.00  0.00    +0.000 A 
ATOM     18 CL   UNL     1       2.292   7.058  18.339  0.00  0.00    +0.000 Cl
ENDBRANCH  10  11
ENDBRANCH   6   9
ENDBRANCH   4   7
ENDBRANCH   3   4
ENDBRANCH   2   3
ENDBRANCH   1   2
BRANCH   1  19
ATOM     19  C   UNL     1      10.080  13.334  17.881  0.00  0.00    +0.000 C 
BRANCH  19  20
ATOM     20  N   UNL     1       9.875  14.357  18.935  0.00  0.00    +0.000 NA
ATOM     21  C   UNL     1       8.486  14.344  19.415  0.00  0.00    +0.000 C 
ATOM     22  C   UNL     1       8.238  15.224  20.641  0.00  0.00    +0.000 C 
ATOM     23  C   UNL     1       9.195  14.947  21.798  0.00  0.00    +0.000 C 
ATOM     24  C   UNL     1      10.632  14.984  21.271  0.00  0.00    +0.000 C 
ATOM     25  C   UNL     1      10.856  14.134  20.016  0.00  0.00    +0.000 C 
BRANCH  23  26
ATOM     26  C   UNL     1       8.846  13.724  22.634  0.00  0.00    +0.000 A 
ATOM     27  C   UNL     1       8.887  12.391  22.265  0.00  0.00    +0.000 A 
ATOM     28  N   UNL     1       8.476  11.618  23.321  0.00  0.00    +0.000 N 
ATOM     29  C   UNL     1       8.153  12.412  24.393  0.00  0.00    +0.000 A 
ATOM     30  C   UNL     1       7.687  12.054  25.668  0.00  0.00    +0.000 A 
ATOM     31  C   UNL     1       7.422  13.086  26.577  0.00  0.00    +0.000 A 
ATOM     32  C   UNL     1       7.624  14.415  26.220  0.00  0.00    +0.000 A 
ATOM     33  C   UNL     1       8.100  14.750  24.945  0.00  0.00    +0.000 A 
ATOM     34  C   UNL     1       8.371  13.732  24.001  0.00  0.00    +0.000 A 
ATOM     35  H   UNL     1       8.409  10.612  23.314  0.00  0.00    +0.000 HD
ENDBRANCH  23  26
ENDBRANCH  19  20
ENDBRANCH   1  19
TORSDOF 9
ENDMDL
MODEL 7
REMARK VINA RESULT:      -7.6      1.140      1.552
REMARK  Name = 
REMARK  9 active torsions:
REMARK  status: ('A' for Active; 'I' for Inactive)
REMARK    1  A    between atoms: C_2  and  C_3
REMARK    2  A    between atoms: C_4  and  C_5
REMARK    3  A    between atoms: N_13  and  C_14
REMARK    4  A    between atoms: C_14  and  C_15
REMARK    5  A    between atoms: C_15  and  C_16
REMARK    6  A    between atoms: C_16  and  C_17
REMARK    7  A    between atoms: C_17  and  C_18
REMARK    8  A    between atoms: C_18  and  N_19
REMARK    9  A    between atoms: C_22  and  C_23
REMARK                            x       y       z     vdW  Elec       q    Type
REMARK                         _______ _______ _______ _____ _____    ______ ____
ROOT
ATOM      1  C   UNL     1       4.247   4.117  16.005  0.00  0.00    +0.000 C 
ENDROOT
BRANCH   1   2
ATOM      2  C   UNL     1       5.646   4.588  15.596  0.00  0.00    +0.000 C 
BRANCH   2   3
ATOM      3  C   UNL     1       5.924   6.074  15.845  0.00  0.00    +0.000 C 
BRANCH   3   4
ATOM      4  C   UNL     1       7.204   6.311  16.645  0.00  0.00    +0.000 C 
BRANCH   4   7
ATOM      5  O   UNL     1       8.621   7.247  18.916  0.00  0.00    +0.000 OA
ATOM      6  C   UNL     1       8.058   8.041  18.175  0.00  0.00    +0.000 C 
ATOM      7  N   UNL     1       7.336   7.691  17.060  0.00  0.00    +0.000 N 
ATOM      8  H   UNL     1       6.872   8.401  16.506  0.00  0.00    +0.000 HD
BRANCH   6   9
ATOM      9  C   UNL     1       8.096   9.509  18.389  0.00  0.00    +0.000 C 
ATOM     10  C   UNL     1       9.070  10.242  17.831  0.00  0.00    +0.000 C 
BRANCH  10  11
ATOM     11  C   UNL     1       9.114  11.702  17.976  0.00  0.00    +0.000 A 
ATOM     12  C   UNL     1       8.074  12.462  17.421  0.00  0.00    +0.000 A 
ATOM     13  C   UNL     1       8.069  13.854  17.546  0.00  0.00    +0.000 A 
ATOM     14  C   UNL     1       9.104  14.493  18.227  0.00  0.00    +0.000 A 
ATOM     15 CL   UNL     1       9.087  16.205  18.393  0.00  0.00    +0.000 Cl
ATOM     16  C   UNL     1      10.151  13.756  18.775  0.00  0.00    +0.000 A 
ATOM     17  C   UNL     1      10.157  12.364  18.647  0.00  0.00    +0.000 A 
ATOM     18 CL   UNL     1      11.489  11.500  19.336  0.00  0.00    +0.000 Cl
ENDBRANCH  10  11
ENDBRANCH   6   9
ENDBRANCH   4   7
ENDBRANCH   3   4
ENDBRANCH   2   3
ENDBRANCH   1   2
BRANCH   1  19
ATOM     19  C   UNL     1       4.211   3.035  17.099  0.00  0.00    +0.000 C 
BRANCH  19  20
ATOM     20  N   UNL     1       3.599   3.448  18.385  0.00  0.00    +0.000 NA
ATOM     21  C   UNL     1       4.385   4.516  19.020  0.00  0.00    +0.000 C 
ATOM     22  C   UNL     1       3.718   5.142  20.245  0.00  0.00    +0.000 C 
ATOM     23  C   UNL     1       2.292   5.623  19.988  0.00  0.00    +0.000 C 
ATOM     24  C   UNL     1       1.495   4.485  19.344  0.00  0.00    +0.000 C 
ATOM     25  C   UNL     1       2.195   3.836  18.145  0.00  0.00    +0.000 C 
BRANCH  23  26
ATOM     26  C   UNL     1       2.191   6.964  19.277  0.00  0.00    +0.000 A 
ATOM     27  C   UNL     1       2.690   7.318  18.036  0.00  0.00    +0.000 A 
ATOM     28  N   UNL     1       2.386   8.633  17.785  0.00  0.00    +0.000 N 
ATOM     29  C   UNL     1       1.696   9.170  18.844  0.00  0.00    +0.000 A 
ATOM     30  C   UNL     1       1.193  10.468  19.021  0.00  0.00    +0.000 A 
ATOM     31  C   UNL     1       0.530  10.750  20.222  0.00  0.00    +0.000 A 
ATOM     32  C   UNL     1       0.375   9.767  21.195  0.00  0.00    +0.000 A 
ATOM     33  C   UNL     1       0.876   8.474  20.992  0.00  0.00    +0.000 A 
ATOM     34  C   UNL     1       1.556   8.159  19.793  0.00  0.00    +0.000 A 
ATOM     35  H   UNL     1       2.639   9.140  16.952  0.00  0.00    +0.000 HD
ENDBRANCH  23  26
ENDBRANCH  19  20
ENDBRANCH   1  19
TORSDOF 9
ENDMDL
MODEL 8
REMARK VINA RESULT:      -7.6      3.598      4.679
REMARK  Name = 
REMARK  9 active torsions:
REMARK  status: ('A' for Active; 'I' for Inactive)
REMARK    1  A    between atoms: C_2  and  C_3
REMARK    2  A    between atoms: C_4  and  C_5
REMARK    3  A    between atoms: N_13  and  C_14
REMARK    4  A    between atoms: C_14  and  C_15
REMARK    5  A    between atoms: C_15  and  C_16
REMARK    6  A    between atoms: C_16  and  C_17
REMARK    7  A    between atoms: C_17  and  C_18
REMARK    8  A    between atoms: C_18  and  N_19
REMARK    9  A    between atoms: C_22  and  C_23
REMARK                            x       y       z     vdW  Elec       q    Type
REMARK                         _______ _______ _______ _____ _____    ______ ____
ROOT
ATOM      1  C   UNL     1       8.063   7.543  17.670  0.00  0.00    +0.000 C 
ENDROOT
BRANCH   1   2
ATOM      2  C   UNL     1       8.465   8.685  18.610  0.00  0.00    +0.000 C 
BRANCH   2   3
ATOM      3  C   UNL     1       8.299  10.091  18.022  0.00  0.00    +0.000 C 
BRANCH   3   4
ATOM      4  C   UNL     1       9.556  10.947  18.174  0.00  0.00    +0.000 C 
BRANCH   4   7
ATOM      5  O   UNL     1      11.761  12.220  19.423  0.00  0.00    +0.000 OA
ATOM      6  C   UNL     1      10.633  12.366  19.875  0.00  0.00    +0.000 C 
ATOM      7  N   UNL     1       9.503  11.783  19.354  0.00  0.00    +0.000 N 
ATOM      8  H   UNL     1       8.603  11.925  19.796  0.00  0.00    +0.000 HD
BRANCH   6   9
ATOM      9  C   UNL     1      10.340  13.214  21.057  0.00  0.00    +0.000 C 
ATOM     10  C   UNL     1       9.245  12.981  21.793  0.00  0.00    +0.000 C 
BRANCH  10  11
ATOM     11  C   UNL     1       8.947  13.765  22.998  0.00  0.00    +0.000 A 
ATOM     12  C   UNL     1       9.317  15.118  23.025  0.00  0.00    +0.000 A 
ATOM     13  C   UNL     1       9.041  15.904  24.147  0.00  0.00    +0.000 A 
ATOM     14  C   UNL     1       8.396  15.342  25.247  0.00  0.00    +0.000 A 
ATOM     15 CL   UNL     1       8.045  16.317  26.620  0.00  0.00    +0.000 Cl
ATOM     16  C   UNL     1       8.032  13.998  25.243  0.00  0.00    +0.000 A 
ATOM     17  C   UNL     1       8.310  13.210  24.122  0.00  0.00    +0.000 A 
ATOM     18 CL   UNL     1       7.848  11.544  24.177  0.00  0.00    +0.000 Cl
ENDBRANCH  10  11
ENDBRANCH   6   9
ENDBRANCH   4   7
ENDBRANCH   3   4
ENDBRANCH   2   3
ENDBRANCH   1   2
BRANCH   1  19
ATOM     19  C   UNL     1       7.614   6.246  18.366  0.00  0.00    +0.000 C 
BRANCH  19  20
ATOM     20  N   UNL     1       6.393   5.614  17.812  0.00  0.00    +0.000 NA
ATOM     21  C   UNL     1       5.719   4.794  18.829  0.00  0.00    +0.000 C 
ATOM     22  C   UNL     1       4.346   4.271  18.405  0.00  0.00    +0.000 C 
ATOM     23  C   UNL     1       3.403   5.363  17.903  0.00  0.00    +0.000 C 
ATOM     24  C   UNL     1       4.126   6.187  16.834  0.00  0.00    +0.000 C 
ATOM     25  C   UNL     1       5.520   6.666  17.255  0.00  0.00    +0.000 C 
BRANCH  23  26
ATOM     26  C   UNL     1       2.730   6.176  18.999  0.00  0.00    +0.000 A 
ATOM     27  C   UNL     1       2.467   5.805  20.306  0.00  0.00    +0.000 A 
ATOM     28  N   UNL     1       1.831   6.837  20.949  0.00  0.00    +0.000 N 
ATOM     29  C   UNL     1       1.656   7.894  20.091  0.00  0.00    +0.000 A 
ATOM     30  C   UNL     1       1.057   9.143  20.316  0.00  0.00    +0.000 A 
ATOM     31  C   UNL     1       1.003  10.042  19.243  0.00  0.00    +0.000 A 
ATOM     32  C   UNL     1       1.536   9.699  18.003  0.00  0.00    +0.000 A 
ATOM     33  C   UNL     1       2.140   8.450  17.804  0.00  0.00    +0.000 A 
ATOM     34  C   UNL     1       2.204   7.518  18.866  0.00  0.00    +0.000 A 
ATOM     35  H   UNL     1       1.525   6.823  21.909  0.00  0.00    +0.000 HD
ENDBRANCH  23  26
ENDBRANCH  19  20
ENDBRANCH   1  19
TORSDOF 9
ENDMDL
MODEL 9
REMARK VINA RESULT:      -7.6      4.462      8.130
REMARK  Name = 
REMARK  9 active torsions:
REMARK  status: ('A' for Active; 'I' for Inactive)
REMARK    1  A    between atoms: C_2  and  C_3
REMARK    2  A    between atoms: C_4  and  C_5
REMARK    3  A    between atoms: N_13  and  C_14
REMARK    4  A    between atoms: C_14  and  C_15
REMARK    5  A    between atoms: C_15  and  C_16
REMARK    6  A    between atoms: C_16  and  C_17
REMARK    7  A    between atoms: C_17  and  C_18
REMARK    8  A    between atoms: C_18  and  N_19
REMARK    9  A    between atoms: C_22  and  C_23
REMARK                            x       y       z     vdW  Elec       q    Type
REMARK                         _______ _______ _______ _____ _____    ______ ____
ROOT
ATOM      1  C   UNL     1       0.853   4.213  20.533  0.00  0.00    +0.000 C 
ENDROOT
BRANCH   1   2
ATOM      2  C   UNL     1       1.342   5.156  19.429  0.00  0.00    +0.000 C 
BRANCH   2   3
ATOM      3  C   UNL     1       2.360   6.207  19.883  0.00  0.00    +0.000 C 
BRANCH   3   4
ATOM      4  C   UNL     1       2.378   7.441  18.982  0.00  0.00    +0.000 C 
BRANCH   4   7
ATOM      5  O   UNL     1       1.300   9.717  17.677  0.00  0.00    +0.000 OA
ATOM      6  C   UNL     1       1.272   9.640  18.898  0.00  0.00    +0.000 C 
ATOM      7  N   UNL     1       1.779   8.590  19.625  0.00  0.00    +0.000 N 
ATOM      8  H   UNL     1       1.746   8.607  20.638  0.00  0.00    +0.000 HD
BRANCH   6   9
ATOM      9  C   UNL     1       0.668  10.688  19.758  0.00  0.00    +0.000 C 
ATOM     10  C   UNL     1      -0.623  10.607  20.104  0.00  0.00    +0.000 C 
BRANCH  10  11
ATOM     11  C   UNL     1      -1.245  11.595  20.994  0.00  0.00    +0.000 A 
ATOM     12  C   UNL     1      -1.827  12.737  20.424  0.00  0.00    +0.000 A 
ATOM     13  C   UNL     1      -2.440  13.698  21.232  0.00  0.00    +0.000 A 
ATOM     14  C   UNL     1      -2.475  13.522  22.614  0.00  0.00    +0.000 A 
ATOM     15 CL   UNL     1      -3.245  14.699  23.605  0.00  0.00    +0.000 Cl
ATOM     16  C   UNL     1      -1.894  12.400  23.200  0.00  0.00    +0.000 A 
ATOM     17  C   UNL     1      -1.277  11.440  22.391  0.00  0.00    +0.000 A 
ATOM     18 CL   UNL     1      -0.558  10.074  23.173  0.00  0.00    +0.000 Cl
ENDBRANCH  10  11
ENDBRANCH   6   9
ENDBRANCH   4   7
ENDBRANCH   3   4
ENDBRANCH   2   3
ENDBRANCH   1   2
BRANCH   1  19
ATOM     19  C   UNL     1       0.872   2.716  20.176  0.00  0.00    +0.000 C 
BRANCH  19  20
ATOM     20  N   UNL     1       2.177   2.186  19.713  0.00  0.00    +0.000 NA
ATOM     21  C   UNL     1       2.274   2.237  18.247  0.00  0.00    +0.000 C 
ATOM     22  C   UNL     1       3.661   1.902  17.698  0.00  0.00    +0.000 C 
ATOM     23  C   UNL     1       4.784   2.725  18.326  0.00  0.00    +0.000 C 
ATOM     24  C   UNL     1       4.668   2.638  19.851  0.00  0.00    +0.000 C 
ATOM     25  C   UNL     1       3.261   2.931  20.385  0.00  0.00    +0.000 C 
BRANCH  23  26
ATOM     26  C   UNL     1       4.929   4.133  17.769  0.00  0.00    +0.000 A 
ATOM     27  C   UNL     1       4.091   4.802  16.895  0.00  0.00    +0.000 A 
ATOM     28  N   UNL     1       4.605   6.049  16.642  0.00  0.00    +0.000 N 
ATOM     29  C   UNL     1       5.781   6.226  17.328  0.00  0.00    +0.000 A 
ATOM     30  C   UNL     1       6.642   7.333  17.363  0.00  0.00    +0.000 A 
ATOM     31  C   UNL     1       7.796   7.235  18.151  0.00  0.00    +0.000 A 
ATOM     32  C   UNL     1       8.065   6.077  18.874  0.00  0.00    +0.000 A 
ATOM     33  C   UNL     1       7.186   4.986  18.833  0.00  0.00    +0.000 A 
ATOM     34  C   UNL     1       6.015   5.051  18.042  0.00  0.00    +0.000 A 
ATOM     35  H   UNL     1       4.190   6.737  16.033  0.00  0.00    +0.000 HD
ENDBRANCH  23  26
ENDBRANCH  19  20
ENDBRANCH   1  19
TORSDOF 9
ENDMDL
