MODEL 1
REMARK VINA RESULT:      -8.2      0.000      0.000
REMARK  Name = 
REMARK  6 active torsions:
REMARK  status: ('A' for Active; 'I' for Inactive)
REMARK    1  A    between atoms: C_4  and  S_5
REMARK    2  A    between atoms: S_5  and  C_6
REMARK    3  A    between atoms: C_6  and  C_7
REMARK    4  A    between atoms: C_16  and  S_17
REMARK    5  A    between atoms: S_17  and  C_18
REMARK    6  A    between atoms: C_18  and  C_19
REMARK                            x       y       z     vdW  Elec       q    Type
REMARK                         _______ _______ _______ _____ _____    ______ ____
ROOT
ATOM      1  O   UNL     1       8.244   5.182  20.454  0.00  0.00    +0.000 OA
ATOM      2  C   UNL     1       7.974   5.628  19.345  0.00  0.00    +0.000 A 
ATOM      3  N   UNL     1       7.537   4.855  18.315  0.00  0.00    +0.000 NA
ATOM      4  C   UNL     1       7.298   5.408  17.175  0.00  0.00    +0.000 A 
ATOM      5  N   UNL     1       7.433   6.739  16.914  0.00  0.00    +0.000 NA
ATOM      6  C   UNL     1       7.836   7.460  17.896  0.00  0.00    +0.000 A 
ATOM      7  N   UNL     1       8.112   6.957  19.112  0.00  0.00    +0.000 N 
ATOM      8  H   UNL     1       8.450   7.535  19.863  0.00  0.00    +0.000 HD
ENDROOT
BRANCH   4   9
ATOM      9  S   UNL     1       6.726   4.345  15.890  0.00  0.00    +0.000 S 
BRANCH   9  10
ATOM     10  C   UNL     1       4.994   4.863  15.728  0.00  0.00    +0.000 C 
BRANCH  10  11
ATOM     11  C   UNL     1       4.274   4.898  17.054  0.00  0.00    +0.000 A 
ATOM     12  C   UNL     1       3.898   6.118  17.622  0.00  0.00    +0.000 A 
ATOM     13  F   UNL     1       4.161   7.261  16.974  0.00  0.00    +0.000 F 
ATOM     14  C   UNL     1       3.235   6.189  18.850  0.00  0.00    +0.000 A 
ATOM     15  C   UNL     1       2.934   5.022  19.545  0.00  0.00    +0.000 A 
ATOM     16  C   UNL     1       3.296   3.791  18.998  0.00  0.00    +0.000 A 
ATOM     17  C   UNL     1       3.956   3.738  17.765  0.00  0.00    +0.000 A 
ATOM     18  F   UNL     1       4.268   2.536  17.263  0.00  0.00    +0.000 F 
ENDBRANCH  10  11
ENDBRANCH   9  10
ENDBRANCH   4   9
BRANCH   6  19
ATOM     19  S   UNL     1       8.146   9.165  17.800  0.00  0.00    +0.000 S 
BRANCH  19  20
ATOM     20  C   UNL     1       9.264   9.440  19.207  0.00  0.00    +0.000 C 
BRANCH  20  21
ATOM     21  C   UNL     1       9.560  10.910  19.412  0.00  0.00    +0.000 A 
ATOM     22  C   UNL     1       9.160  11.590  20.574  0.00  0.00    +0.000 A 
ATOM     23  C   UNL     1       9.455  12.950  20.745  0.00  0.00    +0.000 A 
ATOM     24  C   UNL     1      10.145  13.652  19.757  0.00  0.00    +0.000 A 
ATOM     25  C   UNL     1      10.536  12.993  18.595  0.00  0.00    +0.000 A 
ATOM     26  C   UNL     1      10.243  11.640  18.431  0.00  0.00    +0.000 A 
ATOM     27  F   UNL     1      10.637  11.030  17.304  0.00  0.00    +0.000 F 
ENDBRANCH  20  21
ENDBRANCH  19  20
ENDBRANCH   6  19
TORSDOF 6
ENDMDL
MODEL 2
REMARK VINA RESULT:      -8.2      1.571      1.894
REMARK  Name = 
REMARK  6 active torsions:
REMARK  status: ('A' for Active; 'I' for Inactive)
REMARK    1  A    between atoms: C_4  and  S_5
REMARK    2  A    between atoms: S_5  and  C_6
REMARK    3  A    between atoms: C_6  and  C_7
REMARK    4  A    between atoms: C_16  and  S_17
REMARK    5  A    between atoms: S_17  and  C_18
REMARK    6  A    between atoms: C_18  and  C_19
REMARK                            x       y       z     vdW  Elec       q    Type
REMARK                         _______ _______ _______ _____ _____    ______ ____
ROOT
ATOM      1  O   UNL     1       8.363   5.212  20.640  0.00  0.00    +0.000 OA
ATOM      2  C   UNL     1       7.809   5.600  19.617  0.00  0.00    +0.000 A 
ATOM      3  N   UNL     1       6.834   4.897  18.982  0.00  0.00    +0.000 NA
ATOM      4  C   UNL     1       6.324   5.374  17.898  0.00  0.00    +0.000 A 
ATOM      5  N   UNL     1       6.677   6.562  17.330  0.00  0.00    +0.000 NA
ATOM      6  C   UNL     1       7.591   7.221  17.944  0.00  0.00    +0.000 A 
ATOM      7  N   UNL     1       8.176   6.788  19.075  0.00  0.00    +0.000 N 
ATOM      8  H   UNL     1       8.907   7.309  19.529  0.00  0.00    +0.000 HD
ENDROOT
BRANCH   4   9
ATOM      9  S   UNL     1       5.059   4.412  17.135  0.00  0.00    +0.000 S 
BRANCH   9  10
ATOM     10  C   UNL     1       3.585   5.424  17.454  0.00  0.00    +0.000 C 
BRANCH  10  11
ATOM     11  C   UNL     1       2.642   4.778  18.439  0.00  0.00    +0.000 A 
ATOM     12  C   UNL     1       2.377   5.387  19.668  0.00  0.00    +0.000 A 
ATOM     13  F   UNL     1       2.951   6.562  19.964  0.00  0.00    +0.000 F 
ATOM     14  C   UNL     1       1.514   4.817  20.606  0.00  0.00    +0.000 A 
ATOM     15  C   UNL     1       0.890   3.603  20.328  0.00  0.00    +0.000 A 
ATOM     16  C   UNL     1       1.134   2.976  19.107  0.00  0.00    +0.000 A 
ATOM     17  C   UNL     1       2.000   3.565  18.177  0.00  0.00    +0.000 A 
ATOM     18  F   UNL     1       2.192   2.942  17.006  0.00  0.00    +0.000 F 
ENDBRANCH  10  11
ENDBRANCH   9  10
ENDBRANCH   4   9
BRANCH   6  19
ATOM     19  S   UNL     1       8.256   8.726  17.390  0.00  0.00    +0.000 S 
BRANCH  19  20
ATOM     20  C   UNL     1       8.657   9.573  18.947  0.00  0.00    +0.000 C 
BRANCH  20  21
ATOM     21  C   UNL     1       9.479  10.823  18.712  0.00  0.00    +0.000 A 
ATOM     22  C   UNL     1      10.751  10.991  19.284  0.00  0.00    +0.000 A 
ATOM     23  C   UNL     1      11.497  12.153  19.043  0.00  0.00    +0.000 A 
ATOM     24  C   UNL     1      10.981  13.167  18.236  0.00  0.00    +0.000 A 
ATOM     25  C   UNL     1       9.717  13.019  17.673  0.00  0.00    +0.000 A 
ATOM     26  C   UNL     1       8.981  11.860  17.914  0.00  0.00    +0.000 A 
ATOM     27  F   UNL     1       7.768  11.743  17.353  0.00  0.00    +0.000 F 
ENDBRANCH  20  21
ENDBRANCH  19  20
ENDBRANCH   6  19
TORSDOF 6
ENDMDL
MODEL 3
REMARK VINA RESULT:      -8.1      1.633      2.067
REMARK  Name = 
REMARK  6 active torsions:
REMARK  status: ('A' for Active; 'I' for Inactive)
REMARK    1  A    between atoms: C_4  and  S_5
REMARK    2  A    between atoms: S_5  and  C_6
REMARK    3  A    between atoms: C_6  and  C_7
REMARK    4  A    between atoms: C_16  and  S_17
REMARK    5  A    between atoms: S_17  and  C_18
REMARK    6  A    between atoms: C_18  and  C_19
REMARK                            x       y       z     vdW  Elec       q    Type
REMARK                         _______ _______ _______ _____ _____    ______ ____
ROOT
ATOM      1  O   UNL     1       8.642   5.058  19.614  0.00  0.00    +0.000 OA
ATOM      2  C   UNL     1       7.948   5.726  18.857  0.00  0.00    +0.000 A 
ATOM      3  N   UNL     1       6.846   5.237  18.227  0.00  0.00    +0.000 NA
ATOM      4  C   UNL     1       6.188   6.008  17.430  0.00  0.00    +0.000 A 
ATOM      5  N   UNL     1       6.502   7.310  17.173  0.00  0.00    +0.000 NA
ATOM      6  C   UNL     1       7.537   7.762  17.781  0.00  0.00    +0.000 A 
ATOM      7  N   UNL     1       8.279   7.020  18.622  0.00  0.00    +0.000 N 
ATOM      8  H   UNL     1       9.101   7.386  19.071  0.00  0.00    +0.000 HD
ENDROOT
BRANCH   4   9
ATOM      9  S   UNL     1       4.766   5.309  16.656  0.00  0.00    +0.000 S 
BRANCH   9  10
ATOM     10  C   UNL     1       4.484   3.832  17.673  0.00  0.00    +0.000 C 
BRANCH  10  11
ATOM     11  C   UNL     1       3.315   3.993  18.614  0.00  0.00    +0.000 A 
ATOM     12  C   UNL     1       3.437   4.774  19.766  0.00  0.00    +0.000 A 
ATOM     13  F   UNL     1       4.594   5.399  20.025  0.00  0.00    +0.000 F 
ATOM     14  C   UNL     1       2.378   4.942  20.662  0.00  0.00    +0.000 A 
ATOM     15  C   UNL     1       1.158   4.319  20.419  0.00  0.00    +0.000 A 
ATOM     16  C   UNL     1       1.008   3.536  19.274  0.00  0.00    +0.000 A 
ATOM     17  C   UNL     1       2.079   3.382  18.386  0.00  0.00    +0.000 A 
ATOM     18  F   UNL     1       1.890   2.640  17.286  0.00  0.00    +0.000 F 
ENDBRANCH  10  11
ENDBRANCH   9  10
ENDBRANCH   4   9
BRANCH   6  19
ATOM     19  S   UNL     1       8.177   9.363  17.572  0.00  0.00    +0.000 S 
BRANCH  19  20
ATOM     20  C   UNL     1       8.921   9.702  19.196  0.00  0.00    +0.000 C 
BRANCH  20  21
ATOM     21  C   UNL     1       9.755  10.964  19.180  0.00  0.00    +0.000 A 
ATOM     22  C   UNL     1      10.326  11.459  17.995  0.00  0.00    +0.000 A 
ATOM     23  C   UNL     1      11.086  12.637  18.004  0.00  0.00    +0.000 A 
ATOM     24  C   UNL     1      11.296  13.332  19.195  0.00  0.00    +0.000 A 
ATOM     25  C   UNL     1      10.747  12.846  20.378  0.00  0.00    +0.000 A 
ATOM     26  C   UNL     1       9.989  11.676  20.363  0.00  0.00    +0.000 A 
ATOM     27  F   UNL     1       9.467  11.235  21.516  0.00  0.00    +0.000 F 
ENDBRANCH  20  21
ENDBRANCH  19  20
ENDBRANCH   6  19
TORSDOF 6
ENDMDL
MODEL 4
REMARK VINA RESULT:      -8.0      1.646      2.433
REMARK  Name = 
REMARK  6 active torsions:
REMARK  status: ('A' for Active; 'I' for Inactive)
REMARK    1  A    between atoms: C_4  and  S_5
REMARK    2  A    between atoms: S_5  and  C_6
REMARK    3  A    between atoms: C_6  and  C_7
REMARK    4  A    between atoms: C_16  and  S_17
REMARK    5  A    between atoms: S_17  and  C_18
REMARK    6  A    between atoms: C_18  and  C_19
REMARK                            x       y       z     vdW  Elec       q    Type
REMARK                         _______ _______ _______ _____ _____    ______ ____
ROOT
ATOM      1  O   UNL     1       8.243   5.150  20.677  0.00  0.00    +0.000 OA
ATOM      2  C   UNL     1       7.712   5.569  19.655  0.00  0.00    +0.000 A 
ATOM      3  N   UNL     1       6.748   4.888  18.981  0.00  0.00    +0.000 NA
ATOM      4  C   UNL     1       6.261   5.397  17.901  0.00  0.00    +0.000 A 
ATOM      5  N   UNL     1       6.629   6.599  17.375  0.00  0.00    +0.000 NA
ATOM      6  C   UNL     1       7.532   7.237  18.025  0.00  0.00    +0.000 A 
ATOM      7  N   UNL     1       8.093   6.770  19.154  0.00  0.00    +0.000 N 
ATOM      8  H   UNL     1       8.817   7.275  19.637  0.00  0.00    +0.000 HD
ENDROOT
BRANCH   4   9
ATOM      9  S   UNL     1       5.008   4.462  17.086  0.00  0.00    +0.000 S 
BRANCH   9  10
ATOM     10  C   UNL     1       3.523   5.440  17.452  0.00  0.00    +0.000 C 
BRANCH  10  11
ATOM     11  C   UNL     1       2.560   4.714  18.359  0.00  0.00    +0.000 A 
ATOM     12  C   UNL     1       1.978   3.510  17.954  0.00  0.00    +0.000 A 
ATOM     13  F   UNL     1       2.294   2.990  16.759  0.00  0.00    +0.000 F 
ATOM     14  C   UNL     1       1.080   2.812  18.764  0.00  0.00    +0.000 A 
ATOM     15  C   UNL     1       0.740   3.315  20.017  0.00  0.00    +0.000 A 
ATOM     16  C   UNL     1       1.309   4.513  20.447  0.00  0.00    +0.000 A 
ATOM     17  C   UNL     1       2.210   5.197  19.623  0.00  0.00    +0.000 A 
ATOM     18  F   UNL     1       2.753   6.334  20.081  0.00  0.00    +0.000 F 
ENDBRANCH  10  11
ENDBRANCH   9  10
ENDBRANCH   4   9
BRANCH   6  19
ATOM     19  S   UNL     1       8.214   8.755  17.527  0.00  0.00    +0.000 S 
BRANCH  19  20
ATOM     20  C   UNL     1       8.737   9.486  19.107  0.00  0.00    +0.000 C 
BRANCH  20  21
ATOM     21  C   UNL     1       9.207  10.915  18.937  0.00  0.00    +0.000 A 
ATOM     22  C   UNL     1       9.010  11.621  17.738  0.00  0.00    +0.000 A 
ATOM     23  C   UNL     1       9.445  12.947  17.609  0.00  0.00    +0.000 A 
ATOM     24  C   UNL     1      10.091  13.584  18.668  0.00  0.00    +0.000 A 
ATOM     25  C   UNL     1      10.305  12.892  19.857  0.00  0.00    +0.000 A 
ATOM     26  C   UNL     1       9.867  11.574  19.981  0.00  0.00    +0.000 A 
ATOM     27  F   UNL     1      10.080  10.934  21.140  0.00  0.00    +0.000 F 
ENDBRANCH  20  21
ENDBRANCH  19  20
ENDBRANCH   6  19
TORSDOF 6
ENDMDL
MODEL 5
REMARK VINA RESULT:      -7.9      0.993      7.950
REMARK  Name = 
REMARK  6 active torsions:
REMARK  status: ('A' for Active; 'I' for Inactive)
REMARK    1  A    between atoms: C_4  and  S_5
REMARK    2  A    between atoms: S_5  and  C_6
REMARK    3  A    between atoms: C_6  and  C_7
REMARK    4  A    between atoms: C_16  and  S_17
REMARK    5  A    between atoms: S_17  and  C_18
REMARK    6  A    between atoms: C_18  and  C_19
REMARK                            x       y       z     vdW  Elec       q    Type
REMARK                         _______ _______ _______ _____ _____    ______ ____
ROOT
ATOM      1  O   UNL     1       8.136   5.137  20.091  0.00  0.00    +0.000 OA
ATOM      2  C   UNL     1       7.962   5.760  19.050  0.00  0.00    +0.000 A 
ATOM      3  N   UNL     1       8.120   7.107  18.949  0.00  0.00    +0.000 NA
ATOM      4  C   UNL     1       7.894   7.680  17.817  0.00  0.00    +0.000 A 
ATOM      5  N   UNL     1       7.515   7.031  16.679  0.00  0.00    +0.000 NA
ATOM      6  C   UNL     1       7.380   5.759  16.784  0.00  0.00    +0.000 A 
ATOM      7  N   UNL     1       7.590   5.090  17.931  0.00  0.00    +0.000 N 
ATOM      8  H   UNL     1       7.455   4.095  17.999  0.00  0.00    +0.000 HD
ENDROOT
BRANCH   4   9
ATOM      9  S   UNL     1       8.128   9.427  17.759  0.00  0.00    +0.000 S 
BRANCH   9  10
ATOM     10  C   UNL     1       9.262   9.691  19.153  0.00  0.00    +0.000 C 
BRANCH  10  11
ATOM     11  C   UNL     1       9.661  11.138  19.307  0.00  0.00    +0.000 A 
ATOM     12  C   UNL     1       9.304  11.851  20.454  0.00  0.00    +0.000 A 
ATOM     13  F   UNL     1       8.620  11.238  21.431  0.00  0.00    +0.000 F 
ATOM     14  C   UNL     1       9.652  13.192  20.630  0.00  0.00    +0.000 A 
ATOM     15  C   UNL     1      10.373  13.858  19.642  0.00  0.00    +0.000 A 
ATOM     16  C   UNL     1      10.745  13.168  18.489  0.00  0.00    +0.000 A 
ATOM     17  C   UNL     1      10.391  11.823  18.332  0.00  0.00    +0.000 A 
ATOM     18  F   UNL     1      10.785  11.188  17.219  0.00  0.00    +0.000 F 
ENDBRANCH  10  11
ENDBRANCH   9  10
ENDBRANCH   4   9
BRANCH   6  19
ATOM     19  S   UNL     1       6.847   4.720  15.500  0.00  0.00    +0.000 S 
BRANCH  19  20
ATOM     20  C   UNL     1       5.070   5.092  15.407  0.00  0.00    +0.000 C 
BRANCH  20  21
ATOM     21  C   UNL     1       4.382   4.885  16.739  0.00  0.00    +0.000 A 
ATOM     22  C   UNL     1       4.119   3.601  17.244  0.00  0.00    +0.000 A 
ATOM     23  C   UNL     1       3.488   3.436  18.486  0.00  0.00    +0.000 A 
ATOM     24  C   UNL     1       3.104   4.547  19.235  0.00  0.00    +0.000 A 
ATOM     25  C   UNL     1       3.347   5.826  18.740  0.00  0.00    +0.000 A 
ATOM     26  C   UNL     1       3.977   5.984  17.506  0.00  0.00    +0.000 A 
ATOM     27  F   UNL     1       4.203   7.227  17.057  0.00  0.00    +0.000 F 
ENDBRANCH  20  21
ENDBRANCH  19  20
ENDBRANCH   6  19
TORSDOF 6
ENDMDL
MODEL 6
REMARK VINA RESULT:      -7.9      1.573      8.481
REMARK  Name = 
REMARK  6 active torsions:
REMARK  status: ('A' for Active; 'I' for Inactive)
REMARK    1  A    between atoms: C_4  and  S_5
REMARK    2  A    between atoms: S_5  and  C_6
REMARK    3  A    between atoms: C_6  and  C_7
REMARK    4  A    between atoms: C_16  and  S_17
REMARK    5  A    between atoms: S_17  and  C_18
REMARK    6  A    between atoms: C_18  and  C_19
REMARK                            x       y       z     vdW  Elec       q    Type
REMARK                         _______ _______ _______ _____ _____    ______ ____
ROOT
ATOM      1  O   UNL     1       8.399   5.138  19.735  0.00  0.00    +0.000 OA
ATOM      2  C   UNL     1       7.890   5.919  18.938  0.00  0.00    +0.000 A 
ATOM      3  N   UNL     1       8.309   7.203  18.780  0.00  0.00    +0.000 NA
ATOM      4  C   UNL     1       7.699   7.960  17.933  0.00  0.00    +0.000 A 
ATOM      5  N   UNL     1       6.654   7.566  17.151  0.00  0.00    +0.000 NA
ATOM      6  C   UNL     1       6.275   6.350  17.301  0.00  0.00    +0.000 A 
ATOM      7  N   UNL     1       6.855   5.501  18.168  0.00  0.00    +0.000 N 
ATOM      8  H   UNL     1       6.528   4.557  18.289  0.00  0.00    +0.000 HD
ENDROOT
BRANCH   4   9
ATOM      9  S   UNL     1       8.303   9.609  17.775  0.00  0.00    +0.000 S 
BRANCH   9  10
ATOM     10  C   UNL     1       9.332   9.767  19.262  0.00  0.00    +0.000 C 
BRANCH  10  11
ATOM     11  C   UNL     1       9.789  11.185  19.501  0.00  0.00    +0.000 A 
ATOM     12  C   UNL     1      10.535  11.860  18.532  0.00  0.00    +0.000 A 
ATOM     13  F   UNL     1      10.829  11.249  17.375  0.00  0.00    +0.000 F 
ATOM     14  C   UNL     1      10.979  13.171  18.719  0.00  0.00    +0.000 A 
ATOM     15  C   UNL     1      10.683  13.842  19.903  0.00  0.00    +0.000 A 
ATOM     16  C   UNL     1       9.936  13.192  20.885  0.00  0.00    +0.000 A 
ATOM     17  C   UNL     1       9.496  11.879  20.678  0.00  0.00    +0.000 A 
ATOM     18  F   UNL     1       8.763  11.297  21.636  0.00  0.00    +0.000 F 
ENDBRANCH  10  11
ENDBRANCH   9  10
ENDBRANCH   4   9
BRANCH   6  19
ATOM     19  S   UNL     1       4.931   5.630  16.471  0.00  0.00    +0.000 S 
BRANCH  19  20
ATOM     20  C   UNL     1       3.509   6.247  17.420  0.00  0.00    +0.000 C 
BRANCH  20  21
ATOM     21  C   UNL     1       2.841   5.144  18.213  0.00  0.00    +0.000 A 
ATOM     22  C   UNL     1       1.790   4.381  17.679  0.00  0.00    +0.000 A 
ATOM     23  C   UNL     1       1.194   3.358  18.430  0.00  0.00    +0.000 A 
ATOM     24  C   UNL     1       1.632   3.088  19.726  0.00  0.00    +0.000 A 
ATOM     25  C   UNL     1       2.665   3.845  20.273  0.00  0.00    +0.000 A 
ATOM     26  C   UNL     1       3.256   4.859  19.520  0.00  0.00    +0.000 A 
ATOM     27  F   UNL     1       4.252   5.568  20.070  0.00  0.00    +0.000 F 
ENDBRANCH  20  21
ENDBRANCH  19  20
ENDBRANCH   6  19
TORSDOF 6
ENDMDL
MODEL 7
REMARK VINA RESULT:      -7.9      1.584      8.534
REMARK  Name = 
REMARK  6 active torsions:
REMARK  status: ('A' for Active; 'I' for Inactive)
REMARK    1  A    between atoms: C_4  and  S_5
REMARK    2  A    between atoms: S_5  and  C_6
REMARK    3  A    between atoms: C_6  and  C_7
REMARK    4  A    between atoms: C_16  and  S_17
REMARK    5  A    between atoms: S_17  and  C_18
REMARK    6  A    between atoms: C_18  and  C_19
REMARK                            x       y       z     vdW  Elec       q    Type
REMARK                         _______ _______ _______ _____ _____    ______ ____
ROOT
ATOM      1  O   UNL     1       8.476   5.046  19.944  0.00  0.00    +0.000 OA
ATOM      2  C   UNL     1       7.877   5.768  19.155  0.00  0.00    +0.000 A 
ATOM      3  N   UNL     1       8.264   7.038  18.862  0.00  0.00    +0.000 NA
ATOM      4  C   UNL     1       7.559   7.732  18.035  0.00  0.00    +0.000 A 
ATOM      5  N   UNL     1       6.439   7.281  17.401  0.00  0.00    +0.000 NA
ATOM      6  C   UNL     1       6.090   6.078  17.677  0.00  0.00    +0.000 A 
ATOM      7  N   UNL     1       6.769   5.294  18.533  0.00  0.00    +0.000 N 
ATOM      8  H   UNL     1       6.465   4.361  18.755  0.00  0.00    +0.000 HD
ENDROOT
BRANCH   4   9
ATOM      9  S   UNL     1       8.126   9.366  17.697  0.00  0.00    +0.000 S 
BRANCH   9  10
ATOM     10  C   UNL     1       9.167   9.701  19.147  0.00  0.00    +0.000 C 
BRANCH  10  11
ATOM     11  C   UNL     1       9.622  11.138  19.213  0.00  0.00    +0.000 A 
ATOM     12  C   UNL     1       9.294  11.933  20.315  0.00  0.00    +0.000 A 
ATOM     13  F   UNL     1       8.589  11.407  21.326  0.00  0.00    +0.000 F 
ATOM     14  C   UNL     1       9.693  13.268  20.409  0.00  0.00    +0.000 A 
ATOM     15  C   UNL     1      10.438  13.844  19.383  0.00  0.00    +0.000 A 
ATOM     16  C   UNL     1      10.781  13.072  18.274  0.00  0.00    +0.000 A 
ATOM     17  C   UNL     1      10.375  11.734  18.199  0.00  0.00    +0.000 A 
ATOM     18  F   UNL     1      10.744  11.018  17.127  0.00  0.00    +0.000 F 
ENDBRANCH  10  11
ENDBRANCH   9  10
ENDBRANCH   4   9
BRANCH   6  19
ATOM     19  S   UNL     1       4.671   5.299  17.050  0.00  0.00    +0.000 S 
BRANCH  19  20
ATOM     20  C   UNL     1       3.335   6.124  17.966  0.00  0.00    +0.000 C 
BRANCH  20  21
ATOM     21  C   UNL     1       2.599   5.163  18.874  0.00  0.00    +0.000 A 
ATOM     22  C   UNL     1       2.818   5.140  20.262  0.00  0.00    +0.000 A 
ATOM     23  C   UNL     1       2.116   4.247  21.084  0.00  0.00    +0.000 A 
ATOM     24  C   UNL     1       1.193   3.359  20.532  0.00  0.00    +0.000 A 
ATOM     25  C   UNL     1       0.975   3.361  19.158  0.00  0.00    +0.000 A 
ATOM     26  C   UNL     1       1.674   4.254  18.345  0.00  0.00    +0.000 A 
ATOM     27  F   UNL     1       1.439   4.238  17.026  0.00  0.00    +0.000 F 
ENDBRANCH  20  21
ENDBRANCH  19  20
ENDBRANCH   6  19
TORSDOF 6
ENDMDL
MODEL 8
REMARK VINA RESULT:      -7.9      1.758      2.343
REMARK  Name = 
REMARK  6 active torsions:
REMARK  status: ('A' for Active; 'I' for Inactive)
REMARK    1  A    between atoms: C_4  and  S_5
REMARK    2  A    between atoms: S_5  and  C_6
REMARK    3  A    between atoms: C_6  and  C_7
REMARK    4  A    between atoms: C_16  and  S_17
REMARK    5  A    between atoms: S_17  and  C_18
REMARK    6  A    between atoms: C_18  and  C_19
REMARK                            x       y       z     vdW  Elec       q    Type
REMARK                         _______ _______ _______ _____ _____    ______ ____
ROOT
ATOM      1  O   UNL     1       8.349   5.073  19.929  0.00  0.00    +0.000 OA
ATOM      2  C   UNL     1       7.703   5.747  19.134  0.00  0.00    +0.000 A 
ATOM      3  N   UNL     1       6.516   5.346  18.606  0.00  0.00    +0.000 NA
ATOM      4  C   UNL     1       5.917   6.112  17.760  0.00  0.00    +0.000 A 
ATOM      5  N   UNL     1       6.377   7.329  17.353  0.00  0.00    +0.000 NA
ATOM      6  C   UNL     1       7.493   7.701  17.865  0.00  0.00    +0.000 A 
ATOM      7  N   UNL     1       8.181   6.955  18.748  0.00  0.00    +0.000 N 
ATOM      8  H   UNL     1       9.066   7.255  19.121  0.00  0.00    +0.000 HD
ENDROOT
BRANCH   4   9
ATOM      9  S   UNL     1       4.378   5.531  17.126  0.00  0.00    +0.000 S 
BRANCH   9  10
ATOM     10  C   UNL     1       4.350   3.822  17.739  0.00  0.00    +0.000 C 
BRANCH  10  11
ATOM     11  C   UNL     1       3.305   3.607  18.806  0.00  0.00    +0.000 A 
ATOM     12  C   UNL     1       3.649   3.014  20.023  0.00  0.00    +0.000 A 
ATOM     13  F   UNL     1       4.920   2.652  20.249  0.00  0.00    +0.000 F 
ATOM     14  C   UNL     1       2.708   2.795  21.032  0.00  0.00    +0.000 A 
ATOM     15  C   UNL     1       1.382   3.170  20.837  0.00  0.00    +0.000 A 
ATOM     16  C   UNL     1       1.013   3.767  19.633  0.00  0.00    +0.000 A 
ATOM     17  C   UNL     1       1.970   3.981  18.634  0.00  0.00    +0.000 A 
ATOM     18  F   UNL     1       1.580   4.578  17.499  0.00  0.00    +0.000 F 
ENDBRANCH  10  11
ENDBRANCH   9  10
ENDBRANCH   4   9
BRANCH   6  19
ATOM     19  S   UNL     1       8.316   9.174  17.460  0.00  0.00    +0.000 S 
BRANCH  19  20
ATOM     20  C   UNL     1       8.882   9.765  19.083  0.00  0.00    +0.000 C 
BRANCH  20  21
ATOM     21  C   UNL     1       9.694  11.037  18.967  0.00  0.00    +0.000 A 
ATOM     22  C   UNL     1      10.899  11.212  19.668  0.00  0.00    +0.000 A 
ATOM     23  C   UNL     1      11.639  12.396  19.536  0.00  0.00    +0.000 A 
ATOM     24  C   UNL     1      11.184  13.424  18.710  0.00  0.00    +0.000 A 
ATOM     25  C   UNL     1       9.985  13.269  18.020  0.00  0.00    +0.000 A 
ATOM     26  C   UNL     1       9.255  12.088  18.153  0.00  0.00    +0.000 A 
ATOM     27  F   UNL     1       8.107  11.965  17.471  0.00  0.00    +0.000 F 
ENDBRANCH  20  21
ENDBRANCH  19  20
ENDBRANCH   6  19
TORSDOF 6
ENDMDL
MODEL 9
REMARK VINA RESULT:      -7.9      1.661      2.077
REMARK  Name = 
REMARK  6 active torsions:
REMARK  status: ('A' for Active; 'I' for Inactive)
REMARK    1  A    between atoms: C_4  and  S_5
REMARK    2  A    between atoms: S_5  and  C_6
REMARK    3  A    between atoms: C_6  and  C_7
REMARK    4  A    between atoms: C_16  and  S_17
REMARK    5  A    between atoms: S_17  and  C_18
REMARK    6  A    between atoms: C_18  and  C_19
REMARK                            x       y       z     vdW  Elec       q    Type
REMARK                         _______ _______ _______ _____ _____    ______ ____
ROOT
ATOM      1  O   UNL     1       8.432   5.283  19.985  0.00  0.00    +0.000 OA
ATOM      2  C   UNL     1       7.843   5.911  19.112  0.00  0.00    +0.000 A 
ATOM      3  N   UNL     1       6.754   5.431  18.452  0.00  0.00    +0.000 NA
ATOM      4  C   UNL     1       6.212   6.154  17.533  0.00  0.00    +0.000 A 
ATOM      5  N   UNL     1       6.639   7.397  17.169  0.00  0.00    +0.000 NA
ATOM      6  C   UNL     1       7.660   7.842  17.805  0.00  0.00    +0.000 A 
ATOM      7  N   UNL     1       8.284   7.146  18.772  0.00  0.00    +0.000 N 
ATOM      8  H   UNL     1       9.098   7.504  19.243  0.00  0.00    +0.000 HD
ENDROOT
BRANCH   4   9
ATOM      9  S   UNL     1       4.800   5.472  16.727  0.00  0.00    +0.000 S 
BRANCH   9  10
ATOM     10  C   UNL     1       3.500   5.755  17.964  0.00  0.00    +0.000 C 
BRANCH  10  11
ATOM     11  C   UNL     1       2.898   4.469  18.475  0.00  0.00    +0.000 A 
ATOM     12  C   UNL     1       1.634   4.059  18.043  0.00  0.00    +0.000 A 
ATOM     13  F   UNL     1       0.962   4.805  17.155  0.00  0.00    +0.000 F 
ATOM     14  C   UNL     1       1.044   2.878  18.497  0.00  0.00    +0.000 A 
ATOM     15  C   UNL     1       1.717   2.072  19.410  0.00  0.00    +0.000 A 
ATOM     16  C   UNL     1       2.982   2.455  19.854  0.00  0.00    +0.000 A 
ATOM     17  C   UNL     1       3.560   3.641  19.385  0.00  0.00    +0.000 A 
ATOM     18  F   UNL     1       4.786   3.965  19.819  0.00  0.00    +0.000 F 
ENDBRANCH  10  11
ENDBRANCH   9  10
ENDBRANCH   4   9
BRANCH   6  19
ATOM     19  S   UNL     1       8.429   9.365  17.484  0.00  0.00    +0.000 S 
BRANCH  19  20
ATOM     20  C   UNL     1       8.930   9.909  19.145  0.00  0.00    +0.000 C 
BRANCH  20  21
ATOM     21  C   UNL     1       9.788  11.154  19.094  0.00  0.00    +0.000 A 
ATOM     22  C   UNL     1      11.024  11.228  19.757  0.00  0.00    +0.000 A 
ATOM     23  C   UNL     1      11.806  12.390  19.687  0.00  0.00    +0.000 A 
ATOM     24  C   UNL     1      11.362  13.496  18.962  0.00  0.00    +0.000 A 
ATOM     25  C   UNL     1      10.133  13.441  18.311  0.00  0.00    +0.000 A 
ATOM     26  C   UNL     1       9.361  12.282  18.382  0.00  0.00    +0.000 A 
ATOM     27  F   UNL     1       8.185  12.255  17.739  0.00  0.00    +0.000 F 
ENDBRANCH  20  21
ENDBRANCH  19  20
ENDBRANCH   6  19
TORSDOF 6
ENDMDL
