MODEL 1
REMARK VINA RESULT:      -8.2      0.000      0.000
REMARK  Name = 
REMARK  4 active torsions:
REMARK  status: ('A' for Active; 'I' for Inactive)
REMARK    1  A    between atoms: C_1  and  C_2
REMARK    2  A    between atoms: C_5  and  C_7
REMARK    3  A    between atoms: C_16  and  C_18
REMARK    4  A    between atoms: C_18  and  C_20
REMARK                            x       y       z     vdW  Elec       q    Type
REMARK                         _______ _______ _______ _____ _____    ______ ____
ROOT
ATOM      1  C   UNL     1       1.304  11.577  20.162  0.00  0.00    +0.000 C 
ATOM      2  C   UNL     1       0.653  10.184  20.265  0.00  0.00    +0.000 C 
ATOM      3  C   UNL     1      -0.869  10.328  20.214  0.00  0.00    +0.000 C 
ATOM      4  N   UNL     1      -1.357  10.765  18.896  0.00  0.00    +0.000 N 
ATOM      5  C   UNL     1      -2.453  11.620  18.685  0.00  0.00    +0.000 C 
ATOM      6  O   UNL     1      -2.771  11.989  17.553  0.00  0.00    +0.000 OA
ATOM      7  C   UNL     1      -0.796  10.029  17.745  0.00  0.00    +0.000 C 
ATOM      8  C   UNL     1       0.711   9.643  17.855  0.00  0.00    +0.000 C 
ATOM      9  N   UNL     1       1.102   9.254  19.219  0.00  0.00    +0.000 N 
ATOM     10  C   UNL     1       1.892   8.162  19.586  0.00  0.00    +0.000 C 
ATOM     11  O   UNL     1       2.089   7.826  20.752  0.00  0.00    +0.000 OA
ENDROOT
BRANCH   5  12
ATOM     12  C   UNL     1      -3.277  12.144  19.829  0.00  0.00    +0.000 A 
ATOM     13  C   UNL     1      -2.627  12.753  20.916  0.00  0.00    +0.000 A 
ATOM     14  C   UNL     1      -3.365  13.247  22.002  0.00  0.00    +0.000 A 
ATOM     15  C   UNL     1      -4.752  13.125  22.020  0.00  0.00    +0.000 A 
ATOM     16  C   UNL     1      -5.410  12.565  20.929  0.00  0.00    +0.000 A 
ATOM     17  C   UNL     1      -4.674  12.123  19.827  0.00  0.00    +0.000 A 
ENDBRANCH   5  12
BRANCH  10  18
ATOM     18  C   UNL     1       2.685   7.400  18.528  0.00  0.00    +0.000 C 
ATOM     19  O   UNL     1       3.319   8.125  17.751  0.00  0.00    +0.000 OA
BRANCH  18  20
ATOM     20  C   UNL     1       2.788   5.940  18.379  0.00  0.00    +0.000 A 
ATOM     21  C   UNL     1       3.756   5.416  17.532  0.00  0.00    +0.000 A 
ATOM     22  N   UNL     1       3.319   4.176  17.157  0.00  0.00    +0.000 N 
ATOM     23  C   UNL     1       2.555   3.666  18.158  0.00  0.00    +0.000 A 
ATOM     24  C   UNL     1       2.194   2.336  18.385  0.00  0.00    +0.000 A 
ATOM     25  C   UNL     1       1.417   2.064  19.504  0.00  0.00    +0.000 A 
ATOM     26  C   UNL     1       0.949   3.110  20.304  0.00  0.00    +0.000 A 
ATOM     27  C   UNL     1       1.273   4.445  20.008  0.00  0.00    +0.000 A 
ATOM     28  F   UNL     1       0.777   5.405  20.802  0.00  0.00    +0.000 F 
ATOM     29  C   UNL     1       2.142   4.760  18.947  0.00  0.00    +0.000 A 
ATOM     30  H   UNL     1       3.623   3.682  16.313  0.00  0.00    +0.000 HD
ENDBRANCH  18  20
ENDBRANCH  10  18
TORSDOF 3
ENDMDL
MODEL 2
REMARK VINA RESULT:      -8.1      2.733      4.000
REMARK  Name = 
REMARK  4 active torsions:
REMARK  status: ('A' for Active; 'I' for Inactive)
REMARK    1  A    between atoms: C_1  and  C_2
REMARK    2  A    between atoms: C_5  and  C_7
REMARK    3  A    between atoms: C_16  and  C_18
REMARK    4  A    between atoms: C_18  and  C_20
REMARK                            x       y       z     vdW  Elec       q    Type
REMARK                         _______ _______ _______ _____ _____    ______ ____
ROOT
ATOM      1  C   UNL     1      -0.767  10.240  18.380  0.00  0.00    +0.000 C 
ATOM      2  C   UNL     1       0.751  10.338  18.632  0.00  0.00    +0.000 C 
ATOM      3  C   UNL     1       1.042  11.546  19.525  0.00  0.00    +0.000 C 
ATOM      4  N   UNL     1       0.544  11.374  20.898  0.00  0.00    +0.000 N 
ATOM      5  C   UNL     1       0.016  12.402  21.698  0.00  0.00    +0.000 C 
ATOM      6  O   UNL     1      -0.435  12.174  22.823  0.00  0.00    +0.000 OA
ATOM      7  C   UNL     1       0.879  10.081  21.529  0.00  0.00    +0.000 C 
ATOM      8  C   UNL     1       0.830   8.835  20.592  0.00  0.00    +0.000 C 
ATOM      9  N   UNL     1       1.319   9.124  19.234  0.00  0.00    +0.000 N 
ATOM     10  C   UNL     1       2.184   8.337  18.470  0.00  0.00    +0.000 C 
ATOM     11  O   UNL     1       2.645   8.690  17.386  0.00  0.00    +0.000 OA
ENDROOT
BRANCH   5  12
ATOM     12  C   UNL     1      -0.046  13.826  21.216  0.00  0.00    +0.000 A 
ATOM     13  C   UNL     1       1.031  14.686  21.490  0.00  0.00    +0.000 A 
ATOM     14  C   UNL     1       1.003  16.021  21.060  0.00  0.00    +0.000 A 
ATOM     15  C   UNL     1      -0.102  16.512  20.369  0.00  0.00    +0.000 A 
ATOM     16  C   UNL     1      -1.154  15.657  20.053  0.00  0.00    +0.000 A 
ATOM     17  C   UNL     1      -1.096  14.315  20.437  0.00  0.00    +0.000 A 
ENDBRANCH   5  12
BRANCH  10  18
ATOM     18  C   UNL     1       2.494   6.904  18.894  0.00  0.00    +0.000 C 
ATOM     19  O   UNL     1       2.208   6.653  20.073  0.00  0.00    +0.000 OA
BRANCH  18  20
ATOM     20  C   UNL     1       3.043   5.830  18.053  0.00  0.00    +0.000 A 
ATOM     21  C   UNL     1       2.245   4.733  17.755  0.00  0.00    +0.000 A 
ATOM     22  N   UNL     1       3.092   3.700  17.462  0.00  0.00    +0.000 N 
ATOM     23  C   UNL     1       4.236   4.214  16.939  0.00  0.00    +0.000 A 
ATOM     24  C   UNL     1       5.216   3.565  16.187  0.00  0.00    +0.000 A 
ATOM     25  C   UNL     1       6.291   4.323  15.742  0.00  0.00    +0.000 A 
ATOM     26  C   UNL     1       6.412   5.661  16.125  0.00  0.00    +0.000 A 
ATOM     27  C   UNL     1       5.442   6.268  16.942  0.00  0.00    +0.000 A 
ATOM     28  F   UNL     1       5.624   7.549  17.291  0.00  0.00    +0.000 F 
ATOM     29  C   UNL     1       4.284   5.569  17.329  0.00  0.00    +0.000 A 
ATOM     30  H   UNL     1       2.844   2.709  17.523  0.00  0.00    +0.000 HD
ENDBRANCH  18  20
ENDBRANCH  10  18
TORSDOF 3
ENDMDL
MODEL 3
REMARK VINA RESULT:      -8.1      2.529      3.595
REMARK  Name = 
REMARK  4 active torsions:
REMARK  status: ('A' for Active; 'I' for Inactive)
REMARK    1  A    between atoms: C_1  and  C_2
REMARK    2  A    between atoms: C_5  and  C_7
REMARK    3  A    between atoms: C_16  and  C_18
REMARK    4  A    between atoms: C_18  and  C_20
REMARK                            x       y       z     vdW  Elec       q    Type
REMARK                         _______ _______ _______ _____ _____    ______ ____
ROOT
ATOM      1  C   UNL     1      -0.881  10.735  18.220  0.00  0.00    +0.000 C 
ATOM      2  C   UNL     1       0.658  10.739  18.297  0.00  0.00    +0.000 C 
ATOM      3  C   UNL     1       1.140  12.102  18.799  0.00  0.00    +0.000 C 
ATOM      4  N   UNL     1       0.791  12.347  20.207  0.00  0.00    +0.000 N 
ATOM      5  C   UNL     1       0.436  13.597  20.744  0.00  0.00    +0.000 C 
ATOM      6  O   UNL     1       0.102  13.718  21.924  0.00  0.00    +0.000 OA
ATOM      7  C   UNL     1       1.098  11.236  21.131  0.00  0.00    +0.000 C 
ATOM      8  C   UNL     1       0.849   9.801  20.575  0.00  0.00    +0.000 C 
ATOM      9  N   UNL     1       1.199   9.673  19.151  0.00  0.00    +0.000 N 
ATOM     10  C   UNL     1       1.909   8.629  18.554  0.00  0.00    +0.000 C 
ATOM     11  O   UNL     1       2.268   8.637  17.378  0.00  0.00    +0.000 OA
ENDROOT
BRANCH   5  12
ATOM     12  C   UNL     1       0.427  14.844  19.902  0.00  0.00    +0.000 A 
ATOM     13  C   UNL     1      -0.805  15.425  19.557  0.00  0.00    +0.000 A 
ATOM     14  C   UNL     1      -0.849  16.584  18.769  0.00  0.00    +0.000 A 
ATOM     15  C   UNL     1       0.330  17.163  18.305  0.00  0.00    +0.000 A 
ATOM     16  C   UNL     1       1.556  16.622  18.678  0.00  0.00    +0.000 A 
ATOM     17  C   UNL     1       1.596  15.499  19.508  0.00  0.00    +0.000 A 
ENDBRANCH   5  12
BRANCH  10  18
ATOM     18  C   UNL     1       2.158   7.333  19.320  0.00  0.00    +0.000 C 
ATOM     19  O   UNL     1       1.862   7.391  20.521  0.00  0.00    +0.000 OA
BRANCH  18  20
ATOM     20  C   UNL     1       2.660   6.063  18.774  0.00  0.00    +0.000 A 
ATOM     21  C   UNL     1       3.870   6.053  18.094  0.00  0.00    +0.000 A 
ATOM     22  N   UNL     1       3.845   4.965  17.265  0.00  0.00    +0.000 N 
ATOM     23  C   UNL     1       3.066   4.007  17.833  0.00  0.00    +0.000 A 
ATOM     24  C   UNL     1       3.024   2.641  17.550  0.00  0.00    +0.000 A 
ATOM     25  C   UNL     1       2.150   1.858  18.293  0.00  0.00    +0.000 A 
ATOM     26  C   UNL     1       1.289   2.454  19.218  0.00  0.00    +0.000 A 
ATOM     27  C   UNL     1       1.307   3.844  19.429  0.00  0.00    +0.000 A 
ATOM     28  F   UNL     1       0.442   4.357  20.316  0.00  0.00    +0.000 F 
ATOM     29  C   UNL     1       2.247   4.662  18.776  0.00  0.00    +0.000 A 
ATOM     30  H   UNL     1       4.417   4.863  16.422  0.00  0.00    +0.000 HD
ENDBRANCH  18  20
ENDBRANCH  10  18
TORSDOF 3
ENDMDL
MODEL 4
REMARK VINA RESULT:      -8.1      3.606      4.603
REMARK  Name = 
REMARK  4 active torsions:
REMARK  status: ('A' for Active; 'I' for Inactive)
REMARK    1  A    between atoms: C_1  and  C_2
REMARK    2  A    between atoms: C_5  and  C_7
REMARK    3  A    between atoms: C_16  and  C_18
REMARK    4  A    between atoms: C_18  and  C_20
REMARK                            x       y       z     vdW  Elec       q    Type
REMARK                         _______ _______ _______ _____ _____    ______ ____
ROOT
ATOM      1  C   UNL     1      -1.640  12.709  19.711  0.00  0.00    +0.000 C 
ATOM      2  C   UNL     1      -0.508  12.341  18.732  0.00  0.00    +0.000 C 
ATOM      3  C   UNL     1       0.257  13.607  18.339  0.00  0.00    +0.000 C 
ATOM      4  N   UNL     1       1.028  14.177  19.455  0.00  0.00    +0.000 N 
ATOM      5  C   UNL     1       1.226  15.551  19.678  0.00  0.00    +0.000 C 
ATOM      6  O   UNL     1       1.838  15.959  20.667  0.00  0.00    +0.000 OA
ATOM      7  C   UNL     1       1.844  13.207  20.212  0.00  0.00    +0.000 C 
ATOM      8  C   UNL     1       1.201  11.805  20.435  0.00  0.00    +0.000 C 
ATOM      9  N   UNL     1       0.425  11.342  19.273  0.00  0.00    +0.000 N 
ATOM     10  C   UNL     1       0.443  10.066  18.707  0.00  0.00    +0.000 C 
ATOM     11  O   UNL     1      -0.143   9.774  17.666  0.00  0.00    +0.000 OA
ENDROOT
BRANCH   5  12
ATOM     12  C   UNL     1       0.683  16.591  18.737  0.00  0.00    +0.000 A 
ATOM     13  C   UNL     1      -0.679  16.929  18.805  0.00  0.00    +0.000 A 
ATOM     14  C   UNL     1      -1.218  17.890  17.937  0.00  0.00    +0.000 A 
ATOM     15  C   UNL     1      -0.410  18.509  16.986  0.00  0.00    +0.000 A 
ATOM     16  C   UNL     1       0.949  18.215  16.940  0.00  0.00    +0.000 A 
ATOM     17  C   UNL     1       1.491  17.296  17.842  0.00  0.00    +0.000 A 
ENDBRANCH   5  12
BRANCH  10  18
ATOM     18  C   UNL     1       1.097   8.906  19.453  0.00  0.00    +0.000 C 
ATOM     19  O   UNL     1       0.673   8.743  20.605  0.00  0.00    +0.000 OA
BRANCH  18  20
ATOM     20  C   UNL     1       2.115   7.979  18.934  0.00  0.00    +0.000 A 
ATOM     21  C   UNL     1       3.043   8.445  18.013  0.00  0.00    +0.000 A 
ATOM     22  N   UNL     1       3.485   7.354  17.316  0.00  0.00    +0.000 N 
ATOM     23  C   UNL     1       3.414   6.266  18.126  0.00  0.00    +0.000 A 
ATOM     24  C   UNL     1       4.062   5.037  17.989  0.00  0.00    +0.000 A 
ATOM     25  C   UNL     1       3.842   4.083  18.974  0.00  0.00    +0.000 A 
ATOM     26  C   UNL     1       2.929   4.333  20.002  0.00  0.00    +0.000 A 
ATOM     27  C   UNL     1       2.239   5.556  20.072  0.00  0.00    +0.000 A 
ATOM     28  F   UNL     1       1.363   5.728  21.072  0.00  0.00    +0.000 F 
ATOM     29  C   UNL     1       2.508   6.590  19.157  0.00  0.00    +0.000 A 
ATOM     30  H   UNL     1       3.905   7.391  16.383  0.00  0.00    +0.000 HD
ENDBRANCH  18  20
ENDBRANCH  10  18
TORSDOF 3
ENDMDL
MODEL 5
REMARK VINA RESULT:      -8.0      5.266      8.446
REMARK  Name = 
REMARK  4 active torsions:
REMARK  status: ('A' for Active; 'I' for Inactive)
REMARK    1  A    between atoms: C_1  and  C_2
REMARK    2  A    between atoms: C_5  and  C_7
REMARK    3  A    between atoms: C_16  and  C_18
REMARK    4  A    between atoms: C_18  and  C_20
REMARK                            x       y       z     vdW  Elec       q    Type
REMARK                         _______ _______ _______ _____ _____    ______ ____
ROOT
ATOM      1  C   UNL     1       2.387  12.329  18.166  0.00  0.00    +0.000 C 
ATOM      2  C   UNL     1       2.243  12.899  19.591  0.00  0.00    +0.000 C 
ATOM      3  C   UNL     1       3.134  14.133  19.738  0.00  0.00    +0.000 C 
ATOM      4  N   UNL     1       2.666  15.274  18.935  0.00  0.00    +0.000 N 
ATOM      5  C   UNL     1       3.502  16.206  18.296  0.00  0.00    +0.000 C 
ATOM      6  O   UNL     1       3.041  17.107  17.592  0.00  0.00    +0.000 OA
ATOM      7  C   UNL     1       1.224  15.571  19.050  0.00  0.00    +0.000 C 
ATOM      8  C   UNL     1       0.281  14.334  19.146  0.00  0.00    +0.000 C 
ATOM      9  N   UNL     1       0.857  13.238  19.943  0.00  0.00    +0.000 N 
ATOM     10  C   UNL     1       0.205  12.476  20.915  0.00  0.00    +0.000 C 
ATOM     11  O   UNL     1       0.774  11.650  21.626  0.00  0.00    +0.000 OA
ENDROOT
BRANCH   5  12
ATOM     12  C   UNL     1       5.000  16.140  18.421  0.00  0.00    +0.000 A 
ATOM     13  C   UNL     1       5.660  17.083  19.227  0.00  0.00    +0.000 A 
ATOM     14  C   UNL     1       7.056  17.053  19.360  0.00  0.00    +0.000 A 
ATOM     15  C   UNL     1       7.805  16.095  18.681  0.00  0.00    +0.000 A 
ATOM     16  C   UNL     1       7.158  15.128  17.917  0.00  0.00    +0.000 A 
ATOM     17  C   UNL     1       5.764  15.130  17.831  0.00  0.00    +0.000 A 
ENDBRANCH   5  12
BRANCH  10  18
ATOM     18  C   UNL     1      -1.315  12.535  21.044  0.00  0.00    +0.000 C 
ATOM     19  O   UNL     1      -1.714  12.836  22.176  0.00  0.00    +0.000 OA
BRANCH  18  20
ATOM     20  C   UNL     1      -2.304  12.313  19.979  0.00  0.00    +0.000 A 
ATOM     21  C   UNL     1      -3.462  13.080  19.964  0.00  0.00    +0.000 A 
ATOM     22  N   UNL     1      -4.400  12.360  19.275  0.00  0.00    +0.000 N 
ATOM     23  C   UNL     1      -3.762  11.583  18.361  0.00  0.00    +0.000 A 
ATOM     24  C   UNL     1      -4.291  10.964  17.227  0.00  0.00    +0.000 A 
ATOM     25  C   UNL     1      -3.420  10.233  16.429  0.00  0.00    +0.000 A 
ATOM     26  C   UNL     1      -2.090  10.062  16.819  0.00  0.00    +0.000 A 
ATOM     27  C   UNL     1      -1.605  10.641  18.005  0.00  0.00    +0.000 A 
ATOM     28  F   UNL     1      -0.323  10.423  18.334  0.00  0.00    +0.000 F 
ATOM     29  C   UNL     1      -2.423  11.474  18.789  0.00  0.00    +0.000 A 
ATOM     30  H   UNL     1      -5.411  12.487  19.365  0.00  0.00    +0.000 HD
ENDBRANCH  18  20
ENDBRANCH  10  18
TORSDOF 3
ENDMDL
MODEL 6
REMARK VINA RESULT:      -8.0      3.800      5.121
REMARK  Name = 
REMARK  4 active torsions:
REMARK  status: ('A' for Active; 'I' for Inactive)
REMARK    1  A    between atoms: C_1  and  C_2
REMARK    2  A    between atoms: C_5  and  C_7
REMARK    3  A    between atoms: C_16  and  C_18
REMARK    4  A    between atoms: C_18  and  C_20
REMARK                            x       y       z     vdW  Elec       q    Type
REMARK                         _______ _______ _______ _____ _____    ______ ____
ROOT
ATOM      1  C   UNL     1      -1.584  12.725  19.436  0.00  0.00    +0.000 C 
ATOM      2  C   UNL     1      -0.240  12.273  18.832  0.00  0.00    +0.000 C 
ATOM      3  C   UNL     1       0.620  13.500  18.527  0.00  0.00    +0.000 C 
ATOM      4  N   UNL     1       1.080  14.190  19.742  0.00  0.00    +0.000 N 
ATOM      5  C   UNL     1       1.234  15.582  19.869  0.00  0.00    +0.000 C 
ATOM      6  O   UNL     1       1.572  16.096  20.937  0.00  0.00    +0.000 OA
ATOM      7  C   UNL     1       1.654  13.312  20.781  0.00  0.00    +0.000 C 
ATOM      8  C   UNL     1       0.953  11.933  20.969  0.00  0.00    +0.000 C 
ATOM      9  N   UNL     1       0.502  11.345  19.697  0.00  0.00    +0.000 N 
ATOM     10  C   UNL     1       0.648  10.018  19.289  0.00  0.00    +0.000 C 
ATOM     11  O   UNL     1       0.351   9.615  18.165  0.00  0.00    +0.000 OA
ENDROOT
BRANCH   5  12
ATOM     12  C   UNL     1       0.974  16.514  18.717  0.00  0.00    +0.000 A 
ATOM     13  C   UNL     1      -0.333  16.981  18.498  0.00  0.00    +0.000 A 
ATOM     14  C   UNL     1      -0.611  17.846  17.430  0.00  0.00    +0.000 A 
ATOM     15  C   UNL     1       0.406  18.239  16.563  0.00  0.00    +0.000 A 
ATOM     16  C   UNL     1       1.712  17.819  16.796  0.00  0.00    +0.000 A 
ATOM     17  C   UNL     1       1.992  17.001  17.894  0.00  0.00    +0.000 A 
ENDBRANCH   5  12
BRANCH  10  18
ATOM     18  C   UNL     1       1.065   8.947  20.294  0.00  0.00    +0.000 C 
ATOM     19  O   UNL     1       0.742   9.198  21.462  0.00  0.00    +0.000 OA
BRANCH  18  20
ATOM     20  C   UNL     1       1.753   7.680  20.005  0.00  0.00    +0.000 A 
ATOM     21  C   UNL     1       1.446   6.559  20.765  0.00  0.00    +0.000 A 
ATOM     22  N   UNL     1       2.530   5.727  20.690  0.00  0.00    +0.000 N 
ATOM     23  C   UNL     1       3.147   5.926  19.496  0.00  0.00    +0.000 A 
ATOM     24  C   UNL     1       4.051   5.093  18.835  0.00  0.00    +0.000 A 
ATOM     25  C   UNL     1       4.528   5.515  17.601  0.00  0.00    +0.000 A 
ATOM     26  C   UNL     1       4.174   6.772  17.105  0.00  0.00    +0.000 A 
ATOM     27  C   UNL     1       3.315   7.618  17.828  0.00  0.00    +0.000 A 
ATOM     28  F   UNL     1       3.028   8.819  17.307  0.00  0.00    +0.000 F 
ATOM     29  C   UNL     1       2.725   7.190  19.032  0.00  0.00    +0.000 A 
ATOM     30  H   UNL     1       2.753   5.000  21.375  0.00  0.00    +0.000 HD
ENDBRANCH  18  20
ENDBRANCH  10  18
TORSDOF 3
ENDMDL
MODEL 7
REMARK VINA RESULT:      -7.9      2.523      3.685
REMARK  Name = 
REMARK  4 active torsions:
REMARK  status: ('A' for Active; 'I' for Inactive)
REMARK    1  A    between atoms: C_1  and  C_2
REMARK    2  A    between atoms: C_5  and  C_7
REMARK    3  A    between atoms: C_16  and  C_18
REMARK    4  A    between atoms: C_18  and  C_20
REMARK                            x       y       z     vdW  Elec       q    Type
REMARK                         _______ _______ _______ _____ _____    ______ ____
ROOT
ATOM      1  C   UNL     1       2.155   8.717  21.982  0.00  0.00    +0.000 C 
ATOM      2  C   UNL     1       1.062   7.980  21.183  0.00  0.00    +0.000 C 
ATOM      3  C   UNL     1      -0.061   8.958  20.834  0.00  0.00    +0.000 C 
ATOM      4  N   UNL     1       0.354   9.980  19.860  0.00  0.00    +0.000 N 
ATOM      5  C   UNL     1      -0.086  11.315  19.856  0.00  0.00    +0.000 C 
ATOM      6  O   UNL     1       0.347  12.132  19.040  0.00  0.00    +0.000 OA
ATOM      7  C   UNL     1       1.072   9.463  18.678  0.00  0.00    +0.000 C 
ATOM      8  C   UNL     1       2.064   8.289  18.945  0.00  0.00    +0.000 C 
ATOM      9  N   UNL     1       1.568   7.344  19.958  0.00  0.00    +0.000 N 
ATOM     10  C   UNL     1       1.602   5.950  19.891  0.00  0.00    +0.000 C 
ATOM     11  O   UNL     1       1.069   5.215  20.721  0.00  0.00    +0.000 OA
ENDROOT
BRANCH   5  12
ATOM     12  C   UNL     1      -1.089  11.819  20.857  0.00  0.00    +0.000 A 
ATOM     13  C   UNL     1      -0.733  11.867  22.216  0.00  0.00    +0.000 A 
ATOM     14  C   UNL     1      -1.647  12.326  23.175  0.00  0.00    +0.000 A 
ATOM     15  C   UNL     1      -2.925  12.725  22.793  0.00  0.00    +0.000 A 
ATOM     16  C   UNL     1      -3.273  12.725  21.446  0.00  0.00    +0.000 A 
ATOM     17  C   UNL     1      -2.341  12.318  20.488  0.00  0.00    +0.000 A 
ENDBRANCH   5  12
BRANCH  10  18
ATOM     18  C   UNL     1       2.449   5.253  18.829  0.00  0.00    +0.000 C 
ATOM     19  O   UNL     1       1.798   4.815  17.872  0.00  0.00    +0.000 OA
BRANCH  18  20
ATOM     20  C   UNL     1       3.911   5.097  18.823  0.00  0.00    +0.000 A 
ATOM     21  C   UNL     1       4.470   3.968  19.408  0.00  0.00    +0.000 A 
ATOM     22  N   UNL     1       5.753   4.299  19.750  0.00  0.00    +0.000 N 
ATOM     23  C   UNL     1       6.203   5.241  18.880  0.00  0.00    +0.000 A 
ATOM     24  C   UNL     1       7.520   5.618  18.612  0.00  0.00    +0.000 A 
ATOM     25  C   UNL     1       7.724   6.600  17.652  0.00  0.00    +0.000 A 
ATOM     26  C   UNL     1       6.631   7.238  17.059  0.00  0.00    +0.000 A 
ATOM     27  C   UNL     1       5.315   6.884  17.403  0.00  0.00    +0.000 A 
ATOM     28  F   UNL     1       4.310   7.547  16.813  0.00  0.00    +0.000 F 
ATOM     29  C   UNL     1       5.061   5.823  18.292  0.00  0.00    +0.000 A 
ATOM     30  H   UNL     1       6.305   3.822  20.468  0.00  0.00    +0.000 HD
ENDBRANCH  18  20
ENDBRANCH  10  18
TORSDOF 3
ENDMDL
MODEL 8
REMARK VINA RESULT:      -7.8      3.493      9.490
REMARK  Name = 
REMARK  4 active torsions:
REMARK  status: ('A' for Active; 'I' for Inactive)
REMARK    1  A    between atoms: C_1  and  C_2
REMARK    2  A    between atoms: C_5  and  C_7
REMARK    3  A    between atoms: C_16  and  C_18
REMARK    4  A    between atoms: C_18  and  C_20
REMARK                            x       y       z     vdW  Elec       q    Type
REMARK                         _______ _______ _______ _____ _____    ______ ____
ROOT
ATOM      1  C   UNL     1      -2.478   9.753  16.299  0.00  0.00    +0.000 C 
ATOM      2  C   UNL     1      -2.956   9.791  17.764  0.00  0.00    +0.000 C 
ATOM      3  C   UNL     1      -1.760   9.594  18.696  0.00  0.00    +0.000 C 
ATOM      4  N   UNL     1      -0.829  10.733  18.679  0.00  0.00    +0.000 N 
ATOM      5  C   UNL     1       0.568  10.633  18.797  0.00  0.00    +0.000 C 
ATOM      6  O   UNL     1       1.292  11.628  18.718  0.00  0.00    +0.000 OA
ATOM      7  C   UNL     1      -1.462  12.061  18.806  0.00  0.00    +0.000 C 
ATOM      8  C   UNL     1      -2.821  12.240  18.063  0.00  0.00    +0.000 C 
ATOM      9  N   UNL     1      -3.661  11.033  18.112  0.00  0.00    +0.000 N 
ATOM     10  C   UNL     1      -5.031  10.975  18.379  0.00  0.00    +0.000 C 
ATOM     11  O   UNL     1      -5.653   9.924  18.518  0.00  0.00    +0.000 OA
ENDROOT
BRANCH   5  12
ATOM     12  C   UNL     1       1.251   9.309  19.003  0.00  0.00    +0.000 A 
ATOM     13  C   UNL     1       1.916   8.708  17.920  0.00  0.00    +0.000 A 
ATOM     14  C   UNL     1       2.558   7.470  18.078  0.00  0.00    +0.000 A 
ATOM     15  C   UNL     1       2.529   6.816  19.307  0.00  0.00    +0.000 A 
ATOM     16  C   UNL     1       1.913   7.423  20.397  0.00  0.00    +0.000 A 
ATOM     17  C   UNL     1       1.322   8.681  20.249  0.00  0.00    +0.000 A 
ENDBRANCH   5  12
BRANCH  10  18
ATOM     18  C   UNL     1      -5.868  12.251  18.370  0.00  0.00    +0.000 C 
ATOM     19  O   UNL     1      -6.265  12.588  17.247  0.00  0.00    +0.000 OA
BRANCH  18  20
ATOM     20  C   UNL     1      -6.260  13.062  19.533  0.00  0.00    +0.000 A 
ATOM     21  C   UNL     1      -6.172  14.446  19.450  0.00  0.00    +0.000 A 
ATOM     22  N   UNL     1      -6.059  14.908  20.732  0.00  0.00    +0.000 N 
ATOM     23  C   UNL     1      -6.700  14.045  21.562  0.00  0.00    +0.000 A 
ATOM     24  C   UNL     1      -7.148  14.263  22.866  0.00  0.00    +0.000 A 
ATOM     25  C   UNL     1      -7.804  13.218  23.503  0.00  0.00    +0.000 A 
ATOM     26  C   UNL     1      -7.916  11.974  22.875  0.00  0.00    +0.000 A 
ATOM     27  C   UNL     1      -7.392  11.766  21.587  0.00  0.00    +0.000 A 
ATOM     28  F   UNL     1      -7.514  10.545  21.048  0.00  0.00    +0.000 F 
ATOM     29  C   UNL     1      -6.813  12.824  20.864  0.00  0.00    +0.000 A 
ATOM     30  H   UNL     1      -5.658  15.814  20.990  0.00  0.00    +0.000 HD
ENDBRANCH  18  20
ENDBRANCH  10  18
TORSDOF 3
ENDMDL
MODEL 9
REMARK VINA RESULT:      -7.8      2.361      3.033
REMARK  Name = 
REMARK  4 active torsions:
REMARK  status: ('A' for Active; 'I' for Inactive)
REMARK    1  A    between atoms: C_1  and  C_2
REMARK    2  A    between atoms: C_5  and  C_7
REMARK    3  A    between atoms: C_16  and  C_18
REMARK    4  A    between atoms: C_18  and  C_20
REMARK                            x       y       z     vdW  Elec       q    Type
REMARK                         _______ _______ _______ _____ _____    ______ ____
ROOT
ATOM      1  C   UNL     1      -0.792  12.901  18.647  0.00  0.00    +0.000 C 
ATOM      2  C   UNL     1      -0.936  11.581  19.429  0.00  0.00    +0.000 C 
ATOM      3  C   UNL     1      -2.419  11.280  19.652  0.00  0.00    +0.000 C 
ATOM      4  N   UNL     1      -3.127  10.943  18.407  0.00  0.00    +0.000 N 
ATOM      5  C   UNL     1      -4.457  11.293  18.116  0.00  0.00    +0.000 C 
ATOM      6  O   UNL     1      -4.968  11.025  17.027  0.00  0.00    +0.000 OA
ATOM      7  C   UNL     1      -2.447   9.951  17.550  0.00  0.00    +0.000 C 
ATOM      8  C   UNL     1      -0.894  10.066  17.477  0.00  0.00    +0.000 C 
ATOM      9  N   UNL     1      -0.289  10.440  18.766  0.00  0.00    +0.000 N 
ATOM     10  C   UNL     1       0.844   9.875  19.355  0.00  0.00    +0.000 C 
ATOM     11  O   UNL     1       1.233  10.154  20.488  0.00  0.00    +0.000 OA
ENDROOT
BRANCH   5  12
ATOM     12  C   UNL     1      -5.314  12.031  19.108  0.00  0.00    +0.000 A 
ATOM     13  C   UNL     1      -6.363  11.347  19.746  0.00  0.00    +0.000 A 
ATOM     14  C   UNL     1      -7.184  12.007  20.672  0.00  0.00    +0.000 A 
ATOM     15  C   UNL     1      -6.979  13.355  20.955  0.00  0.00    +0.000 A 
ATOM     16  C   UNL     1      -5.917  14.030  20.363  0.00  0.00    +0.000 A 
ATOM     17  C   UNL     1      -5.068  13.354  19.483  0.00  0.00    +0.000 A 
ENDBRANCH   5  12
BRANCH  10  18
ATOM     18  C   UNL     1       1.757   8.963  18.541  0.00  0.00    +0.000 C 
ATOM     19  O   UNL     1       2.098   9.433  17.448  0.00  0.00    +0.000 OA
BRANCH  18  20
ATOM     20  C   UNL     1       2.277   7.645  18.939  0.00  0.00    +0.000 A 
ATOM     21  C   UNL     1       1.716   7.002  20.033  0.00  0.00    +0.000 A 
ATOM     22  N   UNL     1       2.663   6.135  20.506  0.00  0.00    +0.000 N 
ATOM     23  C   UNL     1       3.443   5.738  19.467  0.00  0.00    +0.000 A 
ATOM     24  C   UNL     1       4.285   4.628  19.388  0.00  0.00    +0.000 A 
ATOM     25  C   UNL     1       4.965   4.422  18.195  0.00  0.00    +0.000 A 
ATOM     26  C   UNL     1       4.867   5.358  17.161  0.00  0.00    +0.000 A 
ATOM     27  C   UNL     1       4.063   6.503  17.299  0.00  0.00    +0.000 A 
ATOM     28  F   UNL     1       4.026   7.373  16.279  0.00  0.00    +0.000 F 
ATOM     29  C   UNL     1       3.275   6.699  18.448  0.00  0.00    +0.000 A 
ATOM     30  H   UNL     1       2.690   5.768  21.461  0.00  0.00    +0.000 HD
ENDBRANCH  18  20
ENDBRANCH  10  18
TORSDOF 3
ENDMDL
