MODEL 1
REMARK VINA RESULT:      -7.2      0.000      0.000
REMARK  Name = 
REMARK  6 active torsions:
REMARK  status: ('A' for Active; 'I' for Inactive)
REMARK    1  A    between atoms: C_1  and  O_2
REMARK    2  A    between atoms: O_2  and  C_3
REMARK    3  A    between atoms: C_8  and  C_9
REMARK    4  A    between atoms: C_12  and  S_13
REMARK    5  A    between atoms: S_13  and  C_14
REMARK    6  A    between atoms: C_14  and  C_15
REMARK                            x       y       z     vdW  Elec       q    Type
REMARK                         _______ _______ _______ _____ _____    ______ ____
ROOT
ATOM      1  C   UNL     1       2.372   6.560  19.851  0.00  0.00    +0.000 A 
ATOM      2  N   UNL     1       1.834   5.675  20.671  0.00  0.00    +0.000 NA
ATOM      3  N   UNL     1       2.578   4.528  20.564  0.00  0.00    +0.000 NA
ATOM      4  C   UNL     1       3.533   4.775  19.693  0.00  0.00    +0.000 A 
ATOM      5  O   UNL     1       3.479   6.059  19.206  0.00  0.00    +0.000 OA
ENDROOT
BRANCH   1  11
ATOM      6  C   UNL     1       1.241   8.775  20.449  0.00  0.00    +0.000 A 
ATOM      7  C   UNL     1       0.892  10.075  20.036  0.00  0.00    +0.000 A 
ATOM      8  C   UNL     1       1.104  10.498  18.724  0.00  0.00    +0.000 A 
ATOM      9  C   UNL     1       1.677   9.632  17.806  0.00  0.00    +0.000 A 
ATOM     10  C   UNL     1       2.065   8.357  18.215  0.00  0.00    +0.000 A 
ATOM     11  C   UNL     1       1.875   7.906  19.542  0.00  0.00    +0.000 A 
BRANCH   6  13
ATOM     12  C   UNL     1       0.502   9.313  22.638  0.00  0.00    +0.000 C 
ATOM     13  O   UNL     1       1.003   8.331  21.728  0.00  0.00    +0.000 OA
ENDBRANCH   6  13
ENDBRANCH   1  11
BRANCH   4  14
ATOM     14  S   UNL     1       4.656   3.553  19.181  0.00  0.00    +0.000 S 
BRANCH  14  15
ATOM     15  C   UNL     1       5.165   4.177  17.563  0.00  0.00    +0.000 C 
BRANCH  15  16
ATOM     16  C   UNL     1       6.045   5.392  17.710  0.00  0.00    +0.000 A 
ATOM     17  C   UNL     1       7.099   5.435  18.631  0.00  0.00    +0.000 A 
ATOM     18  C   UNL     1       7.904   6.573  18.708  0.00  0.00    +0.000 A 
ATOM     19  C   UNL     1       7.623   7.625  17.856  0.00  0.00    +0.000 A 
ATOM     20 CL   UNL     1       8.561   9.060  17.889  0.00  0.00    +0.000 Cl
ATOM     21  N   UNL     1       6.625   7.624  16.950  0.00  0.00    +0.000 NA
ATOM     22  C   UNL     1       5.868   6.506  16.893  0.00  0.00    +0.000 A 
ENDBRANCH  15  16
ENDBRANCH  14  15
ENDBRANCH   4  14
TORSDOF 5
ENDMDL
MODEL 2
REMARK VINA RESULT:      -7.2      3.492      5.607
REMARK  Name = 
REMARK  6 active torsions:
REMARK  status: ('A' for Active; 'I' for Inactive)
REMARK    1  A    between atoms: C_1  and  O_2
REMARK    2  A    between atoms: O_2  and  C_3
REMARK    3  A    between atoms: C_8  and  C_9
REMARK    4  A    between atoms: C_12  and  S_13
REMARK    5  A    between atoms: S_13  and  C_14
REMARK    6  A    between atoms: C_14  and  C_15
REMARK                            x       y       z     vdW  Elec       q    Type
REMARK                         _______ _______ _______ _____ _____    ______ ____
ROOT
ATOM      1  C   UNL     1       5.594   5.719  17.281  0.00  0.00    +0.000 A 
ATOM      2  N   UNL     1       6.240   5.914  16.145  0.00  0.00    +0.000 NA
ATOM      3  N   UNL     1       7.338   6.683  16.438  0.00  0.00    +0.000 NA
ATOM      4  C   UNL     1       7.309   6.909  17.733  0.00  0.00    +0.000 A 
ATOM      5  O   UNL     1       6.234   6.311  18.346  0.00  0.00    +0.000 OA
ENDROOT
BRANCH   1  11
ATOM      6  C   UNL     1       3.101   5.653  17.853  0.00  0.00    +0.000 A 
ATOM      7  C   UNL     1       1.921   4.889  17.911  0.00  0.00    +0.000 A 
ATOM      8  C   UNL     1       1.934   3.517  17.658  0.00  0.00    +0.000 A 
ATOM      9  C   UNL     1       3.126   2.889  17.333  0.00  0.00    +0.000 A 
ATOM     10  C   UNL     1       4.294   3.644  17.231  0.00  0.00    +0.000 A 
ATOM     11  C   UNL     1       4.307   5.038  17.469  0.00  0.00    +0.000 A 
BRANCH   6  13
ATOM     12  C   UNL     1       2.334   7.393  19.269  0.00  0.00    +0.000 C 
ATOM     13  O   UNL     1       3.111   6.998  18.137  0.00  0.00    +0.000 OA
ENDBRANCH   6  13
ENDBRANCH   1  11
BRANCH   4  14
ATOM     14  S   UNL     1       8.472   7.931  18.519  0.00  0.00    +0.000 S 
BRANCH  14  15
ATOM     15  C   UNL     1       8.142   9.528  17.741  0.00  0.00    +0.000 C 
BRANCH  15  16
ATOM     16  C   UNL     1       8.895  10.632  18.440  0.00  0.00    +0.000 A 
ATOM     17  C   UNL     1       9.528  10.429  19.672  0.00  0.00    +0.000 A 
ATOM     18  C   UNL     1      10.237  11.474  20.265  0.00  0.00    +0.000 A 
ATOM     19  C   UNL     1      10.287  12.685  19.598  0.00  0.00    +0.000 A 
ATOM     20 CL   UNL     1      11.134  14.021  20.261  0.00  0.00    +0.000 Cl
ATOM     21  N   UNL     1       9.699  12.923  18.409  0.00  0.00    +0.000 NA
ATOM     22  C   UNL     1       9.026  11.889  17.855  0.00  0.00    +0.000 A 
ENDBRANCH  15  16
ENDBRANCH  14  15
ENDBRANCH   4  14
TORSDOF 5
ENDMDL
MODEL 3
REMARK VINA RESULT:      -7.2      3.293      7.074
REMARK  Name = 
REMARK  6 active torsions:
REMARK  status: ('A' for Active; 'I' for Inactive)
REMARK    1  A    between atoms: C_1  and  O_2
REMARK    2  A    between atoms: O_2  and  C_3
REMARK    3  A    between atoms: C_8  and  C_9
REMARK    4  A    between atoms: C_12  and  S_13
REMARK    5  A    between atoms: S_13  and  C_14
REMARK    6  A    between atoms: C_14  and  C_15
REMARK                            x       y       z     vdW  Elec       q    Type
REMARK                         _______ _______ _______ _____ _____    ______ ____
ROOT
ATOM      1  C   UNL     1       4.115   4.596  18.257  0.00  0.00    +0.000 A 
ATOM      2  N   UNL     1       3.618   3.531  18.861  0.00  0.00    +0.000 NA
ATOM      3  N   UNL     1       2.717   3.984  19.790  0.00  0.00    +0.000 NA
ATOM      4  C   UNL     1       2.705   5.297  19.700  0.00  0.00    +0.000 A 
ATOM      5  O   UNL     1       3.559   5.762  18.729  0.00  0.00    +0.000 OA
ENDROOT
BRANCH   1  11
ATOM      6  C   UNL     1       6.566   4.601  17.523  0.00  0.00    +0.000 A 
ATOM      7  C   UNL     1       7.481   4.555  16.454  0.00  0.00    +0.000 A 
ATOM      8  C   UNL     1       7.048   4.605  15.129  0.00  0.00    +0.000 A 
ATOM      9  C   UNL     1       5.693   4.692  14.850  0.00  0.00    +0.000 A 
ATOM     10  C   UNL     1       4.775   4.696  15.901  0.00  0.00    +0.000 A 
ATOM     11  C   UNL     1       5.185   4.632  17.253  0.00  0.00    +0.000 A 
BRANCH   6  13
ATOM     12  C   UNL     1       7.693   5.753  19.262  0.00  0.00    +0.000 C 
ATOM     13  O   UNL     1       6.979   4.591  18.833  0.00  0.00    +0.000 OA
ENDBRANCH   6  13
ENDBRANCH   1  11
BRANCH   4  14
ATOM     14  S   UNL     1       1.766   6.289  20.772  0.00  0.00    +0.000 S 
BRANCH  14  15
ATOM     15  C   UNL     1       1.822   7.889  19.934  0.00  0.00    +0.000 C 
BRANCH  15  16
ATOM     16  C   UNL     1       1.027   8.921  20.693  0.00  0.00    +0.000 A 
ATOM     17  C   UNL     1       0.188   9.834  20.042  0.00  0.00    +0.000 A 
ATOM     18  C   UNL     1      -0.550  10.751  20.792  0.00  0.00    +0.000 A 
ATOM     19  C   UNL     1      -0.421  10.716  22.169  0.00  0.00    +0.000 A 
ATOM     20 CL   UNL     1      -1.290  11.811  23.163  0.00  0.00    +0.000 Cl
ATOM     21  N   UNL     1       0.368   9.852  22.837  0.00  0.00    +0.000 NA
ATOM     22  C   UNL     1       1.064   8.970  22.085  0.00  0.00    +0.000 A 
ENDBRANCH  15  16
ENDBRANCH  14  15
ENDBRANCH   4  14
TORSDOF 5
ENDMDL
MODEL 4
REMARK VINA RESULT:      -7.1      4.236      7.646
REMARK  Name = 
REMARK  6 active torsions:
REMARK  status: ('A' for Active; 'I' for Inactive)
REMARK    1  A    between atoms: C_1  and  O_2
REMARK    2  A    between atoms: O_2  and  C_3
REMARK    3  A    between atoms: C_8  and  C_9
REMARK    4  A    between atoms: C_12  and  S_13
REMARK    5  A    between atoms: S_13  and  C_14
REMARK    6  A    between atoms: C_14  and  C_15
REMARK                            x       y       z     vdW  Elec       q    Type
REMARK                         _______ _______ _______ _____ _____    ______ ____
ROOT
ATOM      1  C   UNL     1       2.355   6.084  19.075  0.00  0.00    +0.000 A 
ATOM      2  N   UNL     1       2.044   6.603  20.250  0.00  0.00    +0.000 NA
ATOM      3  N   UNL     1       1.800   7.937  20.044  0.00  0.00    +0.000 NA
ATOM      4  C   UNL     1       1.966   8.159  18.758  0.00  0.00    +0.000 A 
ATOM      5  O   UNL     1       2.304   7.020  18.068  0.00  0.00    +0.000 OA
ENDROOT
BRANCH   1  11
ATOM      6  C   UNL     1       4.072   4.187  19.051  0.00  0.00    +0.000 A 
ATOM      7  C   UNL     1       4.324   2.823  18.811  0.00  0.00    +0.000 A 
ATOM      8  C   UNL     1       3.347   1.992  18.262  0.00  0.00    +0.000 A 
ATOM      9  C   UNL     1       2.098   2.509  17.954  0.00  0.00    +0.000 A 
ATOM     10  C   UNL     1       1.824   3.849  18.227  0.00  0.00    +0.000 A 
ATOM     11  C   UNL     1       2.791   4.710  18.795  0.00  0.00    +0.000 A 
BRANCH   6  13
ATOM     12  C   UNL     1       6.075   5.389  18.643  0.00  0.00    +0.000 C 
ATOM     13  O   UNL     1       5.036   5.026  19.555  0.00  0.00    +0.000 OA
ENDBRANCH   6  13
ENDBRANCH   1  11
BRANCH   4  14
ATOM     14  S   UNL     1       1.848   9.751  18.072  0.00  0.00    +0.000 S 
BRANCH  14  15
ATOM     15  C   UNL     1       0.744  10.573  19.243  0.00  0.00    +0.000 C 
BRANCH  15  16
ATOM     16  C   UNL     1      -0.647  10.696  18.674  0.00  0.00    +0.000 A 
ATOM     17  C   UNL     1      -1.104   9.855  17.651  0.00  0.00    +0.000 A 
ATOM     18  C   UNL     1      -2.409   9.989  17.178  0.00  0.00    +0.000 A 
ATOM     19  C   UNL     1      -3.211  10.960  17.750  0.00  0.00    +0.000 A 
ATOM     20 CL   UNL     1      -4.826  11.192  17.224  0.00  0.00    +0.000 Cl
ATOM     21  N   UNL     1      -2.816  11.785  18.740  0.00  0.00    +0.000 NA
ATOM     22  C   UNL     1      -1.549  11.626  19.183  0.00  0.00    +0.000 A 
ENDBRANCH  15  16
ENDBRANCH  14  15
ENDBRANCH   4  14
TORSDOF 5
ENDMDL
MODEL 5
REMARK VINA RESULT:      -7.1      4.652      8.029
REMARK  Name = 
REMARK  6 active torsions:
REMARK  status: ('A' for Active; 'I' for Inactive)
REMARK    1  A    between atoms: C_1  and  O_2
REMARK    2  A    between atoms: O_2  and  C_3
REMARK    3  A    between atoms: C_8  and  C_9
REMARK    4  A    between atoms: C_12  and  S_13
REMARK    5  A    between atoms: S_13  and  C_14
REMARK    6  A    between atoms: C_14  and  C_15
REMARK                            x       y       z     vdW  Elec       q    Type
REMARK                         _______ _______ _______ _____ _____    ______ ____
ROOT
ATOM      1  C   UNL     1       2.598   7.253  18.157  0.00  0.00    +0.000 A 
ATOM      2  N   UNL     1       2.631   8.268  17.311  0.00  0.00    +0.000 NA
ATOM      3  N   UNL     1       2.006   9.321  17.928  0.00  0.00    +0.000 NA
ATOM      4  C   UNL     1       1.634   8.899  19.117  0.00  0.00    +0.000 A 
ATOM      5  O   UNL     1       1.993   7.592  19.345  0.00  0.00    +0.000 OA
ENDROOT
BRANCH   1  11
ATOM      6  C   UNL     1       4.394   5.472  17.768  0.00  0.00    +0.000 A 
ATOM      7  C   UNL     1       4.692   4.104  17.629  0.00  0.00    +0.000 A 
ATOM      8  C   UNL     1       3.680   3.145  17.571  0.00  0.00    +0.000 A 
ATOM      9  C   UNL     1       2.354   3.538  17.662  0.00  0.00    +0.000 A 
ATOM     10  C   UNL     1       2.049   4.887  17.842  0.00  0.00    +0.000 A 
ATOM     11  C   UNL     1       3.055   5.879  17.918  0.00  0.00    +0.000 A 
BRANCH   6  13
ATOM     12  C   UNL     1       6.707   5.955  17.567  0.00  0.00    +0.000 C 
ATOM     13  O   UNL     1       5.377   6.432  17.787  0.00  0.00    +0.000 OA
ENDBRANCH   6  13
ENDBRANCH   1  11
BRANCH   4  14
ATOM     14  S   UNL     1       0.714   9.892  20.205  0.00  0.00    +0.000 S 
BRANCH  14  15
ATOM     15  C   UNL     1       0.258  11.278  19.138  0.00  0.00    +0.000 C 
BRANCH  15  16
ATOM     16  C   UNL     1      -1.186  11.176  18.714  0.00  0.00    +0.000 A 
ATOM     17  C   UNL     1      -1.621  10.206  17.802  0.00  0.00    +0.000 A 
ATOM     18  C   UNL     1      -2.973  10.134  17.463  0.00  0.00    +0.000 A 
ATOM     19  C   UNL     1      -3.839  11.036  18.054  0.00  0.00    +0.000 A 
ATOM     20 CL   UNL     1      -5.515  11.017  17.689  0.00  0.00    +0.000 Cl
ATOM     21  N   UNL     1      -3.466  11.979  18.941  0.00  0.00    +0.000 NA
ATOM     22  C   UNL     1      -2.152  12.020  19.256  0.00  0.00    +0.000 A 
ENDBRANCH  15  16
ENDBRANCH  14  15
ENDBRANCH   4  14
TORSDOF 5
ENDMDL
MODEL 6
REMARK VINA RESULT:      -7.1      2.208      3.287
REMARK  Name = 
REMARK  6 active torsions:
REMARK  status: ('A' for Active; 'I' for Inactive)
REMARK    1  A    between atoms: C_1  and  O_2
REMARK    2  A    between atoms: O_2  and  C_3
REMARK    3  A    between atoms: C_8  and  C_9
REMARK    4  A    between atoms: C_12  and  S_13
REMARK    5  A    between atoms: S_13  and  C_14
REMARK    6  A    between atoms: C_14  and  C_15
REMARK                            x       y       z     vdW  Elec       q    Type
REMARK                         _______ _______ _______ _____ _____    ______ ____
ROOT
ATOM      1  C   UNL     1       1.667   8.060  19.941  0.00  0.00    +0.000 A 
ATOM      2  N   UNL     1       2.224   8.353  18.779  0.00  0.00    +0.000 NA
ATOM      3  N   UNL     1       2.932   7.245  18.387  0.00  0.00    +0.000 NA
ATOM      4  C   UNL     1       2.764   6.335  19.322  0.00  0.00    +0.000 A 
ATOM      5  O   UNL     1       1.953   6.775  20.340  0.00  0.00    +0.000 OA
ENDROOT
BRANCH   1  11
ATOM      6  C   UNL     1       0.025   9.975  20.369  0.00  0.00    +0.000 A 
ATOM      7  C   UNL     1      -0.724  10.702  21.313  0.00  0.00    +0.000 A 
ATOM      8  C   UNL     1      -0.578  10.475  22.682  0.00  0.00    +0.000 A 
ATOM      9  C   UNL     1       0.312   9.511  23.129  0.00  0.00    +0.000 A 
ATOM     10  C   UNL     1       1.028   8.756  22.200  0.00  0.00    +0.000 A 
ATOM     11  C   UNL     1       0.891   8.955  20.807  0.00  0.00    +0.000 A 
BRANCH   6  13
ATOM     12  C   UNL     1       0.308  11.521  18.594  0.00  0.00    +0.000 C 
ATOM     13  O   UNL     1      -0.079  10.213  19.020  0.00  0.00    +0.000 OA
ENDBRANCH   6  13
ENDBRANCH   1  11
BRANCH   4  14
ATOM     14  S   UNL     1       3.572   4.799  19.273  0.00  0.00    +0.000 S 
BRANCH  14  15
ATOM     15  C   UNL     1       5.303   5.300  19.138  0.00  0.00    +0.000 C 
BRANCH  15  16
ATOM     16  C   UNL     1       5.798   5.144  17.722  0.00  0.00    +0.000 A 
ATOM     17  C   UNL     1       5.194   4.257  16.821  0.00  0.00    +0.000 A 
ATOM     18  C   UNL     1       5.671   4.170  15.513  0.00  0.00    +0.000 A 
ATOM     19  C   UNL     1       6.735   4.978  15.154  0.00  0.00    +0.000 A 
ATOM     20 CL   UNL     1       7.383   4.930  13.567  0.00  0.00    +0.000 Cl
ATOM     21  N   UNL     1       7.341   5.850  15.985  0.00  0.00    +0.000 NA
ATOM     22  C   UNL     1       6.852   5.918  17.243  0.00  0.00    +0.000 A 
ENDBRANCH  15  16
ENDBRANCH  14  15
ENDBRANCH   4  14
TORSDOF 5
ENDMDL
MODEL 7
REMARK VINA RESULT:      -7.1      2.896      6.260
REMARK  Name = 
REMARK  6 active torsions:
REMARK  status: ('A' for Active; 'I' for Inactive)
REMARK    1  A    between atoms: C_1  and  O_2
REMARK    2  A    between atoms: O_2  and  C_3
REMARK    3  A    between atoms: C_8  and  C_9
REMARK    4  A    between atoms: C_12  and  S_13
REMARK    5  A    between atoms: S_13  and  C_14
REMARK    6  A    between atoms: C_14  and  C_15
REMARK                            x       y       z     vdW  Elec       q    Type
REMARK                         _______ _______ _______ _____ _____    ______ ____
ROOT
ATOM      1  C   UNL     1       4.063   3.552  17.604  0.00  0.00    +0.000 A 
ATOM      2  N   UNL     1       3.825   2.315  18.004  0.00  0.00    +0.000 NA
ATOM      3  N   UNL     1       2.769   2.375  18.877  0.00  0.00    +0.000 NA
ATOM      4  C   UNL     1       2.414   3.639  18.958  0.00  0.00    +0.000 A 
ATOM      5  O   UNL     1       3.183   4.451  18.159  0.00  0.00    +0.000 OA
ENDROOT
BRANCH   1  11
ATOM      6  C   UNL     1       6.412   4.473  17.180  0.00  0.00    +0.000 A 
ATOM      7  C   UNL     1       7.400   4.805  16.234  0.00  0.00    +0.000 A 
ATOM      8  C   UNL     1       7.137   4.749  14.864  0.00  0.00    +0.000 A 
ATOM      9  C   UNL     1       5.886   4.352  14.419  0.00  0.00    +0.000 A 
ATOM     10  C   UNL     1       4.914   3.980  15.348  0.00  0.00    +0.000 A 
ATOM     11  C   UNL     1       5.157   4.014  16.740  0.00  0.00    +0.000 A 
BRANCH   6  13
ATOM     12  C   UNL     1       7.447   5.665  18.950  0.00  0.00    +0.000 C 
ATOM     13  O   UNL     1       6.644   4.559  18.532  0.00  0.00    +0.000 OA
ENDBRANCH   6  13
ENDBRANCH   1  11
BRANCH   4  14
ATOM     14  S   UNL     1       1.167   4.182  20.037  0.00  0.00    +0.000 S 
BRANCH  14  15
ATOM     15  C   UNL     1       2.037   5.439  21.001  0.00  0.00    +0.000 C 
BRANCH  15  16
ATOM     16  C   UNL     1       1.733   6.821  20.479  0.00  0.00    +0.000 A 
ATOM     17  C   UNL     1       1.000   7.749  21.229  0.00  0.00    +0.000 A 
ATOM     18  C   UNL     1       0.770   9.026  20.714  0.00  0.00    +0.000 A 
ATOM     19  C   UNL     1       1.286   9.325  19.466  0.00  0.00    +0.000 A 
ATOM     20 CL   UNL     1       1.045  10.870  18.761  0.00  0.00    +0.000 Cl
ATOM     21  N   UNL     1       2.002   8.467  18.714  0.00  0.00    +0.000 NA
ATOM     22  C   UNL     1       2.216   7.241  19.242  0.00  0.00    +0.000 A 
ENDBRANCH  15  16
ENDBRANCH  14  15
ENDBRANCH   4  14
TORSDOF 5
ENDMDL
MODEL 8
REMARK VINA RESULT:      -7.0      4.434      7.129
REMARK  Name = 
REMARK  6 active torsions:
REMARK  status: ('A' for Active; 'I' for Inactive)
REMARK    1  A    between atoms: C_1  and  O_2
REMARK    2  A    between atoms: O_2  and  C_3
REMARK    3  A    between atoms: C_8  and  C_9
REMARK    4  A    between atoms: C_12  and  S_13
REMARK    5  A    between atoms: S_13  and  C_14
REMARK    6  A    between atoms: C_14  and  C_15
REMARK                            x       y       z     vdW  Elec       q    Type
REMARK                         _______ _______ _______ _____ _____    ______ ____
ROOT
ATOM      1  C   UNL     1       8.795   9.629  18.460  0.00  0.00    +0.000 A 
ATOM      2  N   UNL     1       7.898   9.684  17.491  0.00  0.00    +0.000 NA
ATOM      3  N   UNL     1       7.360   8.427  17.376  0.00  0.00    +0.000 NA
ATOM      4  C   UNL     1       7.948   7.677  18.282  0.00  0.00    +0.000 A 
ATOM      5  O   UNL     1       8.865   8.378  19.027  0.00  0.00    +0.000 OA
ENDROOT
BRANCH   1  11
ATOM      6  C   UNL     1       9.778  11.236  20.191  0.00  0.00    +0.000 A 
ATOM      7  C   UNL     1      10.761  12.200  20.486  0.00  0.00    +0.000 A 
ATOM      8  C   UNL     1      11.624  12.679  19.500  0.00  0.00    +0.000 A 
ATOM      9  C   UNL     1      11.525  12.196  18.205  0.00  0.00    +0.000 A 
ATOM     10  C   UNL     1      10.583  11.210  17.911  0.00  0.00    +0.000 A 
ATOM     11  C   UNL     1       9.705  10.696  18.893  0.00  0.00    +0.000 A 
BRANCH   6  13
ATOM     12  C   UNL     1       8.540  11.729  22.152  0.00  0.00    +0.000 C 
ATOM     13  O   UNL     1       8.896  10.783  21.142  0.00  0.00    +0.000 OA
ENDBRANCH   6  13
ENDBRANCH   1  11
BRANCH   4  14
ATOM     14  S   UNL     1       7.630   5.975  18.420  0.00  0.00    +0.000 S 
BRANCH  14  15
ATOM     15  C   UNL     1       6.325   5.745  17.192  0.00  0.00    +0.000 C 
BRANCH  15  16
ATOM     16  C   UNL     1       5.046   5.288  17.847  0.00  0.00    +0.000 A 
ATOM     17  C   UNL     1       4.819   5.452  19.220  0.00  0.00    +0.000 A 
ATOM     18  C   UNL     1       3.607   5.038  19.774  0.00  0.00    +0.000 A 
ATOM     19  C   UNL     1       2.665   4.478  18.930  0.00  0.00    +0.000 A 
ATOM     20 CL   UNL     1       1.151   3.942  19.532  0.00  0.00    +0.000 Cl
ATOM     21  N   UNL     1       2.837   4.309  17.604  0.00  0.00    +0.000 NA
ATOM     22  C   UNL     1       4.018   4.726  17.095  0.00  0.00    +0.000 A 
ENDBRANCH  15  16
ENDBRANCH  14  15
ENDBRANCH   4  14
TORSDOF 5
ENDMDL
MODEL 9
REMARK VINA RESULT:      -7.0      0.754      1.176
REMARK  Name = 
REMARK  6 active torsions:
REMARK  status: ('A' for Active; 'I' for Inactive)
REMARK    1  A    between atoms: C_1  and  O_2
REMARK    2  A    between atoms: O_2  and  C_3
REMARK    3  A    between atoms: C_8  and  C_9
REMARK    4  A    between atoms: C_12  and  S_13
REMARK    5  A    between atoms: S_13  and  C_14
REMARK    6  A    between atoms: C_14  and  C_15
REMARK                            x       y       z     vdW  Elec       q    Type
REMARK                         _______ _______ _______ _____ _____    ______ ____
ROOT
ATOM      1  C   UNL     1       2.172   6.389  19.964  0.00  0.00    +0.000 A 
ATOM      2  N   UNL     1       1.482   5.560  20.726  0.00  0.00    +0.000 NA
ATOM      3  N   UNL     1       2.133   4.353  20.694  0.00  0.00    +0.000 NA
ATOM      4  C   UNL     1       3.188   4.511  19.924  0.00  0.00    +0.000 A 
ATOM      5  O   UNL     1       3.292   5.791  19.434  0.00  0.00    +0.000 OA
ENDROOT
BRANCH   1  11
ATOM      6  C   UNL     1       1.239   8.718  20.467  0.00  0.00    +0.000 A 
ATOM      7  C   UNL     1       1.039  10.035  20.013  0.00  0.00    +0.000 A 
ATOM      8  C   UNL     1       1.349  10.405  18.704  0.00  0.00    +0.000 A 
ATOM      9  C   UNL     1       1.874   9.465  17.830  0.00  0.00    +0.000 A 
ATOM     10  C   UNL     1       2.116   8.168  18.282  0.00  0.00    +0.000 A 
ATOM     11  C   UNL     1       1.824   7.770  19.607  0.00  0.00    +0.000 A 
BRANCH   6  13
ATOM     12  C   UNL     1       0.428   9.371  22.598  0.00  0.00    +0.000 C 
ATOM     13  O   UNL     1       0.903   8.330  21.742  0.00  0.00    +0.000 OA
ENDBRANCH   6  13
ENDBRANCH   1  11
BRANCH   4  14
ATOM     14  S   UNL     1       4.249   3.195  19.528  0.00  0.00    +0.000 S 
BRANCH  14  15
ATOM     15  C   UNL     1       4.633   3.542  17.796  0.00  0.00    +0.000 C 
BRANCH  15  16
ATOM     16  C   UNL     1       5.484   4.781  17.674  0.00  0.00    +0.000 A 
ATOM     17  C   UNL     1       5.145   5.827  16.806  0.00  0.00    +0.000 A 
ATOM     18  C   UNL     1       5.950   6.966  16.750  0.00  0.00    +0.000 A 
ATOM     19  C   UNL     1       7.063   7.015  17.569  0.00  0.00    +0.000 A 
ATOM     20 CL   UNL     1       8.105   8.377  17.558  0.00  0.00    +0.000 Cl
ATOM     21  N   UNL     1       7.422   6.037  18.423  0.00  0.00    +0.000 NA
ATOM     22  C   UNL     1       6.620   4.950  18.462  0.00  0.00    +0.000 A 
ENDBRANCH  15  16
ENDBRANCH  14  15
ENDBRANCH   4  14
TORSDOF 5
ENDMDL
