MODEL 1
REMARK VINA RESULT:      -8.5      0.000      0.000
REMARK  Name = 
REMARK  6 active torsions:
REMARK  status: ('A' for Active; 'I' for Inactive)
REMARK    1  A    between atoms: C_1  and  C_2
REMARK    2  A    between atoms: N_6  and  C_7
REMARK    3  A    between atoms: C_7  and  C_8
REMARK    4  A    between atoms: C_8  and  C_9
REMARK    5  A    between atoms: C_13  and  C_14
REMARK    6  A    between atoms: C_14  and  C_16
REMARK                            x       y       z     vdW  Elec       q    Type
REMARK                         _______ _______ _______ _____ _____    ______ ____
ROOT
ATOM      1  C   UNL     1       3.804   6.398  18.335  0.00  0.00    +0.000 A 
ATOM      2  C   UNL     1       3.371   7.406  17.504  0.00  0.00    +0.000 A 
ATOM      3  C   UNL     1       2.427   8.159  18.246  0.00  0.00    +0.000 A 
ATOM      4  C   UNL     1       1.637   9.287  17.991  0.00  0.00    +0.000 A 
ATOM      5  C   UNL     1       0.791   9.763  19.007  0.00  0.00    +0.000 A 
ATOM      6  C   UNL     1       0.709   9.099  20.242  0.00  0.00    +0.000 A 
ATOM      7  C   UNL     1       1.500   7.975  20.515  0.00  0.00    +0.000 A 
ATOM      8  C   UNL     1       2.340   7.547  19.489  0.00  0.00    +0.000 A 
ATOM      9  O   UNL     1       3.181   6.473  19.547  0.00  0.00    +0.000 OA
ENDROOT
BRANCH   5  10
ATOM     10  C   UNL     1      -0.035  10.958  18.689  0.00  0.00    +0.000 C 
ATOM     11  O   UNL     1       0.460  12.076  18.813  0.00  0.00    +0.000 OA
BRANCH  10  12
ATOM     12  C   UNL     1      -1.438  10.847  18.225  0.00  0.00    +0.000 A 
ATOM     13  C   UNL     1      -1.815   9.973  17.199  0.00  0.00    +0.000 A 
ATOM     14  C   UNL     1      -3.146   9.921  16.780  0.00  0.00    +0.000 A 
ATOM     15  C   UNL     1      -4.103  10.721  17.407  0.00  0.00    +0.000 A 
ATOM     16  C   UNL     1      -3.731  11.559  18.458  0.00  0.00    +0.000 A 
ATOM     17 CL   UNL     1      -4.920  12.525  19.240  0.00  0.00    +0.000 Cl
ATOM     18  C   UNL     1      -2.406  11.622  18.875  0.00  0.00    +0.000 A 
ENDBRANCH  10  12
ENDBRANCH   5  10
BRANCH   1  19
ATOM     19  C   UNL     1       4.771   5.285  18.148  0.00  0.00    +0.000 C 
BRANCH  19  20
ATOM     20  C   UNL     1       4.186   4.211  17.216  0.00  0.00    +0.000 C 
BRANCH  20  26
ATOM     21  C   UNL     1       1.357   3.971  17.780  0.00  0.00    +0.000 C 
ATOM     22  C   UNL     1       2.281   2.752  17.893  0.00  0.00    +0.000 C 
ATOM     23  C   UNL     1       2.024   1.997  19.196  0.00  0.00    +0.000 C 
ATOM     24  C   UNL     1       2.969   2.665  20.171  0.00  0.00    +0.000 C 
ATOM     25  C   UNL     1       4.195   2.952  19.326  0.00  0.00    +0.000 C 
ATOM     26  N   UNL     1       3.732   3.020  17.934  0.00  0.00    +0.000 NA
ENDBRANCH  20  26
ENDBRANCH  19  20
ENDBRANCH   1  19
TORSDOF 5
ENDMDL
MODEL 2
REMARK VINA RESULT:      -8.3      1.764      3.025
REMARK  Name = 
REMARK  6 active torsions:
REMARK  status: ('A' for Active; 'I' for Inactive)
REMARK    1  A    between atoms: C_1  and  C_2
REMARK    2  A    between atoms: N_6  and  C_7
REMARK    3  A    between atoms: C_7  and  C_8
REMARK    4  A    between atoms: C_8  and  C_9
REMARK    5  A    between atoms: C_13  and  C_14
REMARK    6  A    between atoms: C_14  and  C_16
REMARK                            x       y       z     vdW  Elec       q    Type
REMARK                         _______ _______ _______ _____ _____    ______ ____
ROOT
ATOM      1  C   UNL     1       3.412   5.620  18.798  0.00  0.00    +0.000 A 
ATOM      2  C   UNL     1       3.161   6.633  17.902  0.00  0.00    +0.000 A 
ATOM      3  C   UNL     1       2.385   7.596  18.593  0.00  0.00    +0.000 A 
ATOM      4  C   UNL     1       1.813   8.832  18.265  0.00  0.00    +0.000 A 
ATOM      5  C   UNL     1       1.086   9.524  19.248  0.00  0.00    +0.000 A 
ATOM      6  C   UNL     1       0.902   8.970  20.526  0.00  0.00    +0.000 A 
ATOM      7  C   UNL     1       1.475   7.740  20.873  0.00  0.00    +0.000 A 
ATOM      8  C   UNL     1       2.205   7.095  19.876  0.00  0.00    +0.000 A 
ATOM      9  O   UNL     1       2.833   5.890  20.005  0.00  0.00    +0.000 OA
ENDROOT
BRANCH   5  10
ATOM     10  C   UNL     1       0.492  10.828  18.852  0.00  0.00    +0.000 C 
ATOM     11  O   UNL     1       1.199  11.833  18.854  0.00  0.00    +0.000 OA
BRANCH  10  12
ATOM     12  C   UNL     1      -0.929  10.958  18.451  0.00  0.00    +0.000 A 
ATOM     13  C   UNL     1      -1.843  11.724  19.186  0.00  0.00    +0.000 A 
ATOM     14  C   UNL     1      -3.176  11.796  18.781  0.00  0.00    +0.000 A 
ATOM     15  C   UNL     1      -3.590  11.128  17.628  0.00  0.00    +0.000 A 
ATOM     16  C   UNL     1      -2.668  10.401  16.875  0.00  0.00    +0.000 A 
ATOM     17 CL   UNL     1      -3.180   9.599  15.442  0.00  0.00    +0.000 Cl
ATOM     18  C   UNL     1      -1.339  10.318  17.276  0.00  0.00    +0.000 A 
ENDBRANCH  10  12
ENDBRANCH   5  10
BRANCH   1  19
ATOM     19  C   UNL     1       4.153   4.337  18.685  0.00  0.00    +0.000 C 
BRANCH  19  20
ATOM     20  C   UNL     1       5.668   4.589  18.632  0.00  0.00    +0.000 C 
BRANCH  20  26
ATOM     21  C   UNL     1       6.795   6.790  17.126  0.00  0.00    +0.000 C 
ATOM     22  C   UNL     1       7.118   5.339  16.747  0.00  0.00    +0.000 C 
ATOM     23  C   UNL     1       6.974   5.128  15.240  0.00  0.00    +0.000 C 
ATOM     24  C   UNL     1       5.523   4.728  15.088  0.00  0.00    +0.000 C 
ATOM     25  C   UNL     1       5.266   3.876  16.315  0.00  0.00    +0.000 C 
ATOM     26  N   UNL     1       6.249   4.293  17.322  0.00  0.00    +0.000 NA
ENDBRANCH  20  26
ENDBRANCH  19  20
ENDBRANCH   1  19
TORSDOF 5
ENDMDL
MODEL 3
REMARK VINA RESULT:      -8.3      1.076      1.430
REMARK  Name = 
REMARK  6 active torsions:
REMARK  status: ('A' for Active; 'I' for Inactive)
REMARK    1  A    between atoms: C_1  and  C_2
REMARK    2  A    between atoms: N_6  and  C_7
REMARK    3  A    between atoms: C_7  and  C_8
REMARK    4  A    between atoms: C_8  and  C_9
REMARK    5  A    between atoms: C_13  and  C_14
REMARK    6  A    between atoms: C_14  and  C_16
REMARK                            x       y       z     vdW  Elec       q    Type
REMARK                         _______ _______ _______ _____ _____    ______ ____
ROOT
ATOM      1  C   UNL     1       3.769   6.450  18.281  0.00  0.00    +0.000 A 
ATOM      2  C   UNL     1       3.387   7.544  17.538  0.00  0.00    +0.000 A 
ATOM      3  C   UNL     1       2.450   8.256  18.326  0.00  0.00    +0.000 A 
ATOM      4  C   UNL     1       1.701   9.429  18.160  0.00  0.00    +0.000 A 
ATOM      5  C   UNL     1       0.846   9.838  19.198  0.00  0.00    +0.000 A 
ATOM      6  C   UNL     1       0.714   9.066  20.364  0.00  0.00    +0.000 A 
ATOM      7  C   UNL     1       1.463   7.896  20.549  0.00  0.00    +0.000 A 
ATOM      8  C   UNL     1       2.314   7.536  19.505  0.00  0.00    +0.000 A 
ATOM      9  O   UNL     1       3.120   6.434  19.482  0.00  0.00    +0.000 OA
ENDROOT
BRANCH   5  10
ATOM     10  C   UNL     1       0.066  11.083  18.975  0.00  0.00    +0.000 C 
ATOM     11  O   UNL     1       0.580  12.167  19.245  0.00  0.00    +0.000 OA
BRANCH  10  12
ATOM     12  C   UNL     1      -1.313  11.064  18.434  0.00  0.00    +0.000 A 
ATOM     13  C   UNL     1      -2.373  11.719  19.074  0.00  0.00    +0.000 A 
ATOM     14  C   UNL     1      -3.660  11.652  18.538  0.00  0.00    +0.000 A 
ATOM     15  C   UNL     1      -3.882  10.956  17.348  0.00  0.00    +0.000 A 
ATOM     16  C   UNL     1      -2.816  10.342  16.691  0.00  0.00    +0.000 A 
ATOM     17 CL   UNL     1      -3.093   9.506  15.213  0.00  0.00    +0.000 Cl
ATOM     18  C   UNL     1      -1.532  10.397  17.223  0.00  0.00    +0.000 A 
ENDBRANCH  10  12
ENDBRANCH   5  10
BRANCH   1  19
ATOM     19  C   UNL     1       4.705   5.328  18.012  0.00  0.00    +0.000 C 
BRANCH  19  20
ATOM     20  C   UNL     1       4.041   4.273  17.112  0.00  0.00    +0.000 C 
BRANCH  20  26
ATOM     21  C   UNL     1       1.257   3.992  17.854  0.00  0.00    +0.000 C 
ATOM     22  C   UNL     1       2.200   2.783  17.891  0.00  0.00    +0.000 C 
ATOM     23  C   UNL     1       2.036   2.009  19.198  0.00  0.00    +0.000 C 
ATOM     24  C   UNL     1       3.034   2.676  20.119  0.00  0.00    +0.000 C 
ATOM     25  C   UNL     1       4.200   2.988  19.201  0.00  0.00    +0.000 C 
ATOM     26  N   UNL     1       3.647   3.068  17.843  0.00  0.00    +0.000 NA
ENDBRANCH  20  26
ENDBRANCH  19  20
ENDBRANCH   1  19
TORSDOF 5
ENDMDL
MODEL 4
REMARK VINA RESULT:      -8.2      5.991      9.204
REMARK  Name = 
REMARK  6 active torsions:
REMARK  status: ('A' for Active; 'I' for Inactive)
REMARK    1  A    between atoms: C_1  and  C_2
REMARK    2  A    between atoms: N_6  and  C_7
REMARK    3  A    between atoms: C_7  and  C_8
REMARK    4  A    between atoms: C_8  and  C_9
REMARK    5  A    between atoms: C_13  and  C_14
REMARK    6  A    between atoms: C_14  and  C_16
REMARK                            x       y       z     vdW  Elec       q    Type
REMARK                         _______ _______ _______ _____ _____    ______ ____
ROOT
ATOM      1  C   UNL     1       8.226   9.142  18.029  0.00  0.00    +0.000 A 
ATOM      2  C   UNL     1       7.162   8.770  17.238  0.00  0.00    +0.000 A 
ATOM      3  C   UNL     1       6.920   7.401  17.510  0.00  0.00    +0.000 A 
ATOM      4  C   UNL     1       6.003   6.446  17.054  0.00  0.00    +0.000 A 
ATOM      5  C   UNL     1       6.070   5.141  17.572  0.00  0.00    +0.000 A 
ATOM      6  C   UNL     1       7.063   4.790  18.501  0.00  0.00    +0.000 A 
ATOM      7  C   UNL     1       7.982   5.736  18.975  0.00  0.00    +0.000 A 
ATOM      8  C   UNL     1       7.868   7.023  18.451  0.00  0.00    +0.000 A 
ATOM      9  O   UNL     1       8.665   8.084  18.772  0.00  0.00    +0.000 OA
ENDROOT
BRANCH   5  10
ATOM     10  C   UNL     1       5.082   4.159  17.053  0.00  0.00    +0.000 C 
ATOM     11  O   UNL     1       5.312   3.583  15.992  0.00  0.00    +0.000 OA
BRANCH  10  12
ATOM     12  C   UNL     1       3.826   3.848  17.775  0.00  0.00    +0.000 A 
ATOM     13  C   UNL     1       3.100   2.674  17.535  0.00  0.00    +0.000 A 
ATOM     14  C   UNL     1       1.910   2.437  18.224  0.00  0.00    +0.000 A 
ATOM     15  C   UNL     1       1.460   3.358  19.172  0.00  0.00    +0.000 A 
ATOM     16  C   UNL     1       2.207   4.505  19.440  0.00  0.00    +0.000 A 
ATOM     17 CL   UNL     1       1.659   5.623  20.625  0.00  0.00    +0.000 Cl
ATOM     18  C   UNL     1       3.391   4.752  18.752  0.00  0.00    +0.000 A 
ENDBRANCH  10  12
ENDBRANCH   5  10
BRANCH   1  19
ATOM     19  C   UNL     1       8.956  10.424  18.196  0.00  0.00    +0.000 C 
BRANCH  19  20
ATOM     20  C   UNL     1       9.605  10.501  19.588  0.00  0.00    +0.000 C 
BRANCH  20  26
ATOM     21  C   UNL     1       9.516  13.160  20.729  0.00  0.00    +0.000 C 
ATOM     22  C   UNL     1      10.859  12.460  20.485  0.00  0.00    +0.000 C 
ATOM     23  C   UNL     1      11.846  13.405  19.801  0.00  0.00    +0.000 C 
ATOM     24  C   UNL     1      11.582  13.168  18.330  0.00  0.00    +0.000 C 
ATOM     25  C   UNL     1      11.305  11.679  18.261  0.00  0.00    +0.000 C 
ATOM     26  N   UNL     1      10.842  11.282  19.597  0.00  0.00    +0.000 NA
ENDBRANCH  20  26
ENDBRANCH  19  20
ENDBRANCH   1  19
TORSDOF 5
ENDMDL
MODEL 5
REMARK VINA RESULT:      -8.1      6.022      9.122
REMARK  Name = 
REMARK  6 active torsions:
REMARK  status: ('A' for Active; 'I' for Inactive)
REMARK    1  A    between atoms: C_1  and  C_2
REMARK    2  A    between atoms: N_6  and  C_7
REMARK    3  A    between atoms: C_7  and  C_8
REMARK    4  A    between atoms: C_8  and  C_9
REMARK    5  A    between atoms: C_13  and  C_14
REMARK    6  A    between atoms: C_14  and  C_16
REMARK                            x       y       z     vdW  Elec       q    Type
REMARK                         _______ _______ _______ _____ _____    ______ ____
ROOT
ATOM      1  C   UNL     1       8.573   9.159  18.341  0.00  0.00    +0.000 A 
ATOM      2  C   UNL     1       7.481   9.015  17.516  0.00  0.00    +0.000 A 
ATOM      3  C   UNL     1       7.068   7.665  17.631  0.00  0.00    +0.000 A 
ATOM      4  C   UNL     1       6.044   6.889  17.071  0.00  0.00    +0.000 A 
ATOM      5  C   UNL     1       5.944   5.536  17.436  0.00  0.00    +0.000 A 
ATOM      6  C   UNL     1       6.875   4.961  18.317  0.00  0.00    +0.000 A 
ATOM      7  C   UNL     1       7.899   5.725  18.892  0.00  0.00    +0.000 A 
ATOM      8  C   UNL     1       7.951   7.067  18.519  0.00  0.00    +0.000 A 
ATOM      9  O   UNL     1       8.870   7.977  18.957  0.00  0.00    +0.000 OA
ENDROOT
BRANCH   5  10
ATOM     10  C   UNL     1       4.847   4.750  16.812  0.00  0.00    +0.000 C 
ATOM     11  O   UNL     1       4.960   4.392  15.642  0.00  0.00    +0.000 OA
BRANCH  10  12
ATOM     12  C   UNL     1       3.620   4.380  17.556  0.00  0.00    +0.000 A 
ATOM     13  C   UNL     1       2.838   3.274  17.199  0.00  0.00    +0.000 A 
ATOM     14  C   UNL     1       1.678   2.980  17.916  0.00  0.00    +0.000 A 
ATOM     15  C   UNL     1       1.314   3.773  19.006  0.00  0.00    +0.000 A 
ATOM     16  C   UNL     1       2.118   4.847  19.385  0.00  0.00    +0.000 A 
ATOM     17 CL   UNL     1       1.676   5.806  20.743  0.00  0.00    +0.000 Cl
ATOM     18  C   UNL     1       3.272   5.152  18.671  0.00  0.00    +0.000 A 
ENDBRANCH  10  12
ENDBRANCH   5  10
BRANCH   1  19
ATOM     19  C   UNL     1       9.455  10.314  18.651  0.00  0.00    +0.000 C 
BRANCH  19  20
ATOM     20  C   UNL     1       8.925  11.594  17.985  0.00  0.00    +0.000 C 
BRANCH  20  26
ATOM     21  C   UNL     1      11.021  13.312  16.970  0.00  0.00    +0.000 C 
ATOM     22  C   UNL     1      10.042  13.822  18.035  0.00  0.00    +0.000 C 
ATOM     23  C   UNL     1      10.791  14.532  19.163  0.00  0.00    +0.000 C 
ATOM     24  C   UNL     1      11.090  13.411  20.133  0.00  0.00    +0.000 C 
ATOM     25  C   UNL     1       9.850  12.542  20.055  0.00  0.00    +0.000 C 
ATOM     26  N   UNL     1       9.243  12.804  18.744  0.00  0.00    +0.000 NA
ENDBRANCH  20  26
ENDBRANCH  19  20
ENDBRANCH   1  19
TORSDOF 5
ENDMDL
MODEL 6
REMARK VINA RESULT:      -8.1      1.580      2.109
REMARK  Name = 
REMARK  6 active torsions:
REMARK  status: ('A' for Active; 'I' for Inactive)
REMARK    1  A    between atoms: C_1  and  C_2
REMARK    2  A    between atoms: N_6  and  C_7
REMARK    3  A    between atoms: C_7  and  C_8
REMARK    4  A    between atoms: C_8  and  C_9
REMARK    5  A    between atoms: C_13  and  C_14
REMARK    6  A    between atoms: C_14  and  C_16
REMARK                            x       y       z     vdW  Elec       q    Type
REMARK                         _______ _______ _______ _____ _____    ______ ____
ROOT
ATOM      1  C   UNL     1       2.897   7.205  18.754  0.00  0.00    +0.000 A 
ATOM      2  C   UNL     1       2.434   8.123  17.838  0.00  0.00    +0.000 A 
ATOM      3  C   UNL     1       1.508   8.944  18.528  0.00  0.00    +0.000 A 
ATOM      4  C   UNL     1       0.704  10.038  18.183  0.00  0.00    +0.000 A 
ATOM      5  C   UNL     1      -0.115  10.613  19.170  0.00  0.00    +0.000 A 
ATOM      6  C   UNL     1      -0.157  10.077  20.468  0.00  0.00    +0.000 A 
ATOM      7  C   UNL     1       0.648   8.989  20.830  0.00  0.00    +0.000 A 
ATOM      8  C   UNL     1       1.461   8.461  19.828  0.00  0.00    +0.000 A 
ATOM      9  O   UNL     1       2.309   7.402  19.971  0.00  0.00    +0.000 OA
ENDROOT
BRANCH   5  10
ATOM     10  C   UNL     1      -0.957  11.767  18.757  0.00  0.00    +0.000 C 
ATOM     11  O   UNL     1      -0.543  12.908  18.952  0.00  0.00    +0.000 OA
BRANCH  10  12
ATOM     12  C   UNL     1      -2.280  11.589  18.115  0.00  0.00    +0.000 A 
ATOM     13  C   UNL     1      -3.474  11.924  18.766  0.00  0.00    +0.000 A 
ATOM     14  C   UNL     1      -4.698  11.715  18.128  0.00  0.00    +0.000 A 
ATOM     15  C   UNL     1      -4.727  11.199  16.831  0.00  0.00    +0.000 A 
ATOM     16  C   UNL     1      -3.534  10.908  16.170  0.00  0.00    +0.000 A 
ATOM     17 CL   UNL     1      -3.577  10.294  14.563  0.00  0.00    +0.000 Cl
ATOM     18  C   UNL     1      -2.311  11.105  16.802  0.00  0.00    +0.000 A 
ENDBRANCH  10  12
ENDBRANCH   5  10
BRANCH   1  19
ATOM     19  C   UNL     1       3.864   6.082  18.652  0.00  0.00    +0.000 C 
BRANCH  19  20
ATOM     20  C   UNL     1       3.375   4.871  19.463  0.00  0.00    +0.000 C 
BRANCH  20  26
ATOM     21  C   UNL     1       1.571   3.332  21.124  0.00  0.00    +0.000 C 
ATOM     22  C   UNL     1       1.197   3.676  19.677  0.00  0.00    +0.000 C 
ATOM     23  C   UNL     1       0.667   2.442  18.948  0.00  0.00    +0.000 C 
ATOM     24  C   UNL     1       1.918   1.826  18.361  0.00  0.00    +0.000 C 
ATOM     25  C   UNL     1       2.744   3.033  17.959  0.00  0.00    +0.000 C 
ATOM     26  N   UNL     1       2.289   4.145  18.802  0.00  0.00    +0.000 NA
ENDBRANCH  20  26
ENDBRANCH  19  20
ENDBRANCH   1  19
TORSDOF 5
ENDMDL
MODEL 7
REMARK VINA RESULT:      -8.1      4.223      8.863
REMARK  Name = 
REMARK  6 active torsions:
REMARK  status: ('A' for Active; 'I' for Inactive)
REMARK    1  A    between atoms: C_1  and  C_2
REMARK    2  A    between atoms: N_6  and  C_7
REMARK    3  A    between atoms: C_7  and  C_8
REMARK    4  A    between atoms: C_8  and  C_9
REMARK    5  A    between atoms: C_13  and  C_14
REMARK    6  A    between atoms: C_14  and  C_16
REMARK                            x       y       z     vdW  Elec       q    Type
REMARK                         _______ _______ _______ _____ _____    ______ ____
ROOT
ATOM      1  C   UNL     1       1.268   9.517  19.112  0.00  0.00    +0.000 A 
ATOM      2  C   UNL     1       1.940   8.878  18.095  0.00  0.00    +0.000 A 
ATOM      3  C   UNL     1       2.249   7.580  18.572  0.00  0.00    +0.000 A 
ATOM      4  C   UNL     1       2.905   6.460  18.046  0.00  0.00    +0.000 A 
ATOM      5  C   UNL     1       3.023   5.309  18.844  0.00  0.00    +0.000 A 
ATOM      6  C   UNL     1       2.528   5.294  20.159  0.00  0.00    +0.000 A 
ATOM      7  C   UNL     1       1.862   6.404  20.696  0.00  0.00    +0.000 A 
ATOM      8  C   UNL     1       1.748   7.517  19.865  0.00  0.00    +0.000 A 
ATOM      9  O   UNL     1       1.146   8.697  20.197  0.00  0.00    +0.000 OA
ENDROOT
BRANCH   5  10
ATOM     10  C   UNL     1       3.732   4.147  18.248  0.00  0.00    +0.000 C 
ATOM     11  O   UNL     1       3.270   3.019  18.405  0.00  0.00    +0.000 OA
BRANCH  10  12
ATOM     12  C   UNL     1       4.981   4.301  17.465  0.00  0.00    +0.000 A 
ATOM     13  C   UNL     1       6.196   4.659  18.064  0.00  0.00    +0.000 A 
ATOM     14  C   UNL     1       7.340   4.816  17.280  0.00  0.00    +0.000 A 
ATOM     15  C   UNL     1       7.277   4.587  15.904  0.00  0.00    +0.000 A 
ATOM     16  C   UNL     1       6.076   4.190  15.318  0.00  0.00    +0.000 A 
ATOM     17 CL   UNL     1       6.012   3.889  13.626  0.00  0.00    +0.000 Cl
ATOM     18  C   UNL     1       4.929   4.039  16.091  0.00  0.00    +0.000 A 
ENDBRANCH  10  12
ENDBRANCH   5  10
BRANCH   1  19
ATOM     19  C   UNL     1       0.694  10.881  19.238  0.00  0.00    +0.000 C 
BRANCH  19  20
ATOM     20  C   UNL     1      -0.677  10.830  19.933  0.00  0.00    +0.000 C 
BRANCH  20  26
ATOM     21  C   UNL     1      -0.682  10.202  22.759  0.00  0.00    +0.000 C 
ATOM     22  C   UNL     1      -0.524  11.652  22.282  0.00  0.00    +0.000 C 
ATOM     23  C   UNL     1      -1.444  12.584  23.069  0.00  0.00    +0.000 C 
ATOM     24  C   UNL     1      -2.720  12.572  22.256  0.00  0.00    +0.000 C 
ATOM     25  C   UNL     1      -2.220  12.521  20.825  0.00  0.00    +0.000 C 
ATOM     26  N   UNL     1      -0.877  11.931  20.876  0.00  0.00    +0.000 NA
ENDBRANCH  20  26
ENDBRANCH  19  20
ENDBRANCH   1  19
TORSDOF 5
ENDMDL
MODEL 8
REMARK VINA RESULT:      -8.1      6.235      9.295
REMARK  Name = 
REMARK  6 active torsions:
REMARK  status: ('A' for Active; 'I' for Inactive)
REMARK    1  A    between atoms: C_1  and  C_2
REMARK    2  A    between atoms: N_6  and  C_7
REMARK    3  A    between atoms: C_7  and  C_8
REMARK    4  A    between atoms: C_8  and  C_9
REMARK    5  A    between atoms: C_13  and  C_14
REMARK    6  A    between atoms: C_14  and  C_16
REMARK                            x       y       z     vdW  Elec       q    Type
REMARK                         _______ _______ _______ _____ _____    ______ ____
ROOT
ATOM      1  C   UNL     1       8.356   9.065  18.101  0.00  0.00    +0.000 A 
ATOM      2  C   UNL     1       7.279   8.714  17.318  0.00  0.00    +0.000 A 
ATOM      3  C   UNL     1       6.992   7.359  17.616  0.00  0.00    +0.000 A 
ATOM      4  C   UNL     1       6.043   6.427  17.177  0.00  0.00    +0.000 A 
ATOM      5  C   UNL     1       6.067   5.131  17.720  0.00  0.00    +0.000 A 
ATOM      6  C   UNL     1       7.049   4.764  18.655  0.00  0.00    +0.000 A 
ATOM      7  C   UNL     1       7.999   5.688  19.111  0.00  0.00    +0.000 A 
ATOM      8  C   UNL     1       7.927   6.968  18.563  0.00  0.00    +0.000 A 
ATOM      9  O   UNL     1       8.760   8.007  18.864  0.00  0.00    +0.000 OA
ENDROOT
BRANCH   5  10
ATOM     10  C   UNL     1       5.046   4.173  17.220  0.00  0.00    +0.000 C 
ATOM     11  O   UNL     1       5.261   3.559  16.178  0.00  0.00    +0.000 OA
BRANCH  10  12
ATOM     12  C   UNL     1       3.774   3.930  17.940  0.00  0.00    +0.000 A 
ATOM     13  C   UNL     1       2.526   4.140  17.338  0.00  0.00    +0.000 A 
ATOM     14  C   UNL     1       1.355   3.920  18.065  0.00  0.00    +0.000 A 
ATOM     15  C   UNL     1       1.430   3.462  19.382  0.00  0.00    +0.000 A 
ATOM     16  C   UNL     1       2.673   3.213  19.964  0.00  0.00    +0.000 A 
ATOM     17 CL   UNL     1       2.757   2.629  21.579  0.00  0.00    +0.000 Cl
ATOM     18  C   UNL     1       3.845   3.438  19.248  0.00  0.00    +0.000 A 
ENDBRANCH  10  12
ENDBRANCH   5  10
BRANCH   1  19
ATOM     19  C   UNL     1       9.129  10.325  18.244  0.00  0.00    +0.000 C 
BRANCH  19  20
ATOM     20  C   UNL     1       9.301  10.690  19.727  0.00  0.00    +0.000 C 
BRANCH  20  26
ATOM     21  C   UNL     1      11.861  12.010  20.023  0.00  0.00    +0.000 C 
ATOM     22  C   UNL     1      10.589  12.825  19.754  0.00  0.00    +0.000 C 
ATOM     23  C   UNL     1      10.504  14.023  20.697  0.00  0.00    +0.000 C 
ATOM     24  C   UNL     1       9.761  13.466  21.892  0.00  0.00    +0.000 C 
ATOM     25  C   UNL     1       8.750  12.526  21.265  0.00  0.00    +0.000 C 
ATOM     26  N   UNL     1       9.302  12.134  19.962  0.00  0.00    +0.000 NA
ENDBRANCH  20  26
ENDBRANCH  19  20
ENDBRANCH   1  19
TORSDOF 5
ENDMDL
MODEL 9
REMARK VINA RESULT:      -8.0      6.250      9.190
REMARK  Name = 
REMARK  6 active torsions:
REMARK  status: ('A' for Active; 'I' for Inactive)
REMARK    1  A    between atoms: C_1  and  C_2
REMARK    2  A    between atoms: N_6  and  C_7
REMARK    3  A    between atoms: C_7  and  C_8
REMARK    4  A    between atoms: C_8  and  C_9
REMARK    5  A    between atoms: C_13  and  C_14
REMARK    6  A    between atoms: C_14  and  C_16
REMARK                            x       y       z     vdW  Elec       q    Type
REMARK                         _______ _______ _______ _____ _____    ______ ____
ROOT
ATOM      1  C   UNL     1       8.259   9.060  18.079  0.00  0.00    +0.000 A 
ATOM      2  C   UNL     1       7.159   8.712  17.327  0.00  0.00    +0.000 A 
ATOM      3  C   UNL     1       6.907   7.344  17.596  0.00  0.00    +0.000 A 
ATOM      4  C   UNL     1       5.957   6.407  17.168  0.00  0.00    +0.000 A 
ATOM      5  C   UNL     1       6.025   5.097  17.672  0.00  0.00    +0.000 A 
ATOM      6  C   UNL     1       7.047   4.722  18.558  0.00  0.00    +0.000 A 
ATOM      7  C   UNL     1       7.999   5.650  19.004  0.00  0.00    +0.000 A 
ATOM      8  C   UNL     1       7.884   6.943  18.496  0.00  0.00    +0.000 A 
ATOM      9  O   UNL     1       8.710   7.989  18.795  0.00  0.00    +0.000 OA
ENDROOT
BRANCH   5  10
ATOM     10  C   UNL     1       5.002   4.135  17.184  0.00  0.00    +0.000 C 
ATOM     11  O   UNL     1       5.213   3.514  16.145  0.00  0.00    +0.000 OA
BRANCH  10  12
ATOM     12  C   UNL     1       3.733   3.897  17.911  0.00  0.00    +0.000 A 
ATOM     13  C   UNL     1       2.482   4.094  17.311  0.00  0.00    +0.000 A 
ATOM     14  C   UNL     1       1.315   3.879  18.045  0.00  0.00    +0.000 A 
ATOM     15  C   UNL     1       1.397   3.439  19.368  0.00  0.00    +0.000 A 
ATOM     16  C   UNL     1       2.642   3.203  19.948  0.00  0.00    +0.000 A 
ATOM     17 CL   UNL     1       2.735   2.640  21.571  0.00  0.00    +0.000 Cl
ATOM     18  C   UNL     1       3.811   3.423  19.226  0.00  0.00    +0.000 A 
ENDBRANCH  10  12
ENDBRANCH   5  10
BRANCH   1  19
ATOM     19  C   UNL     1       9.015  10.330  18.228  0.00  0.00    +0.000 C 
BRANCH  19  20
ATOM     20  C   UNL     1       9.527  10.489  19.668  0.00  0.00    +0.000 C 
BRANCH  20  26
ATOM     21  C   UNL     1       8.656  11.987  21.987  0.00  0.00    +0.000 C 
ATOM     22  C   UNL     1       9.954  12.360  21.260  0.00  0.00    +0.000 C 
ATOM     23  C   UNL     1      10.027  13.868  21.023  0.00  0.00    +0.000 C 
ATOM     24  C   UNL     1       9.356  14.035  19.677  0.00  0.00    +0.000 C 
ATOM     25  C   UNL     1       9.807  12.809  18.908  0.00  0.00    +0.000 C 
ATOM     26  N   UNL     1      10.147  11.792  19.912  0.00  0.00    +0.000 NA
ENDBRANCH  20  26
ENDBRANCH  19  20
ENDBRANCH   1  19
TORSDOF 5
ENDMDL
