MODEL 1
REMARK VINA RESULT:      -8.6      0.000      0.000
REMARK  Name = 
REMARK  7 active torsions:
REMARK  status: ('A' for Active; 'I' for Inactive)
REMARK    1  A    between atoms: C_1  and  C_2
REMARK    2  A    between atoms: C_2  and  S_3
REMARK    3  A    between atoms: S_3  and  N_6
REMARK    4  A    between atoms: N_6  and  C_7
REMARK    5  A    between atoms: C_9  and  C_10
REMARK    6  A    between atoms: C_23  and  O_24
REMARK    7  A    between atoms: O_24  and  C_25
REMARK                            x       y       z     vdW  Elec       q    Type
REMARK                         _______ _______ _______ _____ _____    ______ ____
ROOT
ATOM      1  C   UNL     1       4.619   4.518  18.497  0.00  0.00    +0.000 A 
ATOM      2  C   UNL     1       4.058   5.790  18.453  0.00  0.00    +0.000 A 
ATOM      3  C   UNL     1       2.942   6.086  19.241  0.00  0.00    +0.000 A 
ATOM      4  C   UNL     1       2.464   5.097  20.092  0.00  0.00    +0.000 A 
ATOM      5  N   UNL     1       2.999   3.858  20.179  0.00  0.00    +0.000 NA
ATOM      6  C   UNL     1       4.060   3.582  19.380  0.00  0.00    +0.000 A 
ENDROOT
BRANCH   3   7
ATOM      7  C   UNL     1       2.317   7.408  19.150  0.00  0.00    +0.000 A 
ATOM      8  C   UNL     1       2.229   8.135  17.903  0.00  0.00    +0.000 A 
ATOM      9  C   UNL     1       1.563   9.291  17.824  0.00  0.00    +0.000 A 
ATOM     10  C   UNL     1       0.932   9.869  19.040  0.00  0.00    +0.000 A 
ATOM     11  N   UNL     1       0.287  10.990  18.931  0.00  0.00    +0.000 NA
ATOM     12  C   UNL     1      -0.237  11.517  20.075  0.00  0.00    +0.000 A 
ATOM     13  C   UNL     1      -0.132  10.968  21.284  0.00  0.00    +0.000 A 
ATOM     14  C   UNL     1       0.562   9.673  21.405  0.00  0.00    +0.000 A 
ATOM     15  O   UNL     1       0.629   9.139  22.512  0.00  0.00    +0.000 OA
ATOM     16  N   UNL     1       1.093   9.163  20.228  0.00  0.00    +0.000 N 
ATOM     17  C   UNL     1       1.762   7.943  20.254  0.00  0.00    +0.000 A 
ENDBRANCH   3   7
BRANCH   1  18
ATOM     18  N   UNL     1       5.731   4.244  17.629  0.00  0.00    +0.000 N 
ATOM     19  H   UNL     1       5.896   3.242  17.490  0.00  0.00    +0.000 HD
BRANCH  18  20
ATOM     20  S   UNL     1       7.216   4.967  18.015  0.00  0.00    +0.000 S 
ATOM     21  O   UNL     1       8.218   4.114  17.409  0.00  0.00    +0.000 OA
ATOM     22  O   UNL     1       7.247   5.282  19.424  0.00  0.00    +0.000 OA
BRANCH  20  24
ATOM     23  C   UNL     1       7.819   7.637  17.828  0.00  0.00    +0.000 C 
ATOM     24  C   UNL     1       7.152   6.497  17.078  0.00  0.00    +0.000 C 
ENDBRANCH  20  24
ENDBRANCH  18  20
ENDBRANCH   1  18
BRANCH   6  25
ATOM     25  O   UNL     1       4.556   2.292  19.361  0.00  0.00    +0.000 OA
ATOM     26  C   UNL     1       3.715   1.388  18.638  0.00  0.00    +0.000 C 
ENDBRANCH   6  25
TORSDOF 5
ENDMDL
MODEL 2
REMARK VINA RESULT:      -8.3      1.213      1.338
REMARK  Name = 
REMARK  7 active torsions:
REMARK  status: ('A' for Active; 'I' for Inactive)
REMARK    1  A    between atoms: C_1  and  C_2
REMARK    2  A    between atoms: C_2  and  S_3
REMARK    3  A    between atoms: S_3  and  N_6
REMARK    4  A    between atoms: N_6  and  C_7
REMARK    5  A    between atoms: C_9  and  C_10
REMARK    6  A    between atoms: C_23  and  O_24
REMARK    7  A    between atoms: O_24  and  C_25
REMARK                            x       y       z     vdW  Elec       q    Type
REMARK                         _______ _______ _______ _____ _____    ______ ____
ROOT
ATOM      1  C   UNL     1       4.804   4.456  19.090  0.00  0.00    +0.000 A 
ATOM      2  C   UNL     1       4.292   5.749  19.051  0.00  0.00    +0.000 A 
ATOM      3  C   UNL     1       2.929   5.963  19.270  0.00  0.00    +0.000 A 
ATOM      4  C   UNL     1       2.136   4.863  19.578  0.00  0.00    +0.000 A 
ATOM      5  N   UNL     1       2.605   3.597  19.649  0.00  0.00    +0.000 NA
ATOM      6  C   UNL     1       3.925   3.408  19.399  0.00  0.00    +0.000 A 
ENDROOT
BRANCH   3   7
ATOM      7  C   UNL     1       2.379   7.318  19.172  0.00  0.00    +0.000 A 
ATOM      8  C   UNL     1       2.438   8.086  17.948  0.00  0.00    +0.000 A 
ATOM      9  C   UNL     1       1.839   9.277  17.852  0.00  0.00    +0.000 A 
ATOM     10  C   UNL     1       1.131   9.850  19.027  0.00  0.00    +0.000 A 
ATOM     11  N   UNL     1       0.554  11.006  18.902  0.00  0.00    +0.000 NA
ATOM     12  C   UNL     1      -0.043  11.524  20.013  0.00  0.00    +0.000 A 
ATOM     13  C   UNL     1      -0.073  10.933  21.206  0.00  0.00    +0.000 A 
ATOM     14  C   UNL     1       0.543   9.601  21.343  0.00  0.00    +0.000 A 
ATOM     15  O   UNL     1       0.485   9.031  22.432  0.00  0.00    +0.000 OA
ATOM     16  N   UNL     1       1.151   9.100  20.200  0.00  0.00    +0.000 N 
ATOM     17  C   UNL     1       1.755   7.847  20.241  0.00  0.00    +0.000 A 
ENDBRANCH   3   7
BRANCH   1  18
ATOM     18  N   UNL     1       6.202   4.280  18.805  0.00  0.00    +0.000 N 
ATOM     19  H   UNL     1       6.812   4.652  19.539  0.00  0.00    +0.000 HD
BRANCH  18  20
ATOM     20  S   UNL     1       6.771   4.855  17.315  0.00  0.00    +0.000 S 
ATOM     21  O   UNL     1       8.030   4.169  17.104  0.00  0.00    +0.000 OA
ATOM     22  O   UNL     1       6.685   6.296  17.290  0.00  0.00    +0.000 OA
BRANCH  20  24
ATOM     23  C   UNL     1       6.188   3.951  14.791  0.00  0.00    +0.000 C 
ATOM     24  C   UNL     1       5.574   4.180  16.161  0.00  0.00    +0.000 C 
ENDBRANCH  20  24
ENDBRANCH  18  20
ENDBRANCH   1  18
BRANCH   6  25
ATOM     25  O   UNL     1       4.411   2.115  19.349  0.00  0.00    +0.000 OA
ATOM     26  C   UNL     1       3.658   1.277  18.468  0.00  0.00    +0.000 C 
ENDBRANCH   6  25
TORSDOF 5
ENDMDL
MODEL 3
REMARK VINA RESULT:      -8.3      1.016      1.132
REMARK  Name = 
REMARK  7 active torsions:
REMARK  status: ('A' for Active; 'I' for Inactive)
REMARK    1  A    between atoms: C_1  and  C_2
REMARK    2  A    between atoms: C_2  and  S_3
REMARK    3  A    between atoms: S_3  and  N_6
REMARK    4  A    between atoms: N_6  and  C_7
REMARK    5  A    between atoms: C_9  and  C_10
REMARK    6  A    between atoms: C_23  and  O_24
REMARK    7  A    between atoms: O_24  and  C_25
REMARK                            x       y       z     vdW  Elec       q    Type
REMARK                         _______ _______ _______ _____ _____    ______ ____
ROOT
ATOM      1  C   UNL     1       4.669   4.701  18.648  0.00  0.00    +0.000 A 
ATOM      2  C   UNL     1       4.160   5.975  18.880  0.00  0.00    +0.000 A 
ATOM      3  C   UNL     1       2.828   6.258  18.567  0.00  0.00    +0.000 A 
ATOM      4  C   UNL     1       2.038   5.224  18.081  0.00  0.00    +0.000 A 
ATOM      5  N   UNL     1       2.492   3.969  17.868  0.00  0.00    +0.000 NA
ATOM      6  C   UNL     1       3.797   3.725  18.145  0.00  0.00    +0.000 A 
ENDROOT
BRANCH   3   7
ATOM      7  C   UNL     1       2.308   7.615  18.758  0.00  0.00    +0.000 A 
ATOM      8  C   UNL     1       2.282   8.587  17.687  0.00  0.00    +0.000 A 
ATOM      9  C   UNL     1       1.709   9.783  17.855  0.00  0.00    +0.000 A 
ATOM     10  C   UNL     1       1.119  10.146  19.171  0.00  0.00    +0.000 A 
ATOM     11  N   UNL     1       0.564  11.312  19.302  0.00  0.00    +0.000 NA
ATOM     12  C   UNL     1       0.078  11.631  20.535  0.00  0.00    +0.000 A 
ATOM     13  C   UNL     1       0.134  10.839  21.604  0.00  0.00    +0.000 A 
ATOM     14  C   UNL     1       0.725   9.497  21.450  0.00  0.00    +0.000 A 
ATOM     15  O   UNL     1       0.745   8.744  22.422  0.00  0.00    +0.000 OA
ATOM     16  N   UNL     1       1.220   9.200  20.187  0.00  0.00    +0.000 N 
ATOM     17  C   UNL     1       1.792   7.953  19.954  0.00  0.00    +0.000 A 
ENDBRANCH   3   7
BRANCH   1  18
ATOM     18  N   UNL     1       6.059   4.472  18.934  0.00  0.00    +0.000 N 
ATOM     19  H   UNL     1       6.347   4.837  19.848  0.00  0.00    +0.000 HD
BRANCH  18  20
ATOM     20  S   UNL     1       7.188   5.001  17.784  0.00  0.00    +0.000 S 
ATOM     21  O   UNL     1       6.405   5.324  16.609  0.00  0.00    +0.000 OA
ATOM     22  O   UNL     1       8.287   4.067  17.724  0.00  0.00    +0.000 OA
BRANCH  20  24
ATOM     23  C   UNL     1       7.610   7.701  17.533  0.00  0.00    +0.000 C 
ATOM     24  C   UNL     1       7.771   6.540  18.500  0.00  0.00    +0.000 C 
ENDBRANCH  20  24
ENDBRANCH  18  20
ENDBRANCH   1  18
BRANCH   6  25
ATOM     25  O   UNL     1       4.321   2.485  17.829  0.00  0.00    +0.000 OA
ATOM     26  C   UNL     1       3.605   1.410  18.443  0.00  0.00    +0.000 C 
ENDBRANCH   6  25
TORSDOF 5
ENDMDL
MODEL 4
REMARK VINA RESULT:      -8.0      1.249      1.439
REMARK  Name = 
REMARK  7 active torsions:
REMARK  status: ('A' for Active; 'I' for Inactive)
REMARK    1  A    between atoms: C_1  and  C_2
REMARK    2  A    between atoms: C_2  and  S_3
REMARK    3  A    between atoms: S_3  and  N_6
REMARK    4  A    between atoms: N_6  and  C_7
REMARK    5  A    between atoms: C_9  and  C_10
REMARK    6  A    between atoms: C_23  and  O_24
REMARK    7  A    between atoms: O_24  and  C_25
REMARK                            x       y       z     vdW  Elec       q    Type
REMARK                         _______ _______ _______ _____ _____    ______ ____
ROOT
ATOM      1  C   UNL     1       4.322   5.019  17.523  0.00  0.00    +0.000 A 
ATOM      2  C   UNL     1       3.733   6.266  17.704  0.00  0.00    +0.000 A 
ATOM      3  C   UNL     1       2.874   6.478  18.786  0.00  0.00    +0.000 A 
ATOM      4  C   UNL     1       2.682   5.433  19.682  0.00  0.00    +0.000 A 
ATOM      5  N   UNL     1       3.258   4.217  19.551  0.00  0.00    +0.000 NA
ATOM      6  C   UNL     1       4.061   4.022  18.475  0.00  0.00    +0.000 A 
ENDROOT
BRANCH   3   7
ATOM      7  C   UNL     1       2.208   7.774  18.944  0.00  0.00    +0.000 A 
ATOM      8  C   UNL     1       1.970   8.659  17.825  0.00  0.00    +0.000 A 
ATOM      9  C   UNL     1       1.270   9.787  17.975  0.00  0.00    +0.000 A 
ATOM     10  C   UNL     1       0.756  10.170  19.317  0.00  0.00    +0.000 A 
ATOM     11  N   UNL     1       0.074  11.268  19.431  0.00  0.00    +0.000 NA
ATOM     12  C   UNL     1      -0.340  11.614  20.683  0.00  0.00    +0.000 A 
ATOM     13  C   UNL     1      -0.094  10.910  21.787  0.00  0.00    +0.000 A 
ATOM     14  C   UNL     1       0.642   9.640  21.657  0.00  0.00    +0.000 A 
ATOM     15  O   UNL     1       0.839   8.964  22.666  0.00  0.00    +0.000 OA
ATOM     16  N   UNL     1       1.060   9.316  20.373  0.00  0.00    +0.000 N 
ATOM     17  C   UNL     1       1.759   8.131  20.161  0.00  0.00    +0.000 A 
ENDBRANCH   3   7
BRANCH   1  18
ATOM     18  N   UNL     1       5.155   4.832  16.367  0.00  0.00    +0.000 N 
ATOM     19  H   UNL     1       5.273   3.847  16.111  0.00  0.00    +0.000 HD
BRANCH  18  20
ATOM     20  S   UNL     1       6.691   5.550  16.390  0.00  0.00    +0.000 S 
ATOM     21  O   UNL     1       6.450   6.945  16.700  0.00  0.00    +0.000 OA
ATOM     22  O   UNL     1       7.424   5.156  15.210  0.00  0.00    +0.000 OA
BRANCH  20  24
ATOM     23  C   UNL     1       7.702   5.803  18.928  0.00  0.00    +0.000 C 
ATOM     24  C   UNL     1       7.449   4.787  17.827  0.00  0.00    +0.000 C 
ENDBRANCH  20  24
ENDBRANCH  18  20
ENDBRANCH   1  18
BRANCH   6  25
ATOM     25  O   UNL     1       4.571   2.757  18.250  0.00  0.00    +0.000 OA
ATOM     26  C   UNL     1       3.553   1.753  18.200  0.00  0.00    +0.000 C 
ENDBRANCH   6  25
TORSDOF 5
ENDMDL
MODEL 5
REMARK VINA RESULT:      -8.0      1.444      1.639
REMARK  Name = 
REMARK  7 active torsions:
REMARK  status: ('A' for Active; 'I' for Inactive)
REMARK    1  A    between atoms: C_1  and  C_2
REMARK    2  A    between atoms: C_2  and  S_3
REMARK    3  A    between atoms: S_3  and  N_6
REMARK    4  A    between atoms: N_6  and  C_7
REMARK    5  A    between atoms: C_9  and  C_10
REMARK    6  A    between atoms: C_23  and  O_24
REMARK    7  A    between atoms: O_24  and  C_25
REMARK                            x       y       z     vdW  Elec       q    Type
REMARK                         _______ _______ _______ _____ _____    ______ ____
ROOT
ATOM      1  C   UNL     1       4.038   5.099  17.715  0.00  0.00    +0.000 A 
ATOM      2  C   UNL     1       3.464   6.356  17.873  0.00  0.00    +0.000 A 
ATOM      3  C   UNL     1       2.676   6.624  18.995  0.00  0.00    +0.000 A 
ATOM      4  C   UNL     1       2.540   5.625  19.951  0.00  0.00    +0.000 A 
ATOM      5  N   UNL     1       3.104   4.401  19.842  0.00  0.00    +0.000 NA
ATOM      6  C   UNL     1       3.836   4.151  18.728  0.00  0.00    +0.000 A 
ENDROOT
BRANCH   3   7
ATOM      7  C   UNL     1       2.025   7.930  19.132  0.00  0.00    +0.000 A 
ATOM      8  C   UNL     1       1.813   8.807  18.002  0.00  0.00    +0.000 A 
ATOM      9  C   UNL     1       1.125   9.946  18.133  0.00  0.00    +0.000 A 
ATOM     10  C   UNL     1       0.598  10.347  19.464  0.00  0.00    +0.000 A 
ATOM     11  N   UNL     1      -0.071  11.455  19.559  0.00  0.00    +0.000 NA
ATOM     12  C   UNL     1      -0.497  11.818  20.803  0.00  0.00    +0.000 A 
ATOM     13  C   UNL     1      -0.274  11.121  21.916  0.00  0.00    +0.000 A 
ATOM     14  C   UNL     1       0.448   9.841  21.808  0.00  0.00    +0.000 A 
ATOM     15  O   UNL     1       0.623   9.172  22.825  0.00  0.00    +0.000 OA
ATOM     16  N   UNL     1       0.878   9.499  20.532  0.00  0.00    +0.000 N 
ATOM     17  C   UNL     1       1.565   8.304  20.341  0.00  0.00    +0.000 A 
ENDBRANCH   3   7
BRANCH   1  18
ATOM     18  N   UNL     1       4.795   4.853  16.518  0.00  0.00    +0.000 N 
ATOM     19  H   UNL     1       4.756   3.875  16.211  0.00  0.00    +0.000 HD
BRANCH  18  20
ATOM     20  S   UNL     1       6.421   5.335  16.512  0.00  0.00    +0.000 S 
ATOM     21  O   UNL     1       7.046   4.563  17.567  0.00  0.00    +0.000 OA
ATOM     22  O   UNL     1       6.495   6.776  16.488  0.00  0.00    +0.000 OA
BRANCH  20  24
ATOM     23  C   UNL     1       5.869   4.092  14.129  0.00  0.00    +0.000 C 
ATOM     24  C   UNL     1       7.004   4.695  14.940  0.00  0.00    +0.000 C 
ENDBRANCH  20  24
ENDBRANCH  18  20
ENDBRANCH   1  18
BRANCH   6  25
ATOM     25  O   UNL     1       4.327   2.873  18.532  0.00  0.00    +0.000 OA
ATOM     26  C   UNL     1       3.293   1.916  18.288  0.00  0.00    +0.000 C 
ENDBRANCH   6  25
TORSDOF 5
ENDMDL
MODEL 6
REMARK VINA RESULT:      -7.9      2.058      3.617
REMARK  Name = 
REMARK  7 active torsions:
REMARK  status: ('A' for Active; 'I' for Inactive)
REMARK    1  A    between atoms: C_1  and  C_2
REMARK    2  A    between atoms: C_2  and  S_3
REMARK    3  A    between atoms: S_3  and  N_6
REMARK    4  A    between atoms: N_6  and  C_7
REMARK    5  A    between atoms: C_9  and  C_10
REMARK    6  A    between atoms: C_23  and  O_24
REMARK    7  A    between atoms: O_24  and  C_25
REMARK                            x       y       z     vdW  Elec       q    Type
REMARK                         _______ _______ _______ _____ _____    ______ ____
ROOT
ATOM      1  C   UNL     1       3.494   5.130  18.540  0.00  0.00    +0.000 A 
ATOM      2  C   UNL     1       2.577   6.118  18.885  0.00  0.00    +0.000 A 
ATOM      3  C   UNL     1       2.721   7.410  18.373  0.00  0.00    +0.000 A 
ATOM      4  C   UNL     1       3.760   7.645  17.480  0.00  0.00    +0.000 A 
ATOM      5  N   UNL     1       4.654   6.704  17.102  0.00  0.00    +0.000 NA
ATOM      6  C   UNL     1       4.516   5.466  17.639  0.00  0.00    +0.000 A 
ENDROOT
BRANCH   3   7
ATOM      7  C   UNL     1       1.789   8.464  18.782  0.00  0.00    +0.000 A 
ATOM      8  C   UNL     1       1.004   9.211  17.825  0.00  0.00    +0.000 A 
ATOM      9  C   UNL     1       0.085  10.095  18.227  0.00  0.00    +0.000 A 
ATOM     10  C   UNL     1      -0.115  10.350  19.679  0.00  0.00    +0.000 A 
ATOM     11  N   UNL     1      -1.019  11.209  20.039  0.00  0.00    +0.000 NA
ATOM     12  C   UNL     1      -1.142  11.455  21.375  0.00  0.00    +0.000 A 
ATOM     13  C   UNL     1      -0.405  10.882  22.325  0.00  0.00    +0.000 A 
ATOM     14  C   UNL     1       0.593   9.875  21.924  0.00  0.00    +0.000 A 
ATOM     15  O   UNL     1       1.250   9.312  22.799  0.00  0.00    +0.000 OA
ATOM     16  N   UNL     1       0.704   9.649  20.559  0.00  0.00    +0.000 N 
ATOM     17  C   UNL     1       1.621   8.710  20.094  0.00  0.00    +0.000 A 
ENDBRANCH   3   7
BRANCH   1  18
ATOM     18  N   UNL     1       3.337   3.831  19.134  0.00  0.00    +0.000 N 
ATOM     19  H   UNL     1       4.218   3.436  19.477  0.00  0.00    +0.000 HD
BRANCH  18  20
ATOM     20  S   UNL     1       2.558   2.641  18.210  0.00  0.00    +0.000 S 
ATOM     21  O   UNL     1       3.475   1.519  18.193  0.00  0.00    +0.000 OA
ATOM     22  O   UNL     1       2.062   3.228  16.988  0.00  0.00    +0.000 OA
BRANCH  20  24
ATOM     23  C   UNL     1       1.049   3.126  20.450  0.00  0.00    +0.000 C 
ATOM     24  C   UNL     1       1.164   2.199  19.252  0.00  0.00    +0.000 C 
ENDBRANCH  20  24
ENDBRANCH  18  20
ENDBRANCH   1  18
BRANCH   6  25
ATOM     25  O   UNL     1       5.480   4.514  17.365  0.00  0.00    +0.000 OA
ATOM     26  C   UNL     1       5.413   4.032  16.020  0.00  0.00    +0.000 C 
ENDBRANCH   6  25
TORSDOF 5
ENDMDL
MODEL 7
REMARK VINA RESULT:      -7.8      2.403      4.000
REMARK  Name = 
REMARK  7 active torsions:
REMARK  status: ('A' for Active; 'I' for Inactive)
REMARK    1  A    between atoms: C_1  and  C_2
REMARK    2  A    between atoms: C_2  and  S_3
REMARK    3  A    between atoms: S_3  and  N_6
REMARK    4  A    between atoms: N_6  and  C_7
REMARK    5  A    between atoms: C_9  and  C_10
REMARK    6  A    between atoms: C_23  and  O_24
REMARK    7  A    between atoms: O_24  and  C_25
REMARK                            x       y       z     vdW  Elec       q    Type
REMARK                         _______ _______ _______ _____ _____    ______ ____
ROOT
ATOM      1  C   UNL     1       2.940   5.847  19.857  0.00  0.00    +0.000 A 
ATOM      2  C   UNL     1       2.081   6.899  20.157  0.00  0.00    +0.000 A 
ATOM      3  C   UNL     1       1.946   7.962  19.260  0.00  0.00    +0.000 A 
ATOM      4  C   UNL     1       2.646   7.898  18.061  0.00  0.00    +0.000 A 
ATOM      5  N   UNL     1       3.470   6.879  17.727  0.00  0.00    +0.000 NA
ATOM      6  C   UNL     1       3.612   5.874  18.627  0.00  0.00    +0.000 A 
ENDROOT
BRANCH   3   7
ATOM      7  C   UNL     1       1.085   9.098  19.602  0.00  0.00    +0.000 A 
ATOM      8  C   UNL     1       0.520   9.966  18.593  0.00  0.00    +0.000 A 
ATOM      9  C   UNL     1      -0.346  10.931  18.920  0.00  0.00    +0.000 A 
ATOM     10  C   UNL     1      -0.711  11.150  20.345  0.00  0.00    +0.000 A 
ATOM     11  N   UNL     1      -1.558  12.090  20.631  0.00  0.00    +0.000 NA
ATOM     12  C   UNL     1      -1.833  12.296  21.951  0.00  0.00    +0.000 A 
ATOM     13  C   UNL     1      -1.296  11.607  22.957  0.00  0.00    +0.000 A 
ATOM     14  C   UNL     1      -0.366  10.510  22.634  0.00  0.00    +0.000 A 
ATOM     15  O   UNL     1       0.104   9.843  23.555  0.00  0.00    +0.000 OA
ATOM     16  N   UNL     1      -0.097  10.327  21.285  0.00  0.00    +0.000 N 
ATOM     17  C   UNL     1       0.769   9.310  20.893  0.00  0.00    +0.000 A 
ENDBRANCH   3   7
BRANCH   1  18
ATOM     18  N   UNL     1       3.088   4.802  20.834  0.00  0.00    +0.000 N 
ATOM     19  H   UNL     1       3.996   4.330  20.784  0.00  0.00    +0.000 HD
BRANCH  18  20
ATOM     20  S   UNL     1       1.884   3.608  20.885  0.00  0.00    +0.000 S 
ATOM     21  O   UNL     1       0.687   4.260  20.392  0.00  0.00    +0.000 OA
ATOM     22  O   UNL     1       1.910   2.954  22.171  0.00  0.00    +0.000 OA
BRANCH  20  24
ATOM     23  C   UNL     1       1.694   2.646  18.323  0.00  0.00    +0.000 C 
ATOM     24  C   UNL     1       2.440   2.451  19.631  0.00  0.00    +0.000 C 
ENDBRANCH  20  24
ENDBRANCH  18  20
ENDBRANCH   1  18
BRANCH   6  25
ATOM     25  O   UNL     1       4.535   4.878  18.366  0.00  0.00    +0.000 OA
ATOM     26  C   UNL     1       4.587   4.523  16.981  0.00  0.00    +0.000 C 
ENDBRANCH   6  25
TORSDOF 5
ENDMDL
MODEL 8
REMARK VINA RESULT:      -7.7      2.100      3.505
REMARK  Name = 
REMARK  7 active torsions:
REMARK  status: ('A' for Active; 'I' for Inactive)
REMARK    1  A    between atoms: C_1  and  C_2
REMARK    2  A    between atoms: C_2  and  S_3
REMARK    3  A    between atoms: S_3  and  N_6
REMARK    4  A    between atoms: N_6  and  C_7
REMARK    5  A    between atoms: C_9  and  C_10
REMARK    6  A    between atoms: C_23  and  O_24
REMARK    7  A    between atoms: O_24  and  C_25
REMARK                            x       y       z     vdW  Elec       q    Type
REMARK                         _______ _______ _______ _____ _____    ______ ____
ROOT
ATOM      1  C   UNL     1       3.249   4.740  17.592  0.00  0.00    +0.000 A 
ATOM      2  C   UNL     1       2.411   5.773  17.998  0.00  0.00    +0.000 A 
ATOM      3  C   UNL     1       2.882   7.088  18.006  0.00  0.00    +0.000 A 
ATOM      4  C   UNL     1       4.174   7.321  17.548  0.00  0.00    +0.000 A 
ATOM      5  N   UNL     1       5.007   6.345  17.123  0.00  0.00    +0.000 NA
ATOM      6  C   UNL     1       4.540   5.072  17.157  0.00  0.00    +0.000 A 
ENDROOT
BRANCH   3   7
ATOM      7  C   UNL     1       2.018   8.169  18.487  0.00  0.00    +0.000 A 
ATOM      8  C   UNL     1       1.313   9.051  17.584  0.00  0.00    +0.000 A 
ATOM      9  C   UNL     1       0.449   9.962  18.044  0.00  0.00    +0.000 A 
ATOM     10  C   UNL     1       0.230  10.106  19.508  0.00  0.00    +0.000 A 
ATOM     11  N   UNL     1      -0.618  10.995  19.924  0.00  0.00    +0.000 NA
ATOM     12  C   UNL     1      -0.758  11.135  21.273  0.00  0.00    +0.000 A 
ATOM     13  C   UNL     1      -0.088  10.431  22.185  0.00  0.00    +0.000 A 
ATOM     14  C   UNL     1       0.845   9.391  21.717  0.00  0.00    +0.000 A 
ATOM     15  O   UNL     1       1.438   8.709  22.552  0.00  0.00    +0.000 OA
ATOM     16  N   UNL     1       0.975   9.275  20.339  0.00  0.00    +0.000 N 
ATOM     17  C   UNL     1       1.834   8.314  19.813  0.00  0.00    +0.000 A 
ENDBRANCH   3   7
BRANCH   1  18
ATOM     18  N   UNL     1       2.738   3.398  17.652  0.00  0.00    +0.000 N 
ATOM     19  H   UNL     1       1.720   3.350  17.543  0.00  0.00    +0.000 HD
BRANCH  18  20
ATOM     20  S   UNL     1       3.159   2.464  19.004  0.00  0.00    +0.000 S 
ATOM     21  O   UNL     1       3.963   3.341  19.831  0.00  0.00    +0.000 OA
ATOM     22  O   UNL     1       3.652   1.180  18.566  0.00  0.00    +0.000 OA
BRANCH  20  24
ATOM     23  C   UNL     1       1.139   3.491  20.551  0.00  0.00    +0.000 C 
ATOM     24  C   UNL     1       1.576   2.234  19.818  0.00  0.00    +0.000 C 
ENDBRANCH  20  24
ENDBRANCH  18  20
ENDBRANCH   1  18
BRANCH   6  25
ATOM     25  O   UNL     1       5.406   4.041  16.840  0.00  0.00    +0.000 OA
ATOM     26  C   UNL     1       5.780   4.039  15.460  0.00  0.00    +0.000 C 
ENDBRANCH   6  25
TORSDOF 5
ENDMDL
MODEL 9
REMARK VINA RESULT:      -7.7      1.385      1.908
REMARK  Name = 
REMARK  7 active torsions:
REMARK  status: ('A' for Active; 'I' for Inactive)
REMARK    1  A    between atoms: C_1  and  C_2
REMARK    2  A    between atoms: C_2  and  S_3
REMARK    3  A    between atoms: S_3  and  N_6
REMARK    4  A    between atoms: N_6  and  C_7
REMARK    5  A    between atoms: C_9  and  C_10
REMARK    6  A    between atoms: C_23  and  O_24
REMARK    7  A    between atoms: O_24  and  C_25
REMARK                            x       y       z     vdW  Elec       q    Type
REMARK                         _______ _______ _______ _____ _____    ______ ____
ROOT
ATOM      1  C   UNL     1       4.209   4.698  18.736  0.00  0.00    +0.000 A 
ATOM      2  C   UNL     1       3.560   5.906  18.973  0.00  0.00    +0.000 A 
ATOM      3  C   UNL     1       2.546   5.973  19.933  0.00  0.00    +0.000 A 
ATOM      4  C   UNL     1       2.260   4.824  20.661  0.00  0.00    +0.000 A 
ATOM      5  N   UNL     1       2.887   3.642  20.475  0.00  0.00    +0.000 NA
ATOM      6  C   UNL     1       3.844   3.591  19.514  0.00  0.00    +0.000 A 
ENDROOT
BRANCH   3   7
ATOM      7  C   UNL     1       1.824   7.231  20.142  0.00  0.00    +0.000 A 
ATOM      8  C   UNL     1       0.993   7.457  21.304  0.00  0.00    +0.000 A 
ATOM      9  C   UNL     1       0.428   8.648  21.526  0.00  0.00    +0.000 A 
ATOM     10  C   UNL     1       0.618   9.754  20.550  0.00  0.00    +0.000 A 
ATOM     11  N   UNL     1       0.062  10.901  20.796  0.00  0.00    +0.000 NA
ATOM     12  C   UNL     1       0.215  11.878  19.857  0.00  0.00    +0.000 A 
ATOM     13  C   UNL     1       0.887  11.737  18.715  0.00  0.00    +0.000 A 
ATOM     14  C   UNL     1       1.557  10.451  18.452  0.00  0.00    +0.000 A 
ATOM     15  O   UNL     1       2.213  10.326  17.418  0.00  0.00    +0.000 OA
ATOM     16  N   UNL     1       1.378   9.471  19.419  0.00  0.00    +0.000 N 
ATOM     17  C   UNL     1       1.979   8.227  19.250  0.00  0.00    +0.000 A 
ENDBRANCH   3   7
BRANCH   1  18
ATOM     18  N   UNL     1       5.207   4.665  17.702  0.00  0.00    +0.000 N 
ATOM     19  H   UNL     1       5.306   3.742  17.268  0.00  0.00    +0.000 HD
BRANCH  18  20
ATOM     20  S   UNL     1       6.759   5.222  18.100  0.00  0.00    +0.000 S 
ATOM     21  O   UNL     1       7.659   4.455  17.263  0.00  0.00    +0.000 OA
ATOM     22  O   UNL     1       6.906   5.253  19.535  0.00  0.00    +0.000 OA
BRANCH  20  24
ATOM     23  C   UNL     1       7.949   7.690  17.942  0.00  0.00    +0.000 C 
ATOM     24  C   UNL     1       6.731   6.907  17.481  0.00  0.00    +0.000 C 
ENDBRANCH  20  24
ENDBRANCH  18  20
ENDBRANCH   1  18
BRANCH   6  25
ATOM     25  O   UNL     1       4.421   2.369  19.219  0.00  0.00    +0.000 OA
ATOM     26  C   UNL     1       3.576   1.538  18.420  0.00  0.00    +0.000 C 
ENDBRANCH   6  25
TORSDOF 5
ENDMDL
