MODEL 1
REMARK VINA RESULT:      -8.0      0.000      0.000
REMARK  Name = 
REMARK  7 active torsions:
REMARK  status: ('A' for Active; 'I' for Inactive)
REMARK    1  A    between atoms: C_1  and  O_2
REMARK    2  A    between atoms: O_2  and  C_3
REMARK    3  A    between atoms: C_5  and  C_6
REMARK    4  A    between atoms: C_6  and  C_7
REMARK    5  A    between atoms: C_17  and  O_18
REMARK    6  A    between atoms: O_18  and  S_19
REMARK    7  A    between atoms: S_19  and  C_20
REMARK                            x       y       z     vdW  Elec       q    Type
REMARK                         _______ _______ _______ _____ _____    ______ ____
ROOT
ATOM      1  C   UNL     1       3.020   5.866  18.784  0.00  0.00    +0.000 A 
ATOM      2  C   UNL     1       4.075   6.360  18.003  0.00  0.00    +0.000 A 
ATOM      3  C   UNL     1       4.574   5.625  16.918  0.00  0.00    +0.000 A 
ATOM      4  C   UNL     1       3.989   4.390  16.622  0.00  0.00    +0.000 A 
ATOM      5  C   UNL     1       2.962   3.878  17.417  0.00  0.00    +0.000 A 
ATOM      6  C   UNL     1       2.505   4.588  18.529  0.00  0.00    +0.000 A 
ENDROOT
BRANCH   1   8
ATOM      7  C   UNL     1       2.067   7.937  19.384  0.00  0.00    +0.000 C 
ATOM      8  O   UNL     1       2.623   6.692  19.806  0.00  0.00    +0.000 OA
ENDBRANCH   1   8
BRANCH   3   9
ATOM      9  C   UNL     1       5.683   6.164  16.047  0.00  0.00    +0.000 C 
BRANCH   9  10
ATOM     10  C   UNL     1       7.134   5.951  16.517  0.00  0.00    +0.000 C 
ATOM     11  C   UNL     1       7.434   4.554  17.029  0.00  0.00    +0.000 C 
ATOM     12  N   UNL     1       7.648   4.446  18.460  0.00  0.00    +0.000 NA
ATOM     13  C   UNL     1       7.923   5.481  19.161  0.00  0.00    +0.000 C 
ATOM     14  N   UNL     1       8.192   5.311  20.476  0.00  0.00    +0.000 N 
ATOM     15  N   UNL     1       7.961   6.754  18.698  0.00  0.00    +0.000 NA
ATOM     16  C   UNL     1       7.610   7.006  17.481  0.00  0.00    +0.000 C 
ATOM     17  N   UNL     1       7.690   8.304  17.050  0.00  0.00    +0.000 N 
ATOM     18  H   UNL     1       7.829   4.435  20.823  0.00  0.00    +0.000 HD
ATOM     19  H   UNL     1       7.956   6.122  21.029  0.00  0.00    +0.000 HD
ATOM     20  H   UNL     1       7.778   8.977  17.805  0.00  0.00    +0.000 HD
ATOM     21  H   UNL     1       7.116   8.605  16.275  0.00  0.00    +0.000 HD
ENDBRANCH   9  10
ENDBRANCH   3   9
BRANCH   6  22
ATOM     22  O   UNL     1       1.571   4.076  19.394  0.00  0.00    +0.000 OA
BRANCH  22  23
ATOM     23  S   UNL     1       1.812   2.663  20.172  0.00  0.00    +0.000 S 
ATOM     24  C   UNL     1       3.567   2.824  20.372  0.00  0.00    +0.000 C 
ATOM     25  O   UNL     1       1.197   2.740  21.482  0.00  0.00    +0.000 OA
ATOM     26  O   UNL     1       1.575   1.547  19.281  0.00  0.00    +0.000 OA
ENDBRANCH  22  23
ENDBRANCH   6  22
TORSDOF 5
ENDMDL
MODEL 2
REMARK VINA RESULT:      -7.6      4.011      5.825
REMARK  Name = 
REMARK  7 active torsions:
REMARK  status: ('A' for Active; 'I' for Inactive)
REMARK    1  A    between atoms: C_1  and  O_2
REMARK    2  A    between atoms: O_2  and  C_3
REMARK    3  A    between atoms: C_5  and  C_6
REMARK    4  A    between atoms: C_6  and  C_7
REMARK    5  A    between atoms: C_17  and  O_18
REMARK    6  A    between atoms: O_18  and  S_19
REMARK    7  A    between atoms: S_19  and  C_20
REMARK                            x       y       z     vdW  Elec       q    Type
REMARK                         _______ _______ _______ _____ _____    ______ ____
ROOT
ATOM      1  C   UNL     1       3.753   6.285  17.993  0.00  0.00    +0.000 A 
ATOM      2  C   UNL     1       2.864   5.223  17.771  0.00  0.00    +0.000 A 
ATOM      3  C   UNL     1       3.303   4.027  17.183  0.00  0.00    +0.000 A 
ATOM      4  C   UNL     1       4.651   3.911  16.833  0.00  0.00    +0.000 A 
ATOM      5  C   UNL     1       5.533   4.977  17.021  0.00  0.00    +0.000 A 
ATOM      6  C   UNL     1       5.080   6.184  17.556  0.00  0.00    +0.000 A 
ENDROOT
BRANCH   1   8
ATOM      7  C   UNL     1       2.313   7.104  19.671  0.00  0.00    +0.000 C 
ATOM      8  O   UNL     1       3.194   7.391  18.586  0.00  0.00    +0.000 OA
ENDBRANCH   1   8
BRANCH   3   9
ATOM      9  C   UNL     1       2.364   2.864  16.975  0.00  0.00    +0.000 C 
BRANCH   9  10
ATOM     10  C   UNL     1       1.954   2.041  18.211  0.00  0.00    +0.000 C 
ATOM     11  C   UNL     1       0.748   2.580  18.958  0.00  0.00    +0.000 C 
ATOM     12  N   UNL     1       1.029   3.166  20.255  0.00  0.00    +0.000 NA
ATOM     13  C   UNL     1       2.127   2.916  20.864  0.00  0.00    +0.000 C 
ATOM     14  N   UNL     1       2.302   3.423  22.106  0.00  0.00    +0.000 N 
ATOM     15  N   UNL     1       3.150   2.182  20.364  0.00  0.00    +0.000 NA
ATOM     16  C   UNL     1       3.101   1.756  19.145  0.00  0.00    +0.000 C 
ATOM     17  N   UNL     1       4.147   0.996  18.692  0.00  0.00    +0.000 N 
ATOM     18  H   UNL     1       1.688   4.207  22.280  0.00  0.00    +0.000 HD
ATOM     19  H   UNL     1       3.273   3.582  22.327  0.00  0.00    +0.000 HD
ATOM     20  H   UNL     1       4.973   1.053  19.278  0.00  0.00    +0.000 HD
ATOM     21  H   UNL     1       4.330   0.947  17.699  0.00  0.00    +0.000 HD
ENDBRANCH   9  10
ENDBRANCH   3   9
BRANCH   6  22
ATOM     22  O   UNL     1       5.888   7.289  17.662  0.00  0.00    +0.000 OA
BRANCH  22  23
ATOM     23  S   UNL     1       7.514   7.167  17.612  0.00  0.00    +0.000 S 
ATOM     24  C   UNL     1       7.864   8.899  17.760  0.00  0.00    +0.000 C 
ATOM     25  O   UNL     1       7.969   6.507  18.819  0.00  0.00    +0.000 OA
ATOM     26  O   UNL     1       7.950   6.744  16.299  0.00  0.00    +0.000 OA
ENDBRANCH  22  23
ENDBRANCH   6  22
TORSDOF 5
ENDMDL
MODEL 3
REMARK VINA RESULT:      -7.5      1.037      2.264
REMARK  Name = 
REMARK  7 active torsions:
REMARK  status: ('A' for Active; 'I' for Inactive)
REMARK    1  A    between atoms: C_1  and  O_2
REMARK    2  A    between atoms: O_2  and  C_3
REMARK    3  A    between atoms: C_5  and  C_6
REMARK    4  A    between atoms: C_6  and  C_7
REMARK    5  A    between atoms: C_17  and  O_18
REMARK    6  A    between atoms: O_18  and  S_19
REMARK    7  A    between atoms: S_19  and  C_20
REMARK                            x       y       z     vdW  Elec       q    Type
REMARK                         _______ _______ _______ _____ _____    ______ ____
ROOT
ATOM      1  C   UNL     1       3.217   3.598  17.773  0.00  0.00    +0.000 A 
ATOM      2  C   UNL     1       4.125   4.172  16.871  0.00  0.00    +0.000 A 
ATOM      3  C   UNL     1       4.574   5.490  17.041  0.00  0.00    +0.000 A 
ATOM      4  C   UNL     1       4.105   6.219  18.138  0.00  0.00    +0.000 A 
ATOM      5  C   UNL     1       3.175   5.664  19.020  0.00  0.00    +0.000 A 
ATOM      6  C   UNL     1       2.690   4.371  18.816  0.00  0.00    +0.000 A 
ENDROOT
BRANCH   1   8
ATOM      7  C   UNL     1       3.876   1.335  17.808  0.00  0.00    +0.000 C 
ATOM      8  O   UNL     1       2.871   2.298  17.495  0.00  0.00    +0.000 OA
ENDBRANCH   1   8
BRANCH   3   9
ATOM      9  C   UNL     1       5.580   6.105  16.099  0.00  0.00    +0.000 C 
BRANCH   9  10
ATOM     10  C   UNL     1       7.069   6.026  16.486  0.00  0.00    +0.000 C 
ATOM     11  C   UNL     1       7.543   4.644  16.895  0.00  0.00    +0.000 C 
ATOM     12  N   UNL     1       7.843   4.479  18.304  0.00  0.00    +0.000 NA
ATOM     13  C   UNL     1       8.044   5.496  19.056  0.00  0.00    +0.000 C 
ATOM     14  N   UNL     1       8.399   5.282  20.343  0.00  0.00    +0.000 N 
ATOM     15  N   UNL     1       7.920   6.789  18.672  0.00  0.00    +0.000 NA
ATOM     16  C   UNL     1       7.480   7.071  17.491  0.00  0.00    +0.000 C 
ATOM     17  N   UNL     1       7.398   8.392  17.138  0.00  0.00    +0.000 N 
ATOM     18  H   UNL     1       8.151   4.353  20.652  0.00  0.00    +0.000 HD
ATOM     19  H   UNL     1       8.108   6.029  20.956  0.00  0.00    +0.000 HD
ATOM     20  H   UNL     1       7.454   9.026  17.928  0.00  0.00    +0.000 HD
ATOM     21  H   UNL     1       6.755   8.672  16.411  0.00  0.00    +0.000 HD
ENDBRANCH   9  10
ENDBRANCH   3   9
BRANCH   6  22
ATOM     22  O   UNL     1       1.702   3.826  19.596  0.00  0.00    +0.000 OA
BRANCH  22  23
ATOM     23  S   UNL     1       1.954   3.469  21.168  0.00  0.00    +0.000 S 
ATOM     24  C   UNL     1       3.442   2.531  20.940  0.00  0.00    +0.000 C 
ATOM     25  O   UNL     1       2.290   4.688  21.876  0.00  0.00    +0.000 OA
ATOM     26  O   UNL     1       0.935   2.561  21.651  0.00  0.00    +0.000 OA
ENDBRANCH  22  23
ENDBRANCH   6  22
TORSDOF 5
ENDMDL
MODEL 4
REMARK VINA RESULT:      -7.4      3.887      5.809
REMARK  Name = 
REMARK  7 active torsions:
REMARK  status: ('A' for Active; 'I' for Inactive)
REMARK    1  A    between atoms: C_1  and  O_2
REMARK    2  A    between atoms: O_2  and  C_3
REMARK    3  A    between atoms: C_5  and  C_6
REMARK    4  A    between atoms: C_6  and  C_7
REMARK    5  A    between atoms: C_17  and  O_18
REMARK    6  A    between atoms: O_18  and  S_19
REMARK    7  A    between atoms: S_19  and  C_20
REMARK                            x       y       z     vdW  Elec       q    Type
REMARK                         _______ _______ _______ _____ _____    ______ ____
ROOT
ATOM      1  C   UNL     1       3.733   6.294  17.994  0.00  0.00    +0.000 A 
ATOM      2  C   UNL     1       2.846   5.219  17.835  0.00  0.00    +0.000 A 
ATOM      3  C   UNL     1       3.232   4.063  17.141  0.00  0.00    +0.000 A 
ATOM      4  C   UNL     1       4.527   3.998  16.620  0.00  0.00    +0.000 A 
ATOM      5  C   UNL     1       5.403   5.078  16.745  0.00  0.00    +0.000 A 
ATOM      6  C   UNL     1       4.996   6.248  17.390  0.00  0.00    +0.000 A 
ENDROOT
BRANCH   1   8
ATOM      7  C   UNL     1       2.358   8.208  17.963  0.00  0.00    +0.000 C 
ATOM      8  O   UNL     1       3.231   7.357  18.703  0.00  0.00    +0.000 OA
ENDBRANCH   1   8
BRANCH   3   9
ATOM      9  C   UNL     1       2.299   2.885  16.997  0.00  0.00    +0.000 C 
BRANCH   9  10
ATOM     10  C   UNL     1       1.986   2.057  18.258  0.00  0.00    +0.000 C 
ATOM     11  C   UNL     1       0.756   2.510  19.023  0.00  0.00    +0.000 C 
ATOM     12  N   UNL     1       1.016   3.145  20.301  0.00  0.00    +0.000 NA
ATOM     13  C   UNL     1       2.144   3.000  20.889  0.00  0.00    +0.000 C 
ATOM     14  N   UNL     1       2.303   3.547  22.116  0.00  0.00    +0.000 N 
ATOM     15  N   UNL     1       3.214   2.344  20.378  0.00  0.00    +0.000 NA
ATOM     16  C   UNL     1       3.173   1.890  19.170  0.00  0.00    +0.000 C 
ATOM     17  N   UNL     1       4.269   1.210  18.707  0.00  0.00    +0.000 N 
ATOM     18  H   UNL     1       1.630   4.280  22.290  0.00  0.00    +0.000 HD
ATOM     19  H   UNL     1       3.263   3.791  22.311  0.00  0.00    +0.000 HD
ATOM     20  H   UNL     1       5.100   1.348  19.272  0.00  0.00    +0.000 HD
ATOM     21  H   UNL     1       4.434   1.155  17.711  0.00  0.00    +0.000 HD
ENDBRANCH   9  10
ENDBRANCH   3   9
BRANCH   6  22
ATOM     22  O   UNL     1       5.787   7.368  17.445  0.00  0.00    +0.000 OA
BRANCH  22  23
ATOM     23  S   UNL     1       7.415   7.265  17.441  0.00  0.00    +0.000 S 
ATOM     24  C   UNL     1       7.563   6.138  18.803  0.00  0.00    +0.000 C 
ATOM     25  O   UNL     1       7.837   6.579  16.236  0.00  0.00    +0.000 OA
ATOM     26  O   UNL     1       8.004   8.523  17.850  0.00  0.00    +0.000 OA
ENDBRANCH  22  23
ENDBRANCH   6  22
TORSDOF 5
ENDMDL
MODEL 5
REMARK VINA RESULT:      -7.3      4.490      6.423
REMARK  Name = 
REMARK  7 active torsions:
REMARK  status: ('A' for Active; 'I' for Inactive)
REMARK    1  A    between atoms: C_1  and  O_2
REMARK    2  A    between atoms: O_2  and  C_3
REMARK    3  A    between atoms: C_5  and  C_6
REMARK    4  A    between atoms: C_6  and  C_7
REMARK    5  A    between atoms: C_17  and  O_18
REMARK    6  A    between atoms: O_18  and  S_19
REMARK    7  A    between atoms: S_19  and  C_20
REMARK                            x       y       z     vdW  Elec       q    Type
REMARK                         _______ _______ _______ _____ _____    ______ ____
ROOT
ATOM      1  C   UNL     1       1.184   9.152  20.274  0.00  0.00    +0.000 A 
ATOM      2  C   UNL     1       1.703   7.854  20.389  0.00  0.00    +0.000 A 
ATOM      3  C   UNL     1       2.266   7.202  19.283  0.00  0.00    +0.000 A 
ATOM      4  C   UNL     1       2.311   7.879  18.060  0.00  0.00    +0.000 A 
ATOM      5  C   UNL     1       1.766   9.158  17.931  0.00  0.00    +0.000 A 
ATOM      6  C   UNL     1       1.158   9.782  19.022  0.00  0.00    +0.000 A 
ENDROOT
BRANCH   1   8
ATOM      7  C   UNL     1      -0.320   8.870  22.067  0.00  0.00    +0.000 C 
ATOM      8  O   UNL     1       0.675   9.676  21.437  0.00  0.00    +0.000 OA
ENDBRANCH   1   8
BRANCH   3   9
ATOM      9  C   UNL     1       2.861   5.820  19.404  0.00  0.00    +0.000 C 
BRANCH   9  10
ATOM     10  C   UNL     1       2.525   4.793  18.306  0.00  0.00    +0.000 C 
ATOM     11  C   UNL     1       1.632   3.653  18.759  0.00  0.00    +0.000 C 
ATOM     12  N   UNL     1       2.277   2.357  18.858  0.00  0.00    +0.000 NA
ATOM     13  C   UNL     1       3.389   2.131  18.266  0.00  0.00    +0.000 C 
ATOM     14  N   UNL     1       3.904   0.881  18.325  0.00  0.00    +0.000 N 
ATOM     15  N   UNL     1       4.112   3.049  17.581  0.00  0.00    +0.000 NA
ATOM     16  C   UNL     1       3.739   4.286  17.573  0.00  0.00    +0.000 C 
ATOM     17  N   UNL     1       4.487   5.173  16.844  0.00  0.00    +0.000 N 
ATOM     18  H   UNL     1       3.521   0.354  19.097  0.00  0.00    +0.000 HD
ATOM     19  H   UNL     1       4.911   0.873  18.257  0.00  0.00    +0.000 HD
ATOM     20  H   UNL     1       5.402   4.817  16.588  0.00  0.00    +0.000 HD
ATOM     21  H   UNL     1       4.463   6.155  17.083  0.00  0.00    +0.000 HD
ENDBRANCH   9  10
ENDBRANCH   3   9
BRANCH   6  22
ATOM     22  O   UNL     1       0.520  10.992  18.914  0.00  0.00    +0.000 OA
BRANCH  22  23
ATOM     23  S   UNL     1       1.333  12.401  19.043  0.00  0.00    +0.000 S 
ATOM     24  C   UNL     1       0.026  13.456  18.473  0.00  0.00    +0.000 C 
ATOM     25  O   UNL     1       1.562  12.681  20.446  0.00  0.00    +0.000 OA
ATOM     26  O   UNL     1       2.400  12.461  18.067  0.00  0.00    +0.000 OA
ENDBRANCH  22  23
ENDBRANCH   6  22
TORSDOF 5
ENDMDL
MODEL 6
REMARK VINA RESULT:      -7.2      2.631      4.223
REMARK  Name = 
REMARK  7 active torsions:
REMARK  status: ('A' for Active; 'I' for Inactive)
REMARK    1  A    between atoms: C_1  and  O_2
REMARK    2  A    between atoms: O_2  and  C_3
REMARK    3  A    between atoms: C_5  and  C_6
REMARK    4  A    between atoms: C_6  and  C_7
REMARK    5  A    between atoms: C_17  and  O_18
REMARK    6  A    between atoms: O_18  and  S_19
REMARK    7  A    between atoms: S_19  and  C_20
REMARK                            x       y       z     vdW  Elec       q    Type
REMARK                         _______ _______ _______ _____ _____    ______ ____
ROOT
ATOM      1  C   UNL     1       2.340   6.431  19.494  0.00  0.00    +0.000 A 
ATOM      2  C   UNL     1       3.007   5.433  18.767  0.00  0.00    +0.000 A 
ATOM      3  C   UNL     1       3.714   5.745  17.597  0.00  0.00    +0.000 A 
ATOM      4  C   UNL     1       3.752   7.077  17.175  0.00  0.00    +0.000 A 
ATOM      5  C   UNL     1       3.063   8.069  17.875  0.00  0.00    +0.000 A 
ATOM      6  C   UNL     1       2.315   7.745  19.009  0.00  0.00    +0.000 A 
ENDROOT
BRANCH   1   8
ATOM      7  C   UNL     1       2.041   4.664  21.026  0.00  0.00    +0.000 C 
ATOM      8  O   UNL     1       1.698   5.990  20.625  0.00  0.00    +0.000 OA
ENDBRANCH   1   8
BRANCH   3   9
ATOM      9  C   UNL     1       4.467   4.686  16.829  0.00  0.00    +0.000 C 
BRANCH   9  10
ATOM     10  C   UNL     1       5.985   4.570  17.063  0.00  0.00    +0.000 C 
ATOM     11  C   UNL     1       6.403   4.583  18.522  0.00  0.00    +0.000 C 
ATOM     12  N   UNL     1       7.088   5.783  18.964  0.00  0.00    +0.000 NA
ATOM     13  C   UNL     1       7.614   6.587  18.118  0.00  0.00    +0.000 C 
ATOM     14  N   UNL     1       8.311   7.647  18.589  0.00  0.00    +0.000 N 
ATOM     15  N   UNL     1       7.527   6.473  16.771  0.00  0.00    +0.000 NA
ATOM     16  C   UNL     1       6.790   5.550  16.250  0.00  0.00    +0.000 C 
ATOM     17  N   UNL     1       6.754   5.458  14.883  0.00  0.00    +0.000 N 
ATOM     18  H   UNL     1       8.064   7.864  19.544  0.00  0.00    +0.000 HD
ATOM     19  H   UNL     1       8.300   8.431  17.954  0.00  0.00    +0.000 HD
ATOM     20  H   UNL     1       7.113   6.282  14.412  0.00  0.00    +0.000 HD
ATOM     21  H   UNL     1       5.959   5.023  14.436  0.00  0.00    +0.000 HD
ENDBRANCH   9  10
ENDBRANCH   3   9
BRANCH   6  22
ATOM     22  O   UNL     1       1.541   8.668  19.666  0.00  0.00    +0.000 OA
BRANCH  22  23
ATOM     23  S   UNL     1       0.815   9.894  18.872  0.00  0.00    +0.000 S 
ATOM     24  C   UNL     1      -0.409  10.254  20.104  0.00  0.00    +0.000 C 
ATOM     25  O   UNL     1       1.733  11.014  18.803  0.00  0.00    +0.000 OA
ATOM     26  O   UNL     1       0.123   9.400  17.701  0.00  0.00    +0.000 OA
ENDBRANCH  22  23
ENDBRANCH   6  22
TORSDOF 5
ENDMDL
MODEL 7
REMARK VINA RESULT:      -7.2      4.284      6.267
REMARK  Name = 
REMARK  7 active torsions:
REMARK  status: ('A' for Active; 'I' for Inactive)
REMARK    1  A    between atoms: C_1  and  O_2
REMARK    2  A    between atoms: O_2  and  C_3
REMARK    3  A    between atoms: C_5  and  C_6
REMARK    4  A    between atoms: C_6  and  C_7
REMARK    5  A    between atoms: C_17  and  O_18
REMARK    6  A    between atoms: O_18  and  S_19
REMARK    7  A    between atoms: S_19  and  C_20
REMARK                            x       y       z     vdW  Elec       q    Type
REMARK                         _______ _______ _______ _____ _____    ______ ____
ROOT
ATOM      1  C   UNL     1       1.256   9.146  20.427  0.00  0.00    +0.000 A 
ATOM      2  C   UNL     1       1.773   7.867  20.171  0.00  0.00    +0.000 A 
ATOM      3  C   UNL     1       2.185   7.501  18.882  0.00  0.00    +0.000 A 
ATOM      4  C   UNL     1       2.081   8.444  17.855  0.00  0.00    +0.000 A 
ATOM      5  C   UNL     1       1.537   9.707  18.096  0.00  0.00    +0.000 A 
ATOM      6  C   UNL     1       1.077  10.048  19.370  0.00  0.00    +0.000 A 
ENDROOT
BRANCH   1   8
ATOM      7  C   UNL     1      -0.388   8.889  22.097  0.00  0.00    +0.000 C 
ATOM      8  O   UNL     1       0.903   9.376  21.734  0.00  0.00    +0.000 OA
ENDBRANCH   1   8
BRANCH   3   9
ATOM      9  C   UNL     1       2.778   6.141  18.603  0.00  0.00    +0.000 C 
BRANCH   9  10
ATOM     10  C   UNL     1       3.554   5.449  19.740  0.00  0.00    +0.000 C 
ATOM     11  C   UNL     1       4.993   5.101  19.402  0.00  0.00    +0.000 C 
ATOM     12  N   UNL     1       5.270   3.687  19.236  0.00  0.00    +0.000 NA
ATOM     13  C   UNL     1       4.466   2.803  19.694  0.00  0.00    +0.000 C 
ATOM     14  N   UNL     1       4.814   1.500  19.582  0.00  0.00    +0.000 N 
ATOM     15  N   UNL     1       3.273   3.059  20.283  0.00  0.00    +0.000 NA
ATOM     16  C   UNL     1       2.825   4.269  20.328  0.00  0.00    +0.000 C 
ATOM     17  N   UNL     1       1.627   4.483  20.958  0.00  0.00    +0.000 N 
ATOM     18  H   UNL     1       5.510   1.358  18.864  0.00  0.00    +0.000 HD
ATOM     19  H   UNL     1       4.014   0.887  19.531  0.00  0.00    +0.000 HD
ATOM     20  H   UNL     1       1.090   3.635  21.106  0.00  0.00    +0.000 HD
ATOM     21  H   UNL     1       1.079   5.298  20.718  0.00  0.00    +0.000 HD
ENDBRANCH   9  10
ENDBRANCH   3   9
BRANCH   6  22
ATOM     22  O   UNL     1       0.443  11.237  19.627  0.00  0.00    +0.000 OA
BRANCH  22  23
ATOM     23  S   UNL     1      -1.156  11.427  19.363  0.00  0.00    +0.000 S 
ATOM     24  C   UNL     1      -1.022  12.698  18.133  0.00  0.00    +0.000 C 
ATOM     25  O   UNL     1      -1.669  10.231  18.725  0.00  0.00    +0.000 OA
ATOM     26  O   UNL     1      -1.796  12.009  20.523  0.00  0.00    +0.000 OA
ENDBRANCH  22  23
ENDBRANCH   6  22
TORSDOF 5
ENDMDL
MODEL 8
REMARK VINA RESULT:      -7.2      4.254      6.244
REMARK  Name = 
REMARK  7 active torsions:
REMARK  status: ('A' for Active; 'I' for Inactive)
REMARK    1  A    between atoms: C_1  and  O_2
REMARK    2  A    between atoms: O_2  and  C_3
REMARK    3  A    between atoms: C_5  and  C_6
REMARK    4  A    between atoms: C_6  and  C_7
REMARK    5  A    between atoms: C_17  and  O_18
REMARK    6  A    between atoms: O_18  and  S_19
REMARK    7  A    between atoms: S_19  and  C_20
REMARK                            x       y       z     vdW  Elec       q    Type
REMARK                         _______ _______ _______ _____ _____    ______ ____
ROOT
ATOM      1  C   UNL     1       1.054   9.167  20.112  0.00  0.00    +0.000 A 
ATOM      2  C   UNL     1       1.602   7.893  19.896  0.00  0.00    +0.000 A 
ATOM      3  C   UNL     1       2.259   7.585  18.696  0.00  0.00    +0.000 A 
ATOM      4  C   UNL     1       2.368   8.581  17.720  0.00  0.00    +0.000 A 
ATOM      5  C   UNL     1       1.796   9.839  17.916  0.00  0.00    +0.000 A 
ATOM      6  C   UNL     1       1.095  10.124  19.090  0.00  0.00    +0.000 A 
ENDROOT
BRANCH   1   8
ATOM      7  C   UNL     1       1.346   9.356  22.444  0.00  0.00    +0.000 C 
ATOM      8  O   UNL     1       0.450   9.335  21.334  0.00  0.00    +0.000 OA
ENDBRANCH   1   8
BRANCH   3   9
ATOM      9  C   UNL     1       2.885   6.231  18.468  0.00  0.00    +0.000 C 
BRANCH   9  10
ATOM     10  C   UNL     1       3.594   5.557  19.658  0.00  0.00    +0.000 C 
ATOM     11  C   UNL     1       5.048   5.201  19.408  0.00  0.00    +0.000 C 
ATOM     12  N   UNL     1       5.330   3.783  19.283  0.00  0.00    +0.000 NA
ATOM     13  C   UNL     1       4.499   2.909  19.711  0.00  0.00    +0.000 C 
ATOM     14  N   UNL     1       4.848   1.604  19.641  0.00  0.00    +0.000 N 
ATOM     15  N   UNL     1       3.275   3.178  20.227  0.00  0.00    +0.000 NA
ATOM     16  C   UNL     1       2.829   4.390  20.225  0.00  0.00    +0.000 C 
ATOM     17  N   UNL     1       1.598   4.617  20.782  0.00  0.00    +0.000 N 
ATOM     18  H   UNL     1       5.583   1.448  18.966  0.00  0.00    +0.000 HD
ATOM     19  H   UNL     1       4.051   0.992  19.556  0.00  0.00    +0.000 HD
ATOM     20  H   UNL     1       1.051   3.773  20.915  0.00  0.00    +0.000 HD
ATOM     21  H   UNL     1       1.067   5.429  20.498  0.00  0.00    +0.000 HD
ENDBRANCH   9  10
ENDBRANCH   3   9
BRANCH   6  22
ATOM     22  O   UNL     1       0.431  11.309  19.279  0.00  0.00    +0.000 OA
BRANCH  22  23
ATOM     23  S   UNL     1      -1.093  11.530  18.742  0.00  0.00    +0.000 S 
ATOM     24  C   UNL     1      -1.775  12.125  20.268  0.00  0.00    +0.000 C 
ATOM     25  O   UNL     1      -1.099  12.620  17.787  0.00  0.00    +0.000 OA
ATOM     26  O   UNL     1      -1.718  10.257  18.453  0.00  0.00    +0.000 OA
ENDBRANCH  22  23
ENDBRANCH   6  22
TORSDOF 5
ENDMDL
MODEL 9
REMARK VINA RESULT:      -7.2      4.433      6.261
REMARK  Name = 
REMARK  7 active torsions:
REMARK  status: ('A' for Active; 'I' for Inactive)
REMARK    1  A    between atoms: C_1  and  O_2
REMARK    2  A    between atoms: O_2  and  C_3
REMARK    3  A    between atoms: C_5  and  C_6
REMARK    4  A    between atoms: C_6  and  C_7
REMARK    5  A    between atoms: C_17  and  O_18
REMARK    6  A    between atoms: O_18  and  S_19
REMARK    7  A    between atoms: S_19  and  C_20
REMARK                            x       y       z     vdW  Elec       q    Type
REMARK                         _______ _______ _______ _____ _____    ______ ____
ROOT
ATOM      1  C   UNL     1       1.088   9.374  20.220  0.00  0.00    +0.000 A 
ATOM      2  C   UNL     1       1.654   8.092  20.288  0.00  0.00    +0.000 A 
ATOM      3  C   UNL     1       2.213   7.490  19.151  0.00  0.00    +0.000 A 
ATOM      4  C   UNL     1       2.205   8.201  17.947  0.00  0.00    +0.000 A 
ATOM      5  C   UNL     1       1.613   9.463  17.866  0.00  0.00    +0.000 A 
ATOM      6  C   UNL     1       1.010  10.035  18.988  0.00  0.00    +0.000 A 
ENDROOT
BRANCH   1   8
ATOM      7  C   UNL     1       1.100   9.197  22.571  0.00  0.00    +0.000 C 
ATOM      8  O   UNL     1       0.589   9.848  21.409  0.00  0.00    +0.000 OA
ENDBRANCH   1   8
BRANCH   3   9
ATOM      9  C   UNL     1       2.858   6.127  19.220  0.00  0.00    +0.000 C 
BRANCH   9  10
ATOM     10  C   UNL     1       2.540   5.123  18.096  0.00  0.00    +0.000 C 
ATOM     11  C   UNL     1       1.573   4.021  18.488  0.00  0.00    +0.000 C 
ATOM     12  N   UNL     1       2.153   2.697  18.613  0.00  0.00    +0.000 NA
ATOM     13  C   UNL     1       3.286   2.425  18.082  0.00  0.00    +0.000 C 
ATOM     14  N   UNL     1       3.741   1.153  18.160  0.00  0.00    +0.000 N 
ATOM     15  N   UNL     1       4.087   3.314  17.447  0.00  0.00    +0.000 NA
ATOM     16  C   UNL     1       3.770   4.566  17.429  0.00  0.00    +0.000 C 
ATOM     17  N   UNL     1       4.597   5.423  16.751  0.00  0.00    +0.000 N 
ATOM     18  H   UNL     1       3.292   0.639  18.904  0.00  0.00    +0.000 HD
ATOM     19  H   UNL     1       4.749   1.100  18.149  0.00  0.00    +0.000 HD
ATOM     20  H   UNL     1       5.509   5.028  16.545  0.00  0.00    +0.000 HD
ATOM     21  H   UNL     1       4.603   6.404  16.997  0.00  0.00    +0.000 HD
ENDBRANCH   9  10
ENDBRANCH   3   9
BRANCH   6  22
ATOM     22  O   UNL     1       0.329  11.225  18.928  0.00  0.00    +0.000 OA
BRANCH  22  23
ATOM     23  S   UNL     1      -1.263  11.281  18.576  0.00  0.00    +0.000 S 
ATOM     24  C   UNL     1      -1.796  12.010  20.103  0.00  0.00    +0.000 C 
ATOM     25  O   UNL     1      -1.473  12.245  17.515  0.00  0.00    +0.000 OA
ATOM     26  O   UNL     1      -1.816   9.945  18.515  0.00  0.00    +0.000 OA
ENDBRANCH  22  23
ENDBRANCH   6  22
TORSDOF 5
ENDMDL
