MODEL 1
REMARK VINA RESULT:      -7.8      0.000      0.000
REMARK  Name = 
REMARK  7 active torsions:
REMARK  status: ('A' for Active; 'I' for Inactive)
REMARK    1  A    between atoms: C_1  and  O_2
REMARK    2  A    between atoms: O_2  and  C_3
REMARK    3  A    between atoms: C_6  and  C_7
REMARK    4  A    between atoms: C_9  and  C_10
REMARK    5  A    between atoms: C_12  and  C_13
REMARK    6  A    between atoms: C_15  and  C_16
REMARK    7  A    between atoms: C_21  and  C_22
REMARK                            x       y       z     vdW  Elec       q    Type
REMARK                         _______ _______ _______ _____ _____    ______ ____
ROOT
ATOM      1  C   UNL     1       2.528   6.781  19.332  0.00  0.00    +0.000 A 
ATOM      2  N   UNL     1       3.571   6.791  18.517  0.00  0.00    +0.000 NA
ATOM      3  C   UNL     1       4.124   5.533  18.550  0.00  0.00    +0.000 A 
ATOM      4  C   UNL     1       3.430   4.725  19.438  0.00  0.00    +0.000 A 
ATOM      5  N   UNL     1       2.353   5.501  19.834  0.00  0.00    +0.000 N 
ATOM      6  C   UNL     1       1.203   5.034  20.592  0.00  0.00    +0.000 C 
ATOM      7  C   UNL     1       0.752   3.602  20.293  0.00  0.00    +0.000 C 
ATOM      8  O   UNL     1       1.564   2.558  20.841  0.00  0.00    +0.000 OA
ATOM      9  C   UNL     1       2.928   2.869  21.118  0.00  0.00    +0.000 C 
ATOM     10  C   UNL     1       3.688   3.317  19.880  0.00  0.00    +0.000 C 
ENDROOT
BRANCH   3  11
ATOM     11  C   UNL     1       5.310   5.175  17.778  0.00  0.00    +0.000 A 
ATOM     12  C   UNL     1       6.522   4.952  18.431  0.00  0.00    +0.000 A 
ATOM     13  C   UNL     1       7.630   4.557  17.687  0.00  0.00    +0.000 A 
ATOM     14  C   UNL     1       8.954   4.301  18.341  0.00  0.00    +0.000 C 
ATOM     15  N   UNL     1       7.583   4.373  16.345  0.00  0.00    +0.000 NA
ATOM     16  C   UNL     1       6.418   4.619  15.713  0.00  0.00    +0.000 A 
ATOM     17  C   UNL     1       6.369   4.388  14.231  0.00  0.00    +0.000 C 
ATOM     18  C   UNL     1       5.278   5.042  16.387  0.00  0.00    +0.000 A 
ENDBRANCH   3  11
BRANCH   1  22
ATOM     19  C   UNL     1       0.014  10.179  20.217  0.00  0.00    +0.000 A 
ATOM     20  C   UNL     1       0.524   9.985  18.928  0.00  0.00    +0.000 A 
ATOM     21  C   UNL     1       1.326   8.882  18.622  0.00  0.00    +0.000 A 
ATOM     22  C   UNL     1       1.682   7.957  19.609  0.00  0.00    +0.000 A 
ATOM     23  C   UNL     1       1.157   8.143  20.896  0.00  0.00    +0.000 A 
ATOM     24  C   UNL     1       0.322   9.233  21.203  0.00  0.00    +0.000 A 
ATOM     25 CL   UNL     1      -0.329   9.251  22.803  0.00  0.00    +0.000 Cl
BRANCH  19  27
ATOM     26  C   UNL     1      -1.852  11.381  19.321  0.00  0.00    +0.000 C 
ATOM     27  O   UNL     1      -0.817  11.264  20.287  0.00  0.00    +0.000 OA
ENDBRANCH  19  27
ENDBRANCH   1  22
BRANCH   7  28
ATOM     28  C   UNL     1       0.461   3.379  18.807  0.00  0.00    +0.000 C 
ATOM     29  F   UNL     1       0.398   2.041  18.569  0.00  0.00    +0.000 F 
ENDBRANCH   7  28
TORSDOF 4
ENDMDL
MODEL 2
REMARK VINA RESULT:      -7.7      0.132      1.552
REMARK  Name = 
REMARK  7 active torsions:
REMARK  status: ('A' for Active; 'I' for Inactive)
REMARK    1  A    between atoms: C_1  and  O_2
REMARK    2  A    between atoms: O_2  and  C_3
REMARK    3  A    between atoms: C_6  and  C_7
REMARK    4  A    between atoms: C_9  and  C_10
REMARK    5  A    between atoms: C_12  and  C_13
REMARK    6  A    between atoms: C_15  and  C_16
REMARK    7  A    between atoms: C_21  and  C_22
REMARK                            x       y       z     vdW  Elec       q    Type
REMARK                         _______ _______ _______ _____ _____    ______ ____
ROOT
ATOM      1  C   UNL     1       2.551   6.695  19.398  0.00  0.00    +0.000 A 
ATOM      2  N   UNL     1       3.599   6.693  18.590  0.00  0.00    +0.000 NA
ATOM      3  C   UNL     1       4.138   5.431  18.626  0.00  0.00    +0.000 A 
ATOM      4  C   UNL     1       3.431   4.630  19.512  0.00  0.00    +0.000 A 
ATOM      5  N   UNL     1       2.361   5.418  19.901  0.00  0.00    +0.000 N 
ATOM      6  C   UNL     1       1.202   4.963  20.653  0.00  0.00    +0.000 C 
ATOM      7  C   UNL     1       0.737   3.535  20.353  0.00  0.00    +0.000 C 
ATOM      8  O   UNL     1       1.536   2.483  20.906  0.00  0.00    +0.000 OA
ATOM      9  C   UNL     1       2.902   2.782  21.191  0.00  0.00    +0.000 C 
ATOM     10  C   UNL     1       3.673   3.220  19.957  0.00  0.00    +0.000 C 
ENDROOT
BRANCH   3  11
ATOM     11  C   UNL     1       5.325   5.060  17.862  0.00  0.00    +0.000 A 
ATOM     12  C   UNL     1       5.254   4.964  16.473  0.00  0.00    +0.000 A 
ATOM     13  C   UNL     1       6.409   4.664  15.754  0.00  0.00    +0.000 A 
ATOM     14  C   UNL     1       6.387   4.553  14.260  0.00  0.00    +0.000 C 
ATOM     15  N   UNL     1       7.610   4.464  16.349  0.00  0.00    +0.000 NA
ATOM     16  C   UNL     1       7.668   4.527  17.695  0.00  0.00    +0.000 A 
ATOM     17  C   UNL     1       9.007   4.329  18.343  0.00  0.00    +0.000 C 
ATOM     18  C   UNL     1       6.552   4.795  18.478  0.00  0.00    +0.000 A 
ENDBRANCH   3  11
BRANCH   1  22
ATOM     19  C   UNL     1       0.069  10.121  20.267  0.00  0.00    +0.000 A 
ATOM     20  C   UNL     1       0.548   9.897  18.971  0.00  0.00    +0.000 A 
ATOM     21  C   UNL     1       1.339   8.784  18.670  0.00  0.00    +0.000 A 
ATOM     22  C   UNL     1       1.715   7.880  19.670  0.00  0.00    +0.000 A 
ATOM     23  C   UNL     1       1.220   8.095  20.964  0.00  0.00    +0.000 A 
ATOM     24  C   UNL     1       0.396   9.195  21.266  0.00  0.00    +0.000 A 
ATOM     25 CL   UNL     1      -0.218   9.249  22.880  0.00  0.00    +0.000 Cl
BRANCH  19  27
ATOM     26  C   UNL     1      -1.579  11.499  19.210  0.00  0.00    +0.000 C 
ATOM     27  O   UNL     1      -0.758  11.209  20.333  0.00  0.00    +0.000 OA
ENDBRANCH  19  27
ENDBRANCH   1  22
BRANCH   7  28
ATOM     28  C   UNL     1       0.453   3.313  18.866  0.00  0.00    +0.000 C 
ATOM     29  F   UNL     1       0.651   1.999  18.572  0.00  0.00    +0.000 F 
ENDBRANCH   7  28
TORSDOF 4
ENDMDL
MODEL 3
REMARK VINA RESULT:      -7.6      1.122      1.488
REMARK  Name = 
REMARK  7 active torsions:
REMARK  status: ('A' for Active; 'I' for Inactive)
REMARK    1  A    between atoms: C_1  and  O_2
REMARK    2  A    between atoms: O_2  and  C_3
REMARK    3  A    between atoms: C_6  and  C_7
REMARK    4  A    between atoms: C_9  and  C_10
REMARK    5  A    between atoms: C_12  and  C_13
REMARK    6  A    between atoms: C_15  and  C_16
REMARK    7  A    between atoms: C_21  and  C_22
REMARK                            x       y       z     vdW  Elec       q    Type
REMARK                         _______ _______ _______ _____ _____    ______ ____
ROOT
ATOM      1  C   UNL     1       2.451   6.588  19.668  0.00  0.00    +0.000 A 
ATOM      2  N   UNL     1       3.465   6.686  18.823  0.00  0.00    +0.000 NA
ATOM      3  C   UNL     1       4.042   5.442  18.736  0.00  0.00    +0.000 A 
ATOM      4  C   UNL     1       3.394   4.550  19.578  0.00  0.00    +0.000 A 
ATOM      5  N   UNL     1       2.318   5.269  20.071  0.00  0.00    +0.000 N 
ATOM      6  C   UNL     1       1.203   4.719  20.827  0.00  0.00    +0.000 C 
ATOM      7  C   UNL     1       0.768   3.305  20.428  0.00  0.00    +0.000 C 
ATOM      8  O   UNL     1       1.618   2.238  20.862  0.00  0.00    +0.000 OA
ATOM      9  C   UNL     1       2.985   2.555  21.118  0.00  0.00    +0.000 C 
ATOM     10  C   UNL     1       3.693   3.117  19.896  0.00  0.00    +0.000 C 
ENDROOT
BRANCH   3  11
ATOM     11  C   UNL     1       5.207   5.172  17.899  0.00  0.00    +0.000 A 
ATOM     12  C   UNL     1       6.448   4.939  18.492  0.00  0.00    +0.000 A 
ATOM     13  C   UNL     1       7.537   4.628  17.682  0.00  0.00    +0.000 A 
ATOM     14  C   UNL     1       8.891   4.365  18.270  0.00  0.00    +0.000 C 
ATOM     15  N   UNL     1       7.444   4.535  16.334  0.00  0.00    +0.000 NA
ATOM     16  C   UNL     1       6.251   4.792  15.762  0.00  0.00    +0.000 A 
ATOM     17  C   UNL     1       6.152   4.663  14.270  0.00  0.00    +0.000 C 
ATOM     18  C   UNL     1       5.127   5.135  16.504  0.00  0.00    +0.000 A 
ENDBRANCH   3  11
BRANCH   1  22
ATOM     19  C   UNL     1      -0.011   9.957  20.781  0.00  0.00    +0.000 A 
ATOM     20  C   UNL     1       0.099   8.845  21.624  0.00  0.00    +0.000 A 
ATOM     21  C   UNL     1       0.905   7.754  21.285  0.00  0.00    +0.000 A 
ATOM     22  C   UNL     1       1.593   7.720  20.068  0.00  0.00    +0.000 A 
ATOM     23  C   UNL     1       1.495   8.842  19.232  0.00  0.00    +0.000 A 
ATOM     24  C   UNL     1       0.713   9.957  19.582  0.00  0.00    +0.000 A 
ATOM     25 CL   UNL     1       0.792  11.298  18.496  0.00  0.00    +0.000 Cl
BRANCH  19  27
ATOM     26  C   UNL     1      -0.858  11.025  22.749  0.00  0.00    +0.000 C 
ATOM     27  O   UNL     1      -0.772  10.952  21.333  0.00  0.00    +0.000 OA
ENDBRANCH  19  27
ENDBRANCH   1  22
BRANCH   7  28
ATOM     28  C   UNL     1       0.430   3.196  18.939  0.00  0.00    +0.000 C 
ATOM     29  F   UNL     1       0.716   1.935  18.515  0.00  0.00    +0.000 F 
ENDBRANCH   7  28
TORSDOF 4
ENDMDL
MODEL 4
REMARK VINA RESULT:      -7.6      1.468      1.821
REMARK  Name = 
REMARK  7 active torsions:
REMARK  status: ('A' for Active; 'I' for Inactive)
REMARK    1  A    between atoms: C_1  and  O_2
REMARK    2  A    between atoms: O_2  and  C_3
REMARK    3  A    between atoms: C_6  and  C_7
REMARK    4  A    between atoms: C_9  and  C_10
REMARK    5  A    between atoms: C_12  and  C_13
REMARK    6  A    between atoms: C_15  and  C_16
REMARK    7  A    between atoms: C_21  and  C_22
REMARK                            x       y       z     vdW  Elec       q    Type
REMARK                         _______ _______ _______ _____ _____    ______ ____
ROOT
ATOM      1  C   UNL     1       2.273   7.007  19.652  0.00  0.00    +0.000 A 
ATOM      2  N   UNL     1       3.209   7.266  18.753  0.00  0.00    +0.000 NA
ATOM      3  C   UNL     1       3.905   6.100  18.544  0.00  0.00    +0.000 A 
ATOM      4  C   UNL     1       3.415   5.093  19.363  0.00  0.00    +0.000 A 
ATOM      5  N   UNL     1       2.307   5.659  19.971  0.00  0.00    +0.000 N 
ATOM      6  C   UNL     1       1.312   4.946  20.757  0.00  0.00    +0.000 C 
ATOM      7  C   UNL     1       1.000   3.521  20.291  0.00  0.00    +0.000 C 
ATOM      8  O   UNL     1       1.985   2.528  20.596  0.00  0.00    +0.000 OA
ATOM      9  C   UNL     1       3.326   2.976  20.787  0.00  0.00    +0.000 C 
ATOM     10  C   UNL     1       3.884   3.685  19.563  0.00  0.00    +0.000 C 
ENDROOT
BRANCH   3  11
ATOM     11  C   UNL     1       5.030   6.010  17.619  0.00  0.00    +0.000 A 
ATOM     12  C   UNL     1       6.110   6.883  17.752  0.00  0.00    +0.000 A 
ATOM     13  C   UNL     1       7.200   6.747  16.897  0.00  0.00    +0.000 A 
ATOM     14  C   UNL     1       8.386   7.657  17.001  0.00  0.00    +0.000 C 
ATOM     15  N   UNL     1       7.262   5.794  15.935  0.00  0.00    +0.000 NA
ATOM     16  C   UNL     1       6.203   4.973  15.789  0.00  0.00    +0.000 A 
ATOM     17  C   UNL     1       6.292   3.905  14.739  0.00  0.00    +0.000 C 
ATOM     18  C   UNL     1       5.070   5.067  16.588  0.00  0.00    +0.000 A 
ENDBRANCH   3  11
BRANCH   1  22
ATOM     19  C   UNL     1      -0.455  10.009  21.135  0.00  0.00    +0.000 A 
ATOM     20  C   UNL     1      -0.002   8.981  21.970  0.00  0.00    +0.000 A 
ATOM     21  C   UNL     1       0.893   8.012  21.510  0.00  0.00    +0.000 A 
ATOM     22  C   UNL     1       1.332   8.012  20.181  0.00  0.00    +0.000 A 
ATOM     23  C   UNL     1       0.891   9.052  19.350  0.00  0.00    +0.000 A 
ATOM     24  C   UNL     1       0.016  10.050  19.817  0.00  0.00    +0.000 A 
ATOM     25 CL   UNL     1      -0.338  11.319  18.698  0.00  0.00    +0.000 Cl
BRANCH  19  27
ATOM     26  C   UNL     1      -1.248  10.881  23.218  0.00  0.00    +0.000 C 
ATOM     27  O   UNL     1      -1.250  10.903  21.798  0.00  0.00    +0.000 OA
ENDBRANCH  19  27
ENDBRANCH   1  22
BRANCH   7  28
ATOM     28  C   UNL     1       0.572   3.466  18.822  0.00  0.00    +0.000 C 
ATOM     29  F   UNL     1       0.319   2.172  18.487  0.00  0.00    +0.000 F 
ENDBRANCH   7  28
TORSDOF 4
ENDMDL
MODEL 5
REMARK VINA RESULT:      -7.5      1.463      2.180
REMARK  Name = 
REMARK  7 active torsions:
REMARK  status: ('A' for Active; 'I' for Inactive)
REMARK    1  A    between atoms: C_1  and  O_2
REMARK    2  A    between atoms: O_2  and  C_3
REMARK    3  A    between atoms: C_6  and  C_7
REMARK    4  A    between atoms: C_9  and  C_10
REMARK    5  A    between atoms: C_12  and  C_13
REMARK    6  A    between atoms: C_15  and  C_16
REMARK    7  A    between atoms: C_21  and  C_22
REMARK                            x       y       z     vdW  Elec       q    Type
REMARK                         _______ _______ _______ _____ _____    ______ ____
ROOT
ATOM      1  C   UNL     1       2.292   6.940  19.684  0.00  0.00    +0.000 A 
ATOM      2  N   UNL     1       3.261   7.200  18.821  0.00  0.00    +0.000 NA
ATOM      3  C   UNL     1       3.952   6.030  18.622  0.00  0.00    +0.000 A 
ATOM      4  C   UNL     1       3.425   5.018  19.411  0.00  0.00    +0.000 A 
ATOM      5  N   UNL     1       2.302   5.588  19.988  0.00  0.00    +0.000 N 
ATOM      6  C   UNL     1       1.274   4.875  20.730  0.00  0.00    +0.000 C 
ATOM      7  C   UNL     1       0.965   3.459  20.236  0.00  0.00    +0.000 C 
ATOM      8  O   UNL     1       1.930   2.453  20.563  0.00  0.00    +0.000 OA
ATOM      9  C   UNL     1       3.267   2.885  20.804  0.00  0.00    +0.000 C 
ATOM     10  C   UNL     1       3.873   3.603  19.609  0.00  0.00    +0.000 C 
ENDROOT
BRANCH   3  11
ATOM     11  C   UNL     1       5.107   5.940  17.734  0.00  0.00    +0.000 A 
ATOM     12  C   UNL     1       5.130   4.985  16.719  0.00  0.00    +0.000 A 
ATOM     13  C   UNL     1       6.215   4.949  15.846  0.00  0.00    +0.000 A 
ATOM     14  C   UNL     1       6.285   3.945  14.736  0.00  0.00    +0.000 C 
ATOM     15  N   UNL     1       7.256   5.811  15.937  0.00  0.00    +0.000 NA
ATOM     16  C   UNL     1       7.245   6.713  16.939  0.00  0.00    +0.000 A 
ATOM     17  C   UNL     1       8.391   7.680  17.016  0.00  0.00    +0.000 C 
ATOM     18  C   UNL     1       6.210   6.790  17.863  0.00  0.00    +0.000 A 
ENDBRANCH   3  11
BRANCH   1  22
ATOM     19  C   UNL     1      -0.456   9.951  21.110  0.00  0.00    +0.000 A 
ATOM     20  C   UNL     1      -0.043   8.908  21.948  0.00  0.00    +0.000 A 
ATOM     21  C   UNL     1       0.858   7.935  21.506  0.00  0.00    +0.000 A 
ATOM     22  C   UNL     1       1.343   7.948  20.193  0.00  0.00    +0.000 A 
ATOM     23  C   UNL     1       0.941   9.003  19.361  0.00  0.00    +0.000 A 
ATOM     24  C   UNL     1       0.061  10.004  19.810  0.00  0.00    +0.000 A 
ATOM     25 CL   UNL     1      -0.241  11.290  18.696  0.00  0.00    +0.000 Cl
BRANCH  19  27
ATOM     26  C   UNL     1      -1.209  10.899  23.175  0.00  0.00    +0.000 C 
ATOM     27  O   UNL     1      -1.265  10.845  21.757  0.00  0.00    +0.000 OA
ENDBRANCH  19  27
ENDBRANCH   1  22
BRANCH   7  28
ATOM     28  C   UNL     1       0.586   3.426  18.754  0.00  0.00    +0.000 C 
ATOM     29  F   UNL     1       1.105   2.300  18.193  0.00  0.00    +0.000 F 
ENDBRANCH   7  28
TORSDOF 4
ENDMDL
MODEL 6
REMARK VINA RESULT:      -7.4      1.137      2.150
REMARK  Name = 
REMARK  7 active torsions:
REMARK  status: ('A' for Active; 'I' for Inactive)
REMARK    1  A    between atoms: C_1  and  O_2
REMARK    2  A    between atoms: O_2  and  C_3
REMARK    3  A    between atoms: C_6  and  C_7
REMARK    4  A    between atoms: C_9  and  C_10
REMARK    5  A    between atoms: C_12  and  C_13
REMARK    6  A    between atoms: C_15  and  C_16
REMARK    7  A    between atoms: C_21  and  C_22
REMARK                            x       y       z     vdW  Elec       q    Type
REMARK                         _______ _______ _______ _____ _____    ______ ____
ROOT
ATOM      1  C   UNL     1       2.476   6.573  19.701  0.00  0.00    +0.000 A 
ATOM      2  N   UNL     1       3.498   6.645  18.863  0.00  0.00    +0.000 NA
ATOM      3  C   UNL     1       4.049   5.388  18.787  0.00  0.00    +0.000 A 
ATOM      4  C   UNL     1       3.377   4.516  19.630  0.00  0.00    +0.000 A 
ATOM      5  N   UNL     1       2.312   5.260  20.110  0.00  0.00    +0.000 N 
ATOM      6  C   UNL     1       1.181   4.737  20.861  0.00  0.00    +0.000 C 
ATOM      7  C   UNL     1       0.720   3.331  20.467  0.00  0.00    +0.000 C 
ATOM      8  O   UNL     1       1.545   2.249  20.914  0.00  0.00    +0.000 OA
ATOM      9  C   UNL     1       2.916   2.540  21.179  0.00  0.00    +0.000 C 
ATOM     10  C   UNL     1       3.644   3.079  19.958  0.00  0.00    +0.000 C 
ENDROOT
BRANCH   3  11
ATOM     11  C   UNL     1       5.215   5.089  17.961  0.00  0.00    +0.000 A 
ATOM     12  C   UNL     1       5.099   5.090  16.571  0.00  0.00    +0.000 A 
ATOM     13  C   UNL     1       6.233   4.858  15.796  0.00  0.00    +0.000 A 
ATOM     14  C   UNL     1       6.163   4.852  14.300  0.00  0.00    +0.000 C 
ATOM     15  N   UNL     1       7.455   4.634  16.337  0.00  0.00    +0.000 NA
ATOM     16  C   UNL     1       7.557   4.603  17.681  0.00  0.00    +0.000 A 
ATOM     17  C   UNL     1       8.919   4.380  18.270  0.00  0.00    +0.000 C 
ATOM     18  C   UNL     1       6.464   4.800  18.517  0.00  0.00    +0.000 A 
ENDBRANCH   3  11
BRANCH   1  22
ATOM     19  C   UNL     1       0.072   9.999  20.770  0.00  0.00    +0.000 A 
ATOM     20  C   UNL     1       0.215   8.922  21.654  0.00  0.00    +0.000 A 
ATOM     21  C   UNL     1       1.002   7.814  21.329  0.00  0.00    +0.000 A 
ATOM     22  C   UNL     1       1.639   7.725  20.086  0.00  0.00    +0.000 A 
ATOM     23  C   UNL     1       1.510   8.811  19.209  0.00  0.00    +0.000 A 
ATOM     24  C   UNL     1       0.746   9.944  19.543  0.00  0.00    +0.000 A 
ATOM     25 CL   UNL     1       0.785  11.238  18.399  0.00  0.00    +0.000 Cl
BRANCH  19  27
ATOM     26  C   UNL     1      -0.901  11.007  22.710  0.00  0.00    +0.000 C 
ATOM     27  O   UNL     1      -0.661  11.019  21.310  0.00  0.00    +0.000 OA
ENDBRANCH  19  27
ENDBRANCH   1  22
BRANCH   7  28
ATOM     28  C   UNL     1       0.391   3.219  18.977  0.00  0.00    +0.000 C 
ATOM     29  F   UNL     1       0.758   1.985  18.537  0.00  0.00    +0.000 F 
ENDBRANCH   7  28
TORSDOF 4
ENDMDL
MODEL 7
REMARK VINA RESULT:      -7.3      3.397      7.454
REMARK  Name = 
REMARK  7 active torsions:
REMARK  status: ('A' for Active; 'I' for Inactive)
REMARK    1  A    between atoms: C_1  and  O_2
REMARK    2  A    between atoms: O_2  and  C_3
REMARK    3  A    between atoms: C_6  and  C_7
REMARK    4  A    between atoms: C_9  and  C_10
REMARK    5  A    between atoms: C_12  and  C_13
REMARK    6  A    between atoms: C_15  and  C_16
REMARK    7  A    between atoms: C_21  and  C_22
REMARK                            x       y       z     vdW  Elec       q    Type
REMARK                         _______ _______ _______ _____ _____    ______ ____
ROOT
ATOM      1  C   UNL     1       3.941   5.719  17.530  0.00  0.00    +0.000 A 
ATOM      2  N   UNL     1       3.570   6.909  17.976  0.00  0.00    +0.000 NA
ATOM      3  C   UNL     1       2.504   6.713  18.820  0.00  0.00    +0.000 A 
ATOM      4  C   UNL     1       2.174   5.367  18.874  0.00  0.00    +0.000 A 
ATOM      5  N   UNL     1       3.169   4.743  18.141  0.00  0.00    +0.000 N 
ATOM      6  C   UNL     1       3.405   3.309  18.076  0.00  0.00    +0.000 C 
ATOM      7  C   UNL     1       3.122   2.534  19.367  0.00  0.00    +0.000 C 
ATOM      8  O   UNL     1       1.743   2.316  19.682  0.00  0.00    +0.000 OA
ATOM      9  C   UNL     1       0.795   3.234  19.138  0.00  0.00    +0.000 C 
ATOM     10  C   UNL     1       1.052   4.666  19.578  0.00  0.00    +0.000 C 
ENDROOT
BRANCH   3  11
ATOM     11  C   UNL     1       1.820   7.813  19.492  0.00  0.00    +0.000 A 
ATOM     12  C   UNL     1       1.547   8.990  18.795  0.00  0.00    +0.000 A 
ATOM     13  C   UNL     1       0.844  10.008  19.434  0.00  0.00    +0.000 A 
ATOM     14  C   UNL     1       0.522  11.290  18.728  0.00  0.00    +0.000 C 
ATOM     15  N   UNL     1       0.405   9.904  20.711  0.00  0.00    +0.000 NA
ATOM     16  C   UNL     1       0.698   8.778  21.392  0.00  0.00    +0.000 A 
ATOM     17  C   UNL     1       0.185   8.662  22.798  0.00  0.00    +0.000 C 
ATOM     18  C   UNL     1       1.418   7.732  20.828  0.00  0.00    +0.000 A 
ENDBRANCH   3  11
BRANCH   1  22
ATOM     19  C   UNL     1       7.092   5.006  14.664  0.00  0.00    +0.000 A 
ATOM     20  C   UNL     1       7.359   5.666  15.869  0.00  0.00    +0.000 A 
ATOM     21  C   UNL     1       6.353   5.890  16.814  0.00  0.00    +0.000 A 
ATOM     22  C   UNL     1       5.033   5.499  16.564  0.00  0.00    +0.000 A 
ATOM     23  C   UNL     1       4.770   4.823  15.365  0.00  0.00    +0.000 A 
ATOM     24  C   UNL     1       5.784   4.564  14.424  0.00  0.00    +0.000 A 
ATOM     25 CL   UNL     1       5.313   3.622  13.055  0.00  0.00    +0.000 Cl
BRANCH  19  27
ATOM     26  C   UNL     1       8.425   5.617  12.773  0.00  0.00    +0.000 C 
ATOM     27  O   UNL     1       8.223   4.806  13.921  0.00  0.00    +0.000 OA
ENDBRANCH  19  27
ENDBRANCH   1  22
BRANCH   7  28
ATOM     28  C   UNL     1       3.899   3.088  20.563  0.00  0.00    +0.000 C 
ATOM     29  F   UNL     1       3.127   2.975  21.678  0.00  0.00    +0.000 F 
ENDBRANCH   7  28
TORSDOF 4
ENDMDL
MODEL 8
REMARK VINA RESULT:      -7.3      3.430      7.329
REMARK  Name = 
REMARK  7 active torsions:
REMARK  status: ('A' for Active; 'I' for Inactive)
REMARK    1  A    between atoms: C_1  and  O_2
REMARK    2  A    between atoms: O_2  and  C_3
REMARK    3  A    between atoms: C_6  and  C_7
REMARK    4  A    between atoms: C_9  and  C_10
REMARK    5  A    between atoms: C_12  and  C_13
REMARK    6  A    between atoms: C_15  and  C_16
REMARK    7  A    between atoms: C_21  and  C_22
REMARK                            x       y       z     vdW  Elec       q    Type
REMARK                         _______ _______ _______ _____ _____    ______ ____
ROOT
ATOM      1  C   UNL     1       3.972   5.688  17.445  0.00  0.00    +0.000 A 
ATOM      2  N   UNL     1       3.588   6.873  17.892  0.00  0.00    +0.000 NA
ATOM      3  C   UNL     1       2.523   6.665  18.734  0.00  0.00    +0.000 A 
ATOM      4  C   UNL     1       2.208   5.315  18.787  0.00  0.00    +0.000 A 
ATOM      5  N   UNL     1       3.211   4.703  18.054  0.00  0.00    +0.000 N 
ATOM      6  C   UNL     1       3.462   3.272  17.989  0.00  0.00    +0.000 C 
ATOM      7  C   UNL     1       3.187   2.493  19.278  0.00  0.00    +0.000 C 
ATOM      8  O   UNL     1       1.809   2.259  19.591  0.00  0.00    +0.000 OA
ATOM      9  C   UNL     1       0.853   3.167  19.047  0.00  0.00    +0.000 C 
ATOM     10  C   UNL     1       1.093   4.601  19.489  0.00  0.00    +0.000 C 
ENDROOT
BRANCH   3  11
ATOM     11  C   UNL     1       1.826   7.757  19.406  0.00  0.00    +0.000 A 
ATOM     12  C   UNL     1       1.756   7.783  20.799  0.00  0.00    +0.000 A 
ATOM     13  C   UNL     1       1.136   8.861  21.426  0.00  0.00    +0.000 A 
ATOM     14  C   UNL     1       1.038   8.939  22.919  0.00  0.00    +0.000 C 
ATOM     15  N   UNL     1       0.597   9.897  20.738  0.00  0.00    +0.000 NA
ATOM     16  C   UNL     1       0.639   9.852  19.392  0.00  0.00    +0.000 A 
ATOM     17  C   UNL     1       0.062  11.016  18.640  0.00  0.00    +0.000 C 
ATOM     18  C   UNL     1       1.217   8.797  18.697  0.00  0.00    +0.000 A 
ENDBRANCH   3  11
BRANCH   1  22
ATOM     19  C   UNL     1       7.134   5.011  14.583  0.00  0.00    +0.000 A 
ATOM     20  C   UNL     1       7.390   5.685  15.783  0.00  0.00    +0.000 A 
ATOM     21  C   UNL     1       6.381   5.897  16.726  0.00  0.00    +0.000 A 
ATOM     22  C   UNL     1       5.068   5.481  16.480  0.00  0.00    +0.000 A 
ATOM     23  C   UNL     1       4.816   4.791  15.285  0.00  0.00    +0.000 A 
ATOM     24  C   UNL     1       5.835   4.544  14.346  0.00  0.00    +0.000 A 
ATOM     25 CL   UNL     1       5.380   3.584  12.984  0.00  0.00    +0.000 Cl
BRANCH  19  27
ATOM     26  C   UNL     1       8.496   5.688  12.734  0.00  0.00    +0.000 C 
ATOM     27  O   UNL     1       8.268   4.826  13.840  0.00  0.00    +0.000 OA
ENDBRANCH  19  27
ENDBRANCH   1  22
BRANCH   7  28
ATOM     28  C   UNL     1       3.956   3.054  20.476  0.00  0.00    +0.000 C 
ATOM     29  F   UNL     1       3.195   2.908  21.594  0.00  0.00    +0.000 F 
ENDBRANCH   7  28
TORSDOF 4
ENDMDL
MODEL 9
REMARK VINA RESULT:      -7.0      6.653      9.373
REMARK  Name = 
REMARK  7 active torsions:
REMARK  status: ('A' for Active; 'I' for Inactive)
REMARK    1  A    between atoms: C_1  and  O_2
REMARK    2  A    between atoms: O_2  and  C_3
REMARK    3  A    between atoms: C_6  and  C_7
REMARK    4  A    between atoms: C_9  and  C_10
REMARK    5  A    between atoms: C_12  and  C_13
REMARK    6  A    between atoms: C_15  and  C_16
REMARK    7  A    between atoms: C_21  and  C_22
REMARK                            x       y       z     vdW  Elec       q    Type
REMARK                         _______ _______ _______ _____ _____    ______ ____
ROOT
ATOM      1  C   UNL     1       0.465  13.169  18.768  0.00  0.00    +0.000 A 
ATOM      2  N   UNL     1      -0.570  13.109  17.945  0.00  0.00    +0.000 NA
ATOM      3  C   UNL     1      -1.230  11.933  18.207  0.00  0.00    +0.000 A 
ATOM      4  C   UNL     1      -0.568  11.219  19.194  0.00  0.00    +0.000 A 
ATOM      5  N   UNL     1       0.437  12.073  19.616  0.00  0.00    +0.000 N 
ATOM      6  C   UNL     1       1.276  11.884  20.789  0.00  0.00    +0.000 C 
ATOM      7  C   UNL     1       0.593  11.224  21.991  0.00  0.00    +0.000 C 
ATOM      8  O   UNL     1       0.373   9.812  21.893  0.00  0.00    +0.000 OA
ATOM      9  C   UNL     1       0.287   9.254  20.583  0.00  0.00    +0.000 C 
ATOM     10  C   UNL     1      -0.841   9.860  19.764  0.00  0.00    +0.000 C 
ENDROOT
BRANCH   3  11
ATOM     11  C   UNL     1      -2.423  11.521  17.474  0.00  0.00    +0.000 A 
ATOM     12  C   UNL     1      -3.684  11.710  18.039  0.00  0.00    +0.000 A 
ATOM     13  C   UNL     1      -4.815  11.363  17.304  0.00  0.00    +0.000 A 
ATOM     14  C   UNL     1      -6.192  11.550  17.864  0.00  0.00    +0.000 C 
ATOM     15  N   UNL     1      -4.744  10.849  16.052  0.00  0.00    +0.000 NA
ATOM     16  C   UNL     1      -3.523  10.638  15.522  0.00  0.00    +0.000 A 
ATOM     17  C   UNL     1      -3.456  10.093  14.126  0.00  0.00    +0.000 C 
ATOM     18  C   UNL     1      -2.351  10.936  16.207  0.00  0.00    +0.000 A 
ENDBRANCH   3  11
BRANCH   1  22
ATOM     19  C   UNL     1       3.427  16.312  18.796  0.00  0.00    +0.000 A 
ATOM     20  C   UNL     1       2.140  16.539  19.299  0.00  0.00    +0.000 A 
ATOM     21  C   UNL     1       1.176  15.527  19.312  0.00  0.00    +0.000 A 
ATOM     22  C   UNL     1       1.453  14.264  18.779  0.00  0.00    +0.000 A 
ATOM     23  C   UNL     1       2.747  14.032  18.291  0.00  0.00    +0.000 A 
ATOM     24  C   UNL     1       3.733  15.036  18.305  0.00  0.00    +0.000 A 
ATOM     25 CL   UNL     1       5.303  14.552  17.773  0.00  0.00    +0.000 Cl
BRANCH  19  27
ATOM     26  C   UNL     1       5.115  17.423  20.079  0.00  0.00    +0.000 C 
ATOM     27  O   UNL     1       4.244  17.397  18.957  0.00  0.00    +0.000 OA
ENDBRANCH  19  27
ENDBRANCH   1  22
BRANCH   7  28
ATOM     28  C   UNL     1      -0.671  11.968  22.427  0.00  0.00    +0.000 C 
ATOM     29  F   UNL     1      -1.448  11.124  23.158  0.00  0.00    +0.000 F 
ENDBRANCH   7  28
TORSDOF 4
ENDMDL
