MODEL 1
REMARK VINA RESULT:      -8.9      0.000      0.000
REMARK  Name = 
REMARK  8 active torsions:
REMARK  status: ('A' for Active; 'I' for Inactive)
REMARK    1  A    between atoms: C_1  and  C_2
REMARK    2  A    between atoms: C_2  and  C_3
REMARK    3  A    between atoms: C_3  and  O_4
REMARK    4  A    between atoms: C_3  and  C_5
REMARK    5  A    between atoms: C_7  and  O_8
REMARK    6  A    between atoms: O_8  and  C_9
REMARK    7  A    between atoms: C_13  and  N_14
REMARK    8  A    between atoms: C_15  and  C_17
REMARK                            x       y       z     vdW  Elec       q    Type
REMARK                         _______ _______ _______ _____ _____    ______ ____
ROOT
ATOM      1  C   UNL     1       2.607   5.654  19.047  0.00  0.00    +0.000 A 
ATOM      2  C   UNL     1       2.701   6.973  18.596  0.00  0.00    +0.000 A 
ATOM      3 CL   UNL     1       3.378   7.440  17.072  0.00  0.00    +0.000 Cl
ATOM      4  C   UNL     1       2.154   8.016  19.351  0.00  0.00    +0.000 A 
ATOM      5  C   UNL     1       1.429   7.780  20.521  0.00  0.00    +0.000 A 
ATOM      6  C   UNL     1       1.259   6.456  20.932  0.00  0.00    +0.000 A 
ATOM      7  C   UNL     1       1.850   5.398  20.203  0.00  0.00    +0.000 A 
ATOM      8 CL   UNL     1       1.576   3.785  20.762  0.00  0.00    +0.000 Cl
ENDROOT
BRANCH   5   9
ATOM      9  N   UNL     1       0.860   8.838  21.272  0.00  0.00    +0.000 N 
ATOM     10  C   UNL     1      -0.051   9.768  20.790  0.00  0.00    +0.000 C 
ATOM     11  O   UNL     1      -0.555   9.853  19.676  0.00  0.00    +0.000 OA
ATOM     12  H   UNL     1       1.151   8.954  22.242  0.00  0.00    +0.000 HD
BRANCH  10  13
ATOM     13  C   UNL     1      -0.501  10.802  21.771  0.00  0.00    +0.000 A 
ATOM     14  N   UNL     1      -0.371  10.724  23.057  0.00  0.00    +0.000 NA
ATOM     15  O   UNL     1      -0.996  11.929  23.529  0.00  0.00    +0.000 OA
ATOM     16  C   UNL     1      -1.458  12.596  22.413  0.00  0.00    +0.000 A 
ATOM     17  O   UNL     1      -2.102  13.631  22.432  0.00  0.00    +0.000 OA
ATOM     18  N   UNL     1      -1.110  11.907  21.329  0.00  0.00    +0.000 N 
ATOM     19  H   UNL     1      -1.333  12.146  20.373  0.00  0.00    +0.000 HD
ENDBRANCH  10  13
ENDBRANCH   5   9
BRANCH   1  20
ATOM     20  O   UNL     1       3.153   4.568  18.306  0.00  0.00    +0.000 OA
BRANCH  20  23
ATOM     21  C   UNL     1       6.171   4.311  16.377  0.00  0.00    +0.000 A 
ATOM     22  C   UNL     1       4.879   4.473  16.714  0.00  0.00    +0.000 A 
ATOM     23  C   UNL     1       4.534   4.451  18.139  0.00  0.00    +0.000 A 
ATOM     24  N   UNL     1       5.377   4.349  19.114  0.00  0.00    +0.000 NA
ATOM     25  N   UNL     1       6.699   4.337  18.755  0.00  0.00    +0.000 N 
ATOM     26  C   UNL     1       7.189   4.312  17.471  0.00  0.00    +0.000 A 
ATOM     27  O   UNL     1       8.391   4.295  17.236  0.00  0.00    +0.000 OA
ATOM     28  H   UNL     1       7.372   4.376  19.515  0.00  0.00    +0.000 HD
BRANCH  21  29
ATOM     29  C   UNL     1       6.683   4.188  14.962  0.00  0.00    +0.000 C 
BRANCH  29  31
ATOM     30  C   UNL     1       6.075   3.507  12.586  0.00  0.00    +0.000 C 
ATOM     31  C   UNL     1       5.562   4.055  13.914  0.00  0.00    +0.000 C 
ENDBRANCH  29  31
BRANCH  29  32
ATOM     32  O   UNL     1       7.457   5.356  14.641  0.00  0.00    +0.000 OA
ATOM     33  H   UNL     1       8.332   5.049  14.345  0.00  0.00    +0.000 HD
ENDBRANCH  29  32
ENDBRANCH  21  29
ENDBRANCH  20  23
ENDBRANCH   1  20
TORSDOF 7
ENDMDL
MODEL 2
REMARK VINA RESULT:      -8.8      0.312      1.720
REMARK  Name = 
REMARK  8 active torsions:
REMARK  status: ('A' for Active; 'I' for Inactive)
REMARK    1  A    between atoms: C_1  and  C_2
REMARK    2  A    between atoms: C_2  and  C_3
REMARK    3  A    between atoms: C_3  and  O_4
REMARK    4  A    between atoms: C_3  and  C_5
REMARK    5  A    between atoms: C_7  and  O_8
REMARK    6  A    between atoms: O_8  and  C_9
REMARK    7  A    between atoms: C_13  and  N_14
REMARK    8  A    between atoms: C_15  and  C_17
REMARK                            x       y       z     vdW  Elec       q    Type
REMARK                         _______ _______ _______ _____ _____    ______ ____
ROOT
ATOM      1  C   UNL     1       2.510   5.773  18.918  0.00  0.00    +0.000 A 
ATOM      2  C   UNL     1       1.965   5.579  20.189  0.00  0.00    +0.000 A 
ATOM      3 CL   UNL     1       1.957   4.064  21.029  0.00  0.00    +0.000 Cl
ATOM      4  C   UNL     1       1.451   6.663  20.909  0.00  0.00    +0.000 A 
ATOM      5  C   UNL     1       1.538   7.973  20.433  0.00  0.00    +0.000 A 
ATOM      6  C   UNL     1       2.159   8.184  19.200  0.00  0.00    +0.000 A 
ATOM      7  C   UNL     1       2.638   7.089  18.442  0.00  0.00    +0.000 A 
ATOM      8 CL   UNL     1       3.415   7.433  16.937  0.00  0.00    +0.000 Cl
ENDROOT
BRANCH   5   9
ATOM      9  N   UNL     1       1.034   9.070  21.174  0.00  0.00    +0.000 N 
ATOM     10  C   UNL     1      -0.008   9.897  20.779  0.00  0.00    +0.000 C 
ATOM     11  O   UNL     1      -0.700   9.843  19.770  0.00  0.00    +0.000 OA
ATOM     12  H   UNL     1       1.478   9.299  22.062  0.00  0.00    +0.000 HD
BRANCH  10  13
ATOM     13  C   UNL     1      -0.354  11.001  21.727  0.00  0.00    +0.000 A 
ATOM     14  N   UNL     1      -0.451  10.883  23.013  0.00  0.00    +0.000 NA
ATOM     15  O   UNL     1      -0.844  12.198  23.439  0.00  0.00    +0.000 OA
ATOM     16  C   UNL     1      -0.955  12.966  22.298  0.00  0.00    +0.000 A 
ATOM     17  O   UNL     1      -1.334  14.123  22.266  0.00  0.00    +0.000 OA
ATOM     18  N   UNL     1      -0.609  12.223  21.249  0.00  0.00    +0.000 N 
ATOM     19  H   UNL     1      -0.616  12.516  20.282  0.00  0.00    +0.000 HD
ENDBRANCH  10  13
ENDBRANCH   5   9
BRANCH   1  20
ATOM     20  O   UNL     1       3.041   4.694  18.157  0.00  0.00    +0.000 OA
BRANCH  20  23
ATOM     21  C   UNL     1       6.122   4.348  16.345  0.00  0.00    +0.000 A 
ATOM     22  C   UNL     1       4.825   4.558  16.634  0.00  0.00    +0.000 A 
ATOM     23  C   UNL     1       4.422   4.522  18.043  0.00  0.00    +0.000 A 
ATOM     24  N   UNL     1       5.219   4.365  19.049  0.00  0.00    +0.000 NA
ATOM     25  N   UNL     1       6.553   4.305  18.743  0.00  0.00    +0.000 N 
ATOM     26  C   UNL     1       7.094   4.285  17.478  0.00  0.00    +0.000 A 
ATOM     27  O   UNL     1       8.303   4.222  17.292  0.00  0.00    +0.000 OA
ATOM     28  H   UNL     1       7.195   4.301  19.529  0.00  0.00    +0.000 HD
BRANCH  21  29
ATOM     29  C   UNL     1       6.686   4.233  14.950  0.00  0.00    +0.000 C 
BRANCH  29  31
ATOM     30  C   UNL     1       6.048   3.472  12.605  0.00  0.00    +0.000 C 
ATOM     31  C   UNL     1       5.607   4.236  13.850  0.00  0.00    +0.000 C 
ENDBRANCH  29  31
BRANCH  29  32
ATOM     32  O   UNL     1       7.571   5.339  14.709  0.00  0.00    +0.000 OA
ATOM     33  H   UNL     1       7.172   5.879  14.004  0.00  0.00    +0.000 HD
ENDBRANCH  29  32
ENDBRANCH  21  29
ENDBRANCH  20  23
ENDBRANCH   1  20
TORSDOF 7
ENDMDL
MODEL 3
REMARK VINA RESULT:      -8.5      2.632      3.907
REMARK  Name = 
REMARK  8 active torsions:
REMARK  status: ('A' for Active; 'I' for Inactive)
REMARK    1  A    between atoms: C_1  and  C_2
REMARK    2  A    between atoms: C_2  and  C_3
REMARK    3  A    between atoms: C_3  and  O_4
REMARK    4  A    between atoms: C_3  and  C_5
REMARK    5  A    between atoms: C_7  and  O_8
REMARK    6  A    between atoms: O_8  and  C_9
REMARK    7  A    between atoms: C_13  and  N_14
REMARK    8  A    between atoms: C_15  and  C_17
REMARK                            x       y       z     vdW  Elec       q    Type
REMARK                         _______ _______ _______ _____ _____    ______ ____
ROOT
ATOM      1  C   UNL     1       5.056   5.299  17.268  0.00  0.00    +0.000 A 
ATOM      2  C   UNL     1       3.774   4.800  17.514  0.00  0.00    +0.000 A 
ATOM      3 CL   UNL     1       3.339   3.127  17.410  0.00  0.00    +0.000 Cl
ATOM      4  C   UNL     1       2.758   5.655  17.955  0.00  0.00    +0.000 A 
ATOM      5  C   UNL     1       2.997   6.999  18.246  0.00  0.00    +0.000 A 
ATOM      6  C   UNL     1       4.297   7.484  18.083  0.00  0.00    +0.000 A 
ATOM      7  C   UNL     1       5.321   6.641  17.591  0.00  0.00    +0.000 A 
ATOM      8 CL   UNL     1       6.908   7.308  17.439  0.00  0.00    +0.000 Cl
ENDROOT
BRANCH   5   9
ATOM      9  N   UNL     1       1.970   7.856  18.711  0.00  0.00    +0.000 N 
ATOM     10  C   UNL     1       1.660   9.102  18.182  0.00  0.00    +0.000 C 
ATOM     11  O   UNL     1       2.164   9.687  17.231  0.00  0.00    +0.000 OA
ATOM     12  H   UNL     1       1.419   7.559  19.515  0.00  0.00    +0.000 HD
BRANCH  10  13
ATOM     13  C   UNL     1       0.538   9.829  18.853  0.00  0.00    +0.000 A 
ATOM     14  N   UNL     1       0.217   9.723  20.103  0.00  0.00    +0.000 NA
ATOM     15  O   UNL     1      -0.935  10.575  20.224  0.00  0.00    +0.000 OA
ATOM     16  C   UNL     1      -1.177  11.091  18.967  0.00  0.00    +0.000 A 
ATOM     17  O   UNL     1      -2.118  11.806  18.672  0.00  0.00    +0.000 OA
ATOM     18  N   UNL     1      -0.233  10.652  18.137  0.00  0.00    +0.000 N 
ATOM     19  H   UNL     1      -0.170  10.850  17.148  0.00  0.00    +0.000 HD
ENDBRANCH  10  13
ENDBRANCH   5   9
BRANCH   1  20
ATOM     20  O   UNL     1       6.113   4.460  16.818  0.00  0.00    +0.000 OA
BRANCH  20  23
ATOM     21  C   UNL     1       6.078   3.733  13.302  0.00  0.00    +0.000 A 
ATOM     22  C   UNL     1       5.728   3.790  14.599  0.00  0.00    +0.000 A 
ATOM     23  C   UNL     1       6.584   4.559  15.507  0.00  0.00    +0.000 A 
ATOM     24  N   UNL     1       7.623   5.245  15.159  0.00  0.00    +0.000 NA
ATOM     25  N   UNL     1       7.874   5.297  13.814  0.00  0.00    +0.000 N 
ATOM     26  C   UNL     1       7.197   4.606  12.836  0.00  0.00    +0.000 A 
ATOM     27  O   UNL     1       7.492   4.704  11.651  0.00  0.00    +0.000 OA
ATOM     28  H   UNL     1       8.615   5.926  13.518  0.00  0.00    +0.000 HD
BRANCH  21  29
ATOM     29  C   UNL     1       5.382   2.893  12.258  0.00  0.00    +0.000 C 
BRANCH  29  31
ATOM     30  C   UNL     1       3.350   2.951  10.724  0.00  0.00    +0.000 C 
ATOM     31  C   UNL     1       4.554   3.722  11.256  0.00  0.00    +0.000 C 
ENDBRANCH  29  31
BRANCH  29  32
ATOM     32  O   UNL     1       6.367   2.154  11.517  0.00  0.00    +0.000 OA
ATOM     33  H   UNL     1       5.895   1.465  11.018  0.00  0.00    +0.000 HD
ENDBRANCH  29  32
ENDBRANCH  21  29
ENDBRANCH  20  23
ENDBRANCH   1  20
TORSDOF 7
ENDMDL
MODEL 4
REMARK VINA RESULT:      -8.4      2.343      3.515
REMARK  Name = 
REMARK  8 active torsions:
REMARK  status: ('A' for Active; 'I' for Inactive)
REMARK    1  A    between atoms: C_1  and  C_2
REMARK    2  A    between atoms: C_2  and  C_3
REMARK    3  A    between atoms: C_3  and  O_4
REMARK    4  A    between atoms: C_3  and  C_5
REMARK    5  A    between atoms: C_7  and  O_8
REMARK    6  A    between atoms: O_8  and  C_9
REMARK    7  A    between atoms: C_13  and  N_14
REMARK    8  A    between atoms: C_15  and  C_17
REMARK                            x       y       z     vdW  Elec       q    Type
REMARK                         _______ _______ _______ _____ _____    ______ ____
ROOT
ATOM      1  C   UNL     1       4.875   4.459  17.832  0.00  0.00    +0.000 A 
ATOM      2  C   UNL     1       3.489   4.369  17.691  0.00  0.00    +0.000 A 
ATOM      3 CL   UNL     1       2.679   3.199  16.704  0.00  0.00    +0.000 Cl
ATOM      4  C   UNL     1       2.649   5.202  18.438  0.00  0.00    +0.000 A 
ATOM      5  C   UNL     1       3.147   6.083  19.400  0.00  0.00    +0.000 A 
ATOM      6  C   UNL     1       4.529   6.116  19.606  0.00  0.00    +0.000 A 
ATOM      7  C   UNL     1       5.390   5.314  18.822  0.00  0.00    +0.000 A 
ATOM      8 CL   UNL     1       7.085   5.394  19.152  0.00  0.00    +0.000 Cl
ENDROOT
BRANCH   5   9
ATOM      9  N   UNL     1       2.293   6.911  20.168  0.00  0.00    +0.000 N 
ATOM     10  C   UNL     1       1.777   8.134  19.760  0.00  0.00    +0.000 C 
ATOM     11  O   UNL     1       1.921   8.718  18.692  0.00  0.00    +0.000 OA
ATOM     12  H   UNL     1       2.044   6.610  21.109  0.00  0.00    +0.000 HD
BRANCH  10  13
ATOM     13  C   UNL     1       0.905   8.833  20.753  0.00  0.00    +0.000 A 
ATOM     14  N   UNL     1      -0.151   9.526  20.467  0.00  0.00    +0.000 NA
ATOM     15  O   UNL     1      -0.586  10.014  21.748  0.00  0.00    +0.000 OA
ATOM     16  C   UNL     1       0.319   9.542  22.677  0.00  0.00    +0.000 A 
ATOM     17  O   UNL     1       0.306   9.810  23.866  0.00  0.00    +0.000 OA
ATOM     18  N   UNL     1       1.213   8.780  22.052  0.00  0.00    +0.000 N 
ATOM     19  H   UNL     1       2.006   8.320  22.478  0.00  0.00    +0.000 HD
ENDBRANCH  10  13
ENDBRANCH   5   9
BRANCH   1  20
ATOM     20  O   UNL     1       5.760   3.628  17.089  0.00  0.00    +0.000 OA
BRANCH  20  23
ATOM     21  C   UNL     1       6.259   3.704  13.533  0.00  0.00    +0.000 A 
ATOM     22  C   UNL     1       5.763   3.411  14.749  0.00  0.00    +0.000 A 
ATOM     23  C   UNL     1       6.342   4.095  15.909  0.00  0.00    +0.000 A 
ATOM     24  N   UNL     1       7.255   5.009  15.863  0.00  0.00    +0.000 NA
ATOM     25  N   UNL     1       7.638   5.401  14.608  0.00  0.00    +0.000 N 
ATOM     26  C   UNL     1       7.225   4.838  13.422  0.00  0.00    +0.000 A 
ATOM     27  O   UNL     1       7.623   5.246  12.338  0.00  0.00    +0.000 OA
ATOM     28  H   UNL     1       8.266   6.197  14.557  0.00  0.00    +0.000 HD
BRANCH  21  29
ATOM     29  C   UNL     1       5.864   3.010  12.252  0.00  0.00    +0.000 C 
BRANCH  29  31
ATOM     30  C   UNL     1       3.652   3.115  10.996  0.00  0.00    +0.000 C 
ATOM     31  C   UNL     1       4.936   3.855  11.358  0.00  0.00    +0.000 C 
ENDBRANCH  29  31
BRANCH  29  32
ATOM     32  O   UNL     1       7.050   2.705  11.500  0.00  0.00    +0.000 OA
ATOM     33  H   UNL     1       7.041   3.268  10.706  0.00  0.00    +0.000 HD
ENDBRANCH  29  32
ENDBRANCH  21  29
ENDBRANCH  20  23
ENDBRANCH   1  20
TORSDOF 7
ENDMDL
MODEL 5
REMARK VINA RESULT:      -8.4      2.606      3.573
REMARK  Name = 
REMARK  8 active torsions:
REMARK  status: ('A' for Active; 'I' for Inactive)
REMARK    1  A    between atoms: C_1  and  C_2
REMARK    2  A    between atoms: C_2  and  C_3
REMARK    3  A    between atoms: C_3  and  O_4
REMARK    4  A    between atoms: C_3  and  C_5
REMARK    5  A    between atoms: C_7  and  O_8
REMARK    6  A    between atoms: O_8  and  C_9
REMARK    7  A    between atoms: C_13  and  N_14
REMARK    8  A    between atoms: C_15  and  C_17
REMARK                            x       y       z     vdW  Elec       q    Type
REMARK                         _______ _______ _______ _____ _____    ______ ____
ROOT
ATOM      1  C   UNL     1       4.976   5.226  17.390  0.00  0.00    +0.000 A 
ATOM      2  C   UNL     1       5.246   6.578  17.610  0.00  0.00    +0.000 A 
ATOM      3 CL   UNL     1       6.755   7.346  17.246  0.00  0.00    +0.000 Cl
ATOM      4  C   UNL     1       4.241   7.432  18.077  0.00  0.00    +0.000 A 
ATOM      5  C   UNL     1       2.927   6.995  18.259  0.00  0.00    +0.000 A 
ATOM      6  C   UNL     1       2.631   5.663  17.959  0.00  0.00    +0.000 A 
ATOM      7  C   UNL     1       3.651   4.780  17.533  0.00  0.00    +0.000 A 
ATOM      8 CL   UNL     1       3.201   3.154  17.159  0.00  0.00    +0.000 Cl
ENDROOT
BRANCH   5   9
ATOM      9  N   UNL     1       1.907   7.866  18.713  0.00  0.00    +0.000 N 
ATOM     10  C   UNL     1       1.623   9.118  18.184  0.00  0.00    +0.000 C 
ATOM     11  O   UNL     1       2.148   9.698  17.241  0.00  0.00    +0.000 OA
ATOM     12  H   UNL     1       1.341   7.576  19.509  0.00  0.00    +0.000 HD
BRANCH  10  13
ATOM     13  C   UNL     1       0.505   9.861  18.843  0.00  0.00    +0.000 A 
ATOM     14  N   UNL     1       0.231   9.837  20.109  0.00  0.00    +0.000 NA
ATOM     15  O   UNL     1      -0.941  10.664  20.212  0.00  0.00    +0.000 OA
ATOM     16  C   UNL     1      -1.243  11.080  18.931  0.00  0.00    +0.000 A 
ATOM     17  O   UNL     1      -2.215  11.746  18.622  0.00  0.00    +0.000 OA
ATOM     18  N   UNL     1      -0.316  10.609  18.099  0.00  0.00    +0.000 N 
ATOM     19  H   UNL     1      -0.293  10.736  17.098  0.00  0.00    +0.000 HD
ENDBRANCH  10  13
ENDBRANCH   5   9
BRANCH   1  20
ATOM     20  O   UNL     1       5.974   4.329  16.916  0.00  0.00    +0.000 OA
BRANCH  20  23
ATOM     21  C   UNL     1       6.042   3.708  13.380  0.00  0.00    +0.000 A 
ATOM     22  C   UNL     1       5.652   3.730  14.667  0.00  0.00    +0.000 A 
ATOM     23  C   UNL     1       6.487   4.463  15.624  0.00  0.00    +0.000 A 
ATOM     24  N   UNL     1       7.543   5.147  15.330  0.00  0.00    +0.000 NA
ATOM     25  N   UNL     1       7.837   5.237  13.995  0.00  0.00    +0.000 N 
ATOM     26  C   UNL     1       7.184   4.583  12.976  0.00  0.00    +0.000 A 
ATOM     27  O   UNL     1       7.517   4.713  11.804  0.00  0.00    +0.000 OA
ATOM     28  H   UNL     1       8.593   5.866  13.741  0.00  0.00    +0.000 HD
BRANCH  21  29
ATOM     29  C   UNL     1       5.371   2.908  12.290  0.00  0.00    +0.000 C 
BRANCH  29  31
ATOM     30  C   UNL     1       3.371   2.999  10.717  0.00  0.00    +0.000 C 
ATOM     31  C   UNL     1       4.542   3.771  11.318  0.00  0.00    +0.000 C 
ENDBRANCH  29  31
BRANCH  29  32
ATOM     32  O   UNL     1       6.376   2.220  11.527  0.00  0.00    +0.000 OA
ATOM     33  H   UNL     1       6.217   1.266  11.637  0.00  0.00    +0.000 HD
ENDBRANCH  29  32
ENDBRANCH  21  29
ENDBRANCH  20  23
ENDBRANCH   1  20
TORSDOF 7
ENDMDL
MODEL 6
REMARK VINA RESULT:      -8.3      2.552      3.937
REMARK  Name = 
REMARK  8 active torsions:
REMARK  status: ('A' for Active; 'I' for Inactive)
REMARK    1  A    between atoms: C_1  and  C_2
REMARK    2  A    between atoms: C_2  and  C_3
REMARK    3  A    between atoms: C_3  and  O_4
REMARK    4  A    between atoms: C_3  and  C_5
REMARK    5  A    between atoms: C_7  and  O_8
REMARK    6  A    between atoms: O_8  and  C_9
REMARK    7  A    between atoms: C_13  and  N_14
REMARK    8  A    between atoms: C_15  and  C_17
REMARK                            x       y       z     vdW  Elec       q    Type
REMARK                         _______ _______ _______ _____ _____    ______ ____
ROOT
ATOM      1  C   UNL     1       5.180   5.222  17.268  0.00  0.00    +0.000 A 
ATOM      2  C   UNL     1       3.874   4.764  17.452  0.00  0.00    +0.000 A 
ATOM      3 CL   UNL     1       3.365   3.129  17.198  0.00  0.00    +0.000 Cl
ATOM      4  C   UNL     1       2.889   5.624  17.952  0.00  0.00    +0.000 A 
ATOM      5  C   UNL     1       3.184   6.926  18.361  0.00  0.00    +0.000 A 
ATOM      6  C   UNL     1       4.507   7.362  18.259  0.00  0.00    +0.000 A 
ATOM      7  C   UNL     1       5.500   6.518  17.710  0.00  0.00    +0.000 A 
ATOM      8 CL   UNL     1       7.118   7.121  17.639  0.00  0.00    +0.000 Cl
ENDROOT
BRANCH   5   9
ATOM      9  N   UNL     1       2.188   7.787  18.884  0.00  0.00    +0.000 N 
ATOM     10  C   UNL     1       1.763   8.973  18.302  0.00  0.00    +0.000 C 
ATOM     11  O   UNL     1       2.119   9.491  17.251  0.00  0.00    +0.000 OA
ATOM     12  H   UNL     1       1.754   7.541  19.773  0.00  0.00    +0.000 HD
BRANCH  10  13
ATOM     13  C   UNL     1       0.705   9.719  19.051  0.00  0.00    +0.000 A 
ATOM     14  N   UNL     1      -0.101  10.594  18.539  0.00  0.00    +0.000 NA
ATOM     15  O   UNL     1      -0.872  11.038  19.668  0.00  0.00    +0.000 OA
ATOM     16  C   UNL     1      -0.393  10.352  20.766  0.00  0.00    +0.000 A 
ATOM     17  O   UNL     1      -0.766  10.519  21.914  0.00  0.00    +0.000 OA
ATOM     18  N   UNL     1       0.555   9.510  20.363  0.00  0.00    +0.000 N 
ATOM     19  H   UNL     1       1.098   8.895  20.953  0.00  0.00    +0.000 HD
ENDBRANCH  10  13
ENDBRANCH   5   9
BRANCH   1  20
ATOM     20  O   UNL     1       6.207   4.376  16.762  0.00  0.00    +0.000 OA
BRANCH  20  23
ATOM     21  C   UNL     1       6.104   3.704  13.236  0.00  0.00    +0.000 A 
ATOM     22  C   UNL     1       5.784   3.731  14.542  0.00  0.00    +0.000 A 
ATOM     23  C   UNL     1       6.642   4.508  15.442  0.00  0.00    +0.000 A 
ATOM     24  N   UNL     1       7.655   5.225  15.081  0.00  0.00    +0.000 NA
ATOM     25  N   UNL     1       7.872   5.305  13.730  0.00  0.00    +0.000 N 
ATOM     26  C   UNL     1       7.189   4.612  12.758  0.00  0.00    +0.000 A 
ATOM     27  O   UNL     1       7.452   4.736  11.568  0.00  0.00    +0.000 OA
ATOM     28  H   UNL     1       8.589   5.957  13.427  0.00  0.00    +0.000 HD
BRANCH  21  29
ATOM     29  C   UNL     1       5.404   2.863  12.196  0.00  0.00    +0.000 C 
BRANCH  29  31
ATOM     30  C   UNL     1       3.305   2.988  10.759  0.00  0.00    +0.000 C 
ATOM     31  C   UNL     1       4.590   3.693  11.183  0.00  0.00    +0.000 C 
ENDBRANCH  29  31
BRANCH  29  32
ATOM     32  O   UNL     1       6.384   2.107  11.466  0.00  0.00    +0.000 OA
ATOM     33  H   UNL     1       7.111   1.907  12.082  0.00  0.00    +0.000 HD
ENDBRANCH  29  32
ENDBRANCH  21  29
ENDBRANCH  20  23
ENDBRANCH   1  20
TORSDOF 7
ENDMDL
MODEL 7
REMARK VINA RESULT:      -8.2      2.516      3.634
REMARK  Name = 
REMARK  8 active torsions:
REMARK  status: ('A' for Active; 'I' for Inactive)
REMARK    1  A    between atoms: C_1  and  C_2
REMARK    2  A    between atoms: C_2  and  C_3
REMARK    3  A    between atoms: C_3  and  O_4
REMARK    4  A    between atoms: C_3  and  C_5
REMARK    5  A    between atoms: C_7  and  O_8
REMARK    6  A    between atoms: O_8  and  C_9
REMARK    7  A    between atoms: C_13  and  N_14
REMARK    8  A    between atoms: C_15  and  C_17
REMARK                            x       y       z     vdW  Elec       q    Type
REMARK                         _______ _______ _______ _____ _____    ______ ____
ROOT
ATOM      1  C   UNL     1       5.165   5.191  17.380  0.00  0.00    +0.000 A 
ATOM      2  C   UNL     1       5.475   6.522  17.667  0.00  0.00    +0.000 A 
ATOM      3 CL   UNL     1       6.994   7.272  17.307  0.00  0.00    +0.000 Cl
ATOM      4  C   UNL     1       4.504   7.372  18.207  0.00  0.00    +0.000 A 
ATOM      5  C   UNL     1       3.184   6.958  18.398  0.00  0.00    +0.000 A 
ATOM      6  C   UNL     1       2.846   5.652  18.034  0.00  0.00    +0.000 A 
ATOM      7  C   UNL     1       3.832   4.770  17.533  0.00  0.00    +0.000 A 
ATOM      8 CL   UNL     1       3.332   3.178  17.082  0.00  0.00    +0.000 Cl
ENDROOT
BRANCH   5   9
ATOM      9  N   UNL     1       2.199   7.827  18.927  0.00  0.00    +0.000 N 
ATOM     10  C   UNL     1       1.721   8.974  18.307  0.00  0.00    +0.000 C 
ATOM     11  O   UNL     1       2.014   9.443  17.213  0.00  0.00    +0.000 OA
ATOM     12  H   UNL     1       1.815   7.621  19.848  0.00  0.00    +0.000 HD
BRANCH  10  13
ATOM     13  C   UNL     1       0.688   9.740  19.069  0.00  0.00    +0.000 A 
ATOM     14  N   UNL     1      -0.068  10.671  18.580  0.00  0.00    +0.000 NA
ATOM     15  O   UNL     1      -0.836  11.107  19.715  0.00  0.00    +0.000 OA
ATOM     16  C   UNL     1      -0.407  10.358  20.792  0.00  0.00    +0.000 A 
ATOM     17  O   UNL     1      -0.790  10.498  21.940  0.00  0.00    +0.000 OA
ATOM     18  N   UNL     1       0.507   9.488  20.369  0.00  0.00    +0.000 N 
ATOM     19  H   UNL     1       1.011   8.826  20.943  0.00  0.00    +0.000 HD
ENDBRANCH  10  13
ENDBRANCH   5   9
BRANCH   1  20
ATOM     20  O   UNL     1       6.128   4.298  16.832  0.00  0.00    +0.000 OA
BRANCH  20  23
ATOM     21  C   UNL     1       6.112   3.702  13.291  0.00  0.00    +0.000 A 
ATOM     22  C   UNL     1       5.766   3.692  14.590  0.00  0.00    +0.000 A 
ATOM     23  C   UNL     1       6.586   4.470  15.524  0.00  0.00    +0.000 A 
ATOM     24  N   UNL     1       7.587   5.221  15.199  0.00  0.00    +0.000 NA
ATOM     25  N   UNL     1       7.828   5.336  13.856  0.00  0.00    +0.000 N 
ATOM     26  C   UNL     1       7.182   4.649  12.854  0.00  0.00    +0.000 A 
ATOM     27  O   UNL     1       7.465   4.806  11.673  0.00  0.00    +0.000 OA
ATOM     28  H   UNL     1       8.534   6.013  13.582  0.00  0.00    +0.000 HD
BRANCH  21  29
ATOM     29  C   UNL     1       5.454   2.867  12.218  0.00  0.00    +0.000 C 
BRANCH  29  31
ATOM     30  C   UNL     1       3.331   2.988  10.818  0.00  0.00    +0.000 C 
ATOM     31  C   UNL     1       4.621   3.696  11.221  0.00  0.00    +0.000 C 
ENDBRANCH  29  31
BRANCH  29  32
ATOM     32  O   UNL     1       6.470   2.170  11.479  0.00  0.00    +0.000 OA
ATOM     33  H   UNL     1       6.772   1.428  12.032  0.00  0.00    +0.000 HD
ENDBRANCH  29  32
ENDBRANCH  21  29
ENDBRANCH  20  23
ENDBRANCH   1  20
TORSDOF 7
ENDMDL
MODEL 8
REMARK VINA RESULT:      -8.1      2.312      3.372
REMARK  Name = 
REMARK  8 active torsions:
REMARK  status: ('A' for Active; 'I' for Inactive)
REMARK    1  A    between atoms: C_1  and  C_2
REMARK    2  A    between atoms: C_2  and  C_3
REMARK    3  A    between atoms: C_3  and  O_4
REMARK    4  A    between atoms: C_3  and  C_5
REMARK    5  A    between atoms: C_7  and  O_8
REMARK    6  A    between atoms: O_8  and  C_9
REMARK    7  A    between atoms: C_13  and  N_14
REMARK    8  A    between atoms: C_15  and  C_17
REMARK                            x       y       z     vdW  Elec       q    Type
REMARK                         _______ _______ _______ _____ _____    ______ ____
ROOT
ATOM      1  C   UNL     1       4.882   4.380  17.975  0.00  0.00    +0.000 A 
ATOM      2  C   UNL     1       5.403   5.306  18.881  0.00  0.00    +0.000 A 
ATOM      3 CL   UNL     1       7.093   5.620  19.096  0.00  0.00    +0.000 Cl
ATOM      4  C   UNL     1       4.546   6.121  19.629  0.00  0.00    +0.000 A 
ATOM      5  C   UNL     1       3.162   6.102  19.444  0.00  0.00    +0.000 A 
ATOM      6  C   UNL     1       2.640   5.237  18.479  0.00  0.00    +0.000 A 
ATOM      7  C   UNL     1       3.494   4.376  17.752  0.00  0.00    +0.000 A 
ATOM      8 CL   UNL     1       2.777   3.352  16.558  0.00  0.00    +0.000 Cl
ENDROOT
BRANCH   5   9
ATOM      9  N   UNL     1       2.299   6.941  20.190  0.00  0.00    +0.000 N 
ATOM     10  C   UNL     1       1.779   8.152  19.754  0.00  0.00    +0.000 C 
ATOM     11  O   UNL     1       1.926   8.715  18.675  0.00  0.00    +0.000 OA
ATOM     12  H   UNL     1       2.046   6.658  21.136  0.00  0.00    +0.000 HD
BRANCH  10  13
ATOM     13  C   UNL     1       0.898   8.867  20.728  0.00  0.00    +0.000 A 
ATOM     14  N   UNL     1      -0.112   9.616  20.416  0.00  0.00    +0.000 NA
ATOM     15  O   UNL     1      -0.579  10.092  21.690  0.00  0.00    +0.000 OA
ATOM     16  C   UNL     1       0.263   9.557  22.644  0.00  0.00    +0.000 A 
ATOM     17  O   UNL     1       0.212   9.796  23.837  0.00  0.00    +0.000 OA
ATOM     18  N   UNL     1       1.148   8.769  22.037  0.00  0.00    +0.000 N 
ATOM     19  H   UNL     1       1.900   8.263  22.483  0.00  0.00    +0.000 HD
ENDBRANCH  10  13
ENDBRANCH   5   9
BRANCH   1  20
ATOM     20  O   UNL     1       5.724   3.536  17.198  0.00  0.00    +0.000 OA
BRANCH  20  23
ATOM     21  C   UNL     1       6.214   3.674  13.643  0.00  0.00    +0.000 A 
ATOM     22  C   UNL     1       5.716   3.368  14.854  0.00  0.00    +0.000 A 
ATOM     23  C   UNL     1       6.314   4.013  16.026  0.00  0.00    +0.000 A 
ATOM     24  N   UNL     1       7.249   4.906  15.996  0.00  0.00    +0.000 NA
ATOM     25  N   UNL     1       7.637   5.314  14.748  0.00  0.00    +0.000 N 
ATOM     26  C   UNL     1       7.207   4.787  13.552  0.00  0.00    +0.000 A 
ATOM     27  O   UNL     1       7.611   5.208  12.476  0.00  0.00    +0.000 OA
ATOM     28  H   UNL     1       8.284   6.097  14.711  0.00  0.00    +0.000 HD
BRANCH  21  29
ATOM     29  C   UNL     1       5.799   3.017  12.349  0.00  0.00    +0.000 C 
BRANCH  29  31
ATOM     30  C   UNL     1       3.674   3.080  10.947  0.00  0.00    +0.000 C 
ATOM     31  C   UNL     1       4.848   3.883  11.499  0.00  0.00    +0.000 C 
ENDBRANCH  29  31
BRANCH  29  32
ATOM     32  O   UNL     1       6.971   2.743  11.566  0.00  0.00    +0.000 OA
ATOM     33  H   UNL     1       7.348   3.600  11.301  0.00  0.00    +0.000 HD
ENDBRANCH  29  32
ENDBRANCH  21  29
ENDBRANCH  20  23
ENDBRANCH   1  20
TORSDOF 7
ENDMDL
MODEL 9
REMARK VINA RESULT:      -8.0      2.539      4.001
REMARK  Name = 
REMARK  8 active torsions:
REMARK  status: ('A' for Active; 'I' for Inactive)
REMARK    1  A    between atoms: C_1  and  C_2
REMARK    2  A    between atoms: C_2  and  C_3
REMARK    3  A    between atoms: C_3  and  O_4
REMARK    4  A    between atoms: C_3  and  C_5
REMARK    5  A    between atoms: C_7  and  O_8
REMARK    6  A    between atoms: O_8  and  C_9
REMARK    7  A    between atoms: C_13  and  N_14
REMARK    8  A    between atoms: C_15  and  C_17
REMARK                            x       y       z     vdW  Elec       q    Type
REMARK                         _______ _______ _______ _____ _____    ______ ____
ROOT
ATOM      1  C   UNL     1       5.119   5.044  17.089  0.00  0.00    +0.000 A 
ATOM      2  C   UNL     1       3.810   4.616  17.317  0.00  0.00    +0.000 A 
ATOM      3 CL   UNL     1       3.244   3.004  17.031  0.00  0.00    +0.000 Cl
ATOM      4  C   UNL     1       2.874   5.483  17.891  0.00  0.00    +0.000 A 
ATOM      5  C   UNL     1       3.224   6.762  18.330  0.00  0.00    +0.000 A 
ATOM      6  C   UNL     1       4.553   7.165  18.182  0.00  0.00    +0.000 A 
ATOM      7  C   UNL     1       5.496   6.314  17.559  0.00  0.00    +0.000 A 
ATOM      8 CL   UNL     1       7.125   6.875  17.433  0.00  0.00    +0.000 Cl
ENDROOT
BRANCH   5   9
ATOM      9  N   UNL     1       2.278   7.630  18.928  0.00  0.00    +0.000 N 
ATOM     10  C   UNL     1       1.819   8.820  18.380  0.00  0.00    +0.000 C 
ATOM     11  O   UNL     1       2.097   9.336  17.305  0.00  0.00    +0.000 OA
ATOM     12  H   UNL     1       1.912   7.387  19.848  0.00  0.00    +0.000 HD
BRANCH  10  13
ATOM     13  C   UNL     1       0.828   9.574  19.208  0.00  0.00    +0.000 A 
ATOM     14  N   UNL     1       0.095  10.557  18.790  0.00  0.00    +0.000 NA
ATOM     15  O   UNL     1      -0.635  10.951  19.965  0.00  0.00    +0.000 OA
ATOM     16  C   UNL     1      -0.211  10.125  20.987  0.00  0.00    +0.000 A 
ATOM     17  O   UNL     1      -0.567  10.211  22.149  0.00  0.00    +0.000 OA
ATOM     18  N   UNL     1       0.664   9.252  20.495  0.00  0.00    +0.000 N 
ATOM     19  H   UNL     1       1.155   8.541  21.018  0.00  0.00    +0.000 HD
ENDBRANCH  10  13
ENDBRANCH   5   9
BRANCH   1  20
ATOM     20  O   UNL     1       6.097   4.189  16.507  0.00  0.00    +0.000 OA
BRANCH  20  23
ATOM     21  C   UNL     1       6.176   3.950  12.925  0.00  0.00    +0.000 A 
ATOM     22  C   UNL     1       5.784   3.831  14.206  0.00  0.00    +0.000 A 
ATOM     23  C   UNL     1       6.610   4.465  15.238  0.00  0.00    +0.000 A 
ATOM     24  N   UNL     1       7.660   5.187  15.021  0.00  0.00    +0.000 NA
ATOM     25  N   UNL     1       7.954   5.422  13.704  0.00  0.00    +0.000 N 
ATOM     26  C   UNL     1       7.310   4.874  12.619  0.00  0.00    +0.000 A 
ATOM     27  O   UNL     1       7.643   5.132  11.469  0.00  0.00    +0.000 OA
ATOM     28  H   UNL     1       8.704   6.082  13.521  0.00  0.00    +0.000 HD
BRANCH  21  29
ATOM     29  C   UNL     1       5.515   3.264  11.754  0.00  0.00    +0.000 C 
BRANCH  29  31
ATOM     30  C   UNL     1       7.212   1.526  10.991  0.00  0.00    +0.000 C 
ATOM     31  C   UNL     1       5.856   1.765  11.649  0.00  0.00    +0.000 C 
ENDBRANCH  29  31
BRANCH  29  32
ATOM     32  O   UNL     1       4.089   3.389  11.882  0.00  0.00    +0.000 OA
ATOM     33  H   UNL     1       3.852   3.086  12.776  0.00  0.00    +0.000 HD
ENDBRANCH  29  32
ENDBRANCH  21  29
ENDBRANCH  20  23
ENDBRANCH   1  20
TORSDOF 7
ENDMDL
