MODEL 1
REMARK VINA RESULT:      -7.3      0.000      0.000
REMARK  Name = 
REMARK  9 active torsions:
REMARK  status: ('A' for Active; 'I' for Inactive)
REMARK    1  A    between atoms: C_2  and  O_3
REMARK    2  A    between atoms: C_2  and  C_4
REMARK    3  A    between atoms: C_4  and  C_5
REMARK    4  A    between atoms: C_5  and  C_6
REMARK    5  A    between atoms: C_6  and  O_7
REMARK    6  A    between atoms: O_7  and  C_8
REMARK    7  A    between atoms: C_11  and  C_12
REMARK    8  A    between atoms: C_12  and  C_14
REMARK    9  A    between atoms: C_15  and  C_16
REMARK                            x       y       z     vdW  Elec       q    Type
REMARK                         _______ _______ _______ _____ _____    ______ ____
ROOT
ATOM      1  C   UNL     1       2.920   4.558  17.562  0.00  0.00    +0.000 A 
ATOM      2  C   UNL     1       3.878   3.612  17.175  0.00  0.00    +0.000 A 
ATOM      3  C   UNL     1       5.216   3.970  17.027  0.00  0.00    +0.000 A 
ATOM      4  C   UNL     1       5.630   5.284  17.251  0.00  0.00    +0.000 A 
ATOM      5  C   UNL     1       4.693   6.238  17.662  0.00  0.00    +0.000 A 
ATOM      6  C   UNL     1       3.347   5.874  17.815  0.00  0.00    +0.000 A 
ATOM      7 CL   UNL     1       2.234   7.092  18.334  0.00  0.00    +0.000 Cl
ENDROOT
BRANCH   4   8
ATOM      8  C   UNL     1       7.070   5.580  17.041  0.00  0.00    +0.000 C 
ATOM      9  O   UNL     1       7.845   4.680  16.731  0.00  0.00    +0.000 OA
BRANCH   8  10
ATOM     10  C   UNL     1       7.512   6.989  17.145  0.00  0.00    +0.000 C 
ATOM     11  C   UNL     1       7.965   7.458  18.315  0.00  0.00    +0.000 C 
BRANCH  11  12
ATOM     12  C   UNL     1       8.397   8.801  18.381  0.00  0.00    +0.000 A 
ATOM     13  N   UNL     1       8.183   9.806  17.555  0.00  0.00    +0.000 NA
ATOM     14  C   UNL     1       8.828  10.885  18.096  0.00  0.00    +0.000 A 
ATOM     15  C   UNL     1       9.451  10.538  19.270  0.00  0.00    +0.000 A 
ATOM     16  N   UNL     1       9.170   9.209  19.441  0.00  0.00    +0.000 N 
ATOM     17  H   UNL     1       9.477   8.627  20.209  0.00  0.00    +0.000 HD
ENDBRANCH  11  12
ENDBRANCH   8  10
ENDBRANCH   4   8
BRANCH   1  18
ATOM     18  O   UNL     1       1.582   4.270  17.704  0.00  0.00    +0.000 OA
BRANCH  18  19
ATOM     19  C   UNL     1       1.257   3.333  18.737  0.00  0.00    +0.000 C 
BRANCH  19  20
ATOM     20  C   UNL     1       0.901   4.050  20.036  0.00  0.00    +0.000 C 
BRANCH  20  21
ATOM     21  C   UNL     1       2.061   4.127  21.026  0.00  0.00    +0.000 C 
BRANCH  21  23
ATOM     22  O   UNL     1       3.312   2.236  21.877  0.00  0.00    +0.000 OA
ATOM     23  C   UNL     1       2.253   2.837  21.787  0.00  0.00    +0.000 C 
BRANCH  23  24
ATOM     24  O   UNL     1       1.131   2.417  22.413  0.00  0.00    +0.000 OA
ATOM     25  H   UNL     1       0.811   1.546  22.107  0.00  0.00    +0.000 HD
ENDBRANCH  23  24
ENDBRANCH  21  23
ENDBRANCH  20  21
ENDBRANCH  19  20
ENDBRANCH  18  19
ENDBRANCH   1  18
TORSDOF 9
ENDMDL
MODEL 2
REMARK VINA RESULT:      -7.2      3.798      5.271
REMARK  Name = 
REMARK  9 active torsions:
REMARK  status: ('A' for Active; 'I' for Inactive)
REMARK    1  A    between atoms: C_2  and  O_3
REMARK    2  A    between atoms: C_2  and  C_4
REMARK    3  A    between atoms: C_4  and  C_5
REMARK    4  A    between atoms: C_5  and  C_6
REMARK    5  A    between atoms: C_6  and  O_7
REMARK    6  A    between atoms: O_7  and  C_8
REMARK    7  A    between atoms: C_11  and  C_12
REMARK    8  A    between atoms: C_12  and  C_14
REMARK    9  A    between atoms: C_15  and  C_16
REMARK                            x       y       z     vdW  Elec       q    Type
REMARK                         _______ _______ _______ _____ _____    ______ ____
ROOT
ATOM      1  C   UNL     1       3.338   5.818  18.685  0.00  0.00    +0.000 A 
ATOM      2  C   UNL     1       4.188   4.705  18.683  0.00  0.00    +0.000 A 
ATOM      3  C   UNL     1       5.269   4.633  17.808  0.00  0.00    +0.000 A 
ATOM      4  C   UNL     1       5.522   5.666  16.904  0.00  0.00    +0.000 A 
ATOM      5  C   UNL     1       4.698   6.797  16.905  0.00  0.00    +0.000 A 
ATOM      6  C   UNL     1       3.614   6.870  17.792  0.00  0.00    +0.000 A 
ATOM      7 CL   UNL     1       2.635   8.295  17.757  0.00  0.00    +0.000 Cl
ENDROOT
BRANCH   4   8
ATOM      8  C   UNL     1       6.679   5.490  15.989  0.00  0.00    +0.000 C 
ATOM      9  O   UNL     1       7.733   6.077  16.209  0.00  0.00    +0.000 OA
BRANCH   8  10
ATOM     10  C   UNL     1       6.536   4.537  14.865  0.00  0.00    +0.000 C 
ATOM     11  C   UNL     1       5.501   4.654  14.022  0.00  0.00    +0.000 C 
BRANCH  11  12
ATOM     12  C   UNL     1       5.400   3.743  12.947  0.00  0.00    +0.000 A 
ATOM     13  N   UNL     1       4.421   3.547  12.086  0.00  0.00    +0.000 NA
ATOM     14  C   UNL     1       4.845   2.546  11.254  0.00  0.00    +0.000 A 
ATOM     15  C   UNL     1       6.100   2.118  11.612  0.00  0.00    +0.000 A 
ATOM     16  N   UNL     1       6.443   2.887  12.691  0.00  0.00    +0.000 N 
ATOM     17  H   UNL     1       7.309   2.835  13.211  0.00  0.00    +0.000 HD
ENDBRANCH  11  12
ENDBRANCH   8  10
ENDBRANCH   4   8
BRANCH   1  18
ATOM     18  O   UNL     1       2.242   5.937  19.510  0.00  0.00    +0.000 OA
BRANCH  18  19
ATOM     19  C   UNL     1       2.178   4.999  20.591  0.00  0.00    +0.000 C 
BRANCH  19  20
ATOM     20  C   UNL     1       0.935   4.120  20.482  0.00  0.00    +0.000 C 
BRANCH  20  21
ATOM     21  C   UNL     1       1.251   2.641  20.277  0.00  0.00    +0.000 C 
BRANCH  21  23
ATOM     22  O   UNL     1       0.930   2.879  17.888  0.00  0.00    +0.000 OA
ATOM     23  C   UNL     1       1.456   2.294  18.822  0.00  0.00    +0.000 C 
BRANCH  23  24
ATOM     24  O   UNL     1       2.330   1.280  18.636  0.00  0.00    +0.000 OA
ATOM     25  H   UNL     1       3.144   1.543  18.163  0.00  0.00    +0.000 HD
ENDBRANCH  23  24
ENDBRANCH  21  23
ENDBRANCH  20  21
ENDBRANCH  19  20
ENDBRANCH  18  19
ENDBRANCH   1  18
TORSDOF 9
ENDMDL
MODEL 3
REMARK VINA RESULT:      -6.9      1.190      1.688
REMARK  Name = 
REMARK  9 active torsions:
REMARK  status: ('A' for Active; 'I' for Inactive)
REMARK    1  A    between atoms: C_2  and  O_3
REMARK    2  A    between atoms: C_2  and  C_4
REMARK    3  A    between atoms: C_4  and  C_5
REMARK    4  A    between atoms: C_5  and  C_6
REMARK    5  A    between atoms: C_6  and  O_7
REMARK    6  A    between atoms: O_7  and  C_8
REMARK    7  A    between atoms: C_11  and  C_12
REMARK    8  A    between atoms: C_12  and  C_14
REMARK    9  A    between atoms: C_15  and  C_16
REMARK                            x       y       z     vdW  Elec       q    Type
REMARK                         _______ _______ _______ _____ _____    ______ ____
ROOT
ATOM      1  C   UNL     1       2.918   4.843  17.826  0.00  0.00    +0.000 A 
ATOM      2  C   UNL     1       3.521   6.106  17.877  0.00  0.00    +0.000 A 
ATOM      3  C   UNL     1       4.905   6.241  17.808  0.00  0.00    +0.000 A 
ATOM      4  C   UNL     1       5.724   5.116  17.700  0.00  0.00    +0.000 A 
ATOM      5  C   UNL     1       5.141   3.846  17.624  0.00  0.00    +0.000 A 
ATOM      6  C   UNL     1       3.745   3.714  17.687  0.00  0.00    +0.000 A 
ATOM      7 CL   UNL     1       3.078   2.122  17.580  0.00  0.00    +0.000 Cl
ENDROOT
BRANCH   4   8
ATOM      8  C   UNL     1       7.190   5.353  17.663  0.00  0.00    +0.000 C 
ATOM      9  O   UNL     1       7.933   4.534  17.132  0.00  0.00    +0.000 OA
BRANCH   8  10
ATOM     10  C   UNL     1       7.701   6.629  18.214  0.00  0.00    +0.000 C 
ATOM     11  C   UNL     1       7.769   7.712  17.428  0.00  0.00    +0.000 C 
BRANCH  11  12
ATOM     12  C   UNL     1       8.242   8.920  17.986  0.00  0.00    +0.000 A 
ATOM     13  N   UNL     1       8.121  10.161  17.558  0.00  0.00    +0.000 NA
ATOM     14  C   UNL     1       8.765  10.944  18.478  0.00  0.00    +0.000 A 
ATOM     15  C   UNL     1       9.292  10.172  19.485  0.00  0.00    +0.000 A 
ATOM     16  N   UNL     1       8.953   8.886  19.161  0.00  0.00    +0.000 N 
ATOM     17  H   UNL     1       9.186   8.056  19.689  0.00  0.00    +0.000 HD
ENDBRANCH  11  12
ENDBRANCH   8  10
ENDBRANCH   4   8
BRANCH   1  18
ATOM     18  O   UNL     1       1.558   4.646  17.911  0.00  0.00    +0.000 OA
BRANCH  18  19
ATOM     19  C   UNL     1       1.116   3.863  19.026  0.00  0.00    +0.000 C 
BRANCH  19  20
ATOM     20  C   UNL     1       1.122   4.686  20.312  0.00  0.00    +0.000 C 
BRANCH  20  21
ATOM     21  C   UNL     1       2.313   4.387  21.220  0.00  0.00    +0.000 C 
BRANCH  21  23
ATOM     22  O   UNL     1       1.594   2.307  22.233  0.00  0.00    +0.000 OA
ATOM     23  C   UNL     1       2.415   2.922  21.569  0.00  0.00    +0.000 C 
BRANCH  23  24
ATOM     24  O   UNL     1       3.500   2.322  21.032  0.00  0.00    +0.000 OA
ATOM     25  H   UNL     1       4.333   2.813  21.174  0.00  0.00    +0.000 HD
ENDBRANCH  23  24
ENDBRANCH  21  23
ENDBRANCH  20  21
ENDBRANCH  19  20
ENDBRANCH  18  19
ENDBRANCH   1  18
TORSDOF 9
ENDMDL
MODEL 4
REMARK VINA RESULT:      -6.8      3.505      4.962
REMARK  Name = 
REMARK  9 active torsions:
REMARK  status: ('A' for Active; 'I' for Inactive)
REMARK    1  A    between atoms: C_2  and  O_3
REMARK    2  A    between atoms: C_2  and  C_4
REMARK    3  A    between atoms: C_4  and  C_5
REMARK    4  A    between atoms: C_5  and  C_6
REMARK    5  A    between atoms: C_6  and  O_7
REMARK    6  A    between atoms: O_7  and  C_8
REMARK    7  A    between atoms: C_11  and  C_12
REMARK    8  A    between atoms: C_12  and  C_14
REMARK    9  A    between atoms: C_15  and  C_16
REMARK                            x       y       z     vdW  Elec       q    Type
REMARK                         _______ _______ _______ _____ _____    ______ ____
ROOT
ATOM      1  C   UNL     1       3.324   4.941  20.119  0.00  0.00    +0.000 A 
ATOM      2  C   UNL     1       4.407   4.239  19.577  0.00  0.00    +0.000 A 
ATOM      3  C   UNL     1       5.121   4.750  18.495  0.00  0.00    +0.000 A 
ATOM      4  C   UNL     1       4.761   5.969  17.918  0.00  0.00    +0.000 A 
ATOM      5  C   UNL     1       3.696   6.697  18.460  0.00  0.00    +0.000 A 
ATOM      6  C   UNL     1       2.984   6.183  19.554  0.00  0.00    +0.000 A 
ATOM      7 CL   UNL     1       1.682   7.131  20.188  0.00  0.00    +0.000 Cl
ENDROOT
BRANCH   4   8
ATOM      8  C   UNL     1       5.559   6.420  16.750  0.00  0.00    +0.000 C 
ATOM      9  O   UNL     1       6.343   7.357  16.864  0.00  0.00    +0.000 OA
BRANCH   8  10
ATOM     10  C   UNL     1       5.428   5.662  15.485  0.00  0.00    +0.000 C 
ATOM     11  C   UNL     1       6.519   5.137  14.909  0.00  0.00    +0.000 C 
BRANCH  11  12
ATOM     12  C   UNL     1       6.362   4.402  13.714  0.00  0.00    +0.000 A 
ATOM     13  N   UNL     1       7.221   4.161  12.743  0.00  0.00    +0.000 NA
ATOM     14  C   UNL     1       6.551   3.397  11.826  0.00  0.00    +0.000 A 
ATOM     15  C   UNL     1       5.260   3.168  12.238  0.00  0.00    +0.000 A 
ATOM     16  N   UNL     1       5.151   3.812  13.440  0.00  0.00    +0.000 N 
ATOM     17  H   UNL     1       4.327   3.852  14.024  0.00  0.00    +0.000 HD
ENDBRANCH  11  12
ENDBRANCH   8  10
ENDBRANCH   4   8
BRANCH   1  18
ATOM     18  O   UNL     1       2.569   4.479  21.173  0.00  0.00    +0.000 OA
BRANCH  18  19
ATOM     19  C   UNL     1       1.903   3.229  20.955  0.00  0.00    +0.000 C 
BRANCH  19  20
ATOM     20  C   UNL     1       0.892   3.337  19.817  0.00  0.00    +0.000 C 
BRANCH  20  21
ATOM     21  C   UNL     1       0.963   2.178  18.826  0.00  0.00    +0.000 C 
BRANCH  21  23
ATOM     22  O   UNL     1       2.171   3.222  17.004  0.00  0.00    +0.000 OA
ATOM     23  C   UNL     1       2.096   2.335  17.840  0.00  0.00    +0.000 C 
BRANCH  23  24
ATOM     24  O   UNL     1       3.068   1.409  17.996  0.00  0.00    +0.000 OA
ATOM     25  H   UNL     1       2.741   0.541  18.303  0.00  0.00    +0.000 HD
ENDBRANCH  23  24
ENDBRANCH  21  23
ENDBRANCH  20  21
ENDBRANCH  19  20
ENDBRANCH  18  19
ENDBRANCH   1  18
TORSDOF 9
ENDMDL
MODEL 5
REMARK VINA RESULT:      -6.8      1.767      2.292
REMARK  Name = 
REMARK  9 active torsions:
REMARK  status: ('A' for Active; 'I' for Inactive)
REMARK    1  A    between atoms: C_2  and  O_3
REMARK    2  A    between atoms: C_2  and  C_4
REMARK    3  A    between atoms: C_4  and  C_5
REMARK    4  A    between atoms: C_5  and  C_6
REMARK    5  A    between atoms: C_6  and  O_7
REMARK    6  A    between atoms: O_7  and  C_8
REMARK    7  A    between atoms: C_11  and  C_12
REMARK    8  A    between atoms: C_12  and  C_14
REMARK    9  A    between atoms: C_15  and  C_16
REMARK                            x       y       z     vdW  Elec       q    Type
REMARK                         _______ _______ _______ _____ _____    ______ ____
ROOT
ATOM      1  C   UNL     1       3.373   5.907  19.071  0.00  0.00    +0.000 A 
ATOM      2  C   UNL     1       4.539   5.228  19.443  0.00  0.00    +0.000 A 
ATOM      3  C   UNL     1       5.767   5.547  18.867  0.00  0.00    +0.000 A 
ATOM      4  C   UNL     1       5.858   6.545  17.895  0.00  0.00    +0.000 A 
ATOM      5  C   UNL     1       4.708   7.252  17.527  0.00  0.00    +0.000 A 
ATOM      6  C   UNL     1       3.474   6.932  18.113  0.00  0.00    +0.000 A 
ATOM      7 CL   UNL     1       2.087   7.844  17.627  0.00  0.00    +0.000 Cl
ENDROOT
BRANCH   4   8
ATOM      8  C   UNL     1       7.202   6.797  17.315  0.00  0.00    +0.000 C 
ATOM      9  O   UNL     1       7.551   6.213  16.294  0.00  0.00    +0.000 OA
BRANCH   8  10
ATOM     10  C   UNL     1       8.057   7.817  17.962  0.00  0.00    +0.000 C 
ATOM     11  C   UNL     1       7.886   9.113  17.666  0.00  0.00    +0.000 C 
BRANCH  11  12
ATOM     12  C   UNL     1       8.703  10.066  18.313  0.00  0.00    +0.000 A 
ATOM     13  N   UNL     1       9.068  11.274  17.932  0.00  0.00    +0.000 NA
ATOM     14  C   UNL     1       9.860  11.764  18.935  0.00  0.00    +0.000 A 
ATOM     15  C   UNL     1       9.986  10.842  19.945  0.00  0.00    +0.000 A 
ATOM     16  N   UNL     1       9.246   9.765  19.539  0.00  0.00    +0.000 N 
ATOM     17  H   UNL     1       9.121   8.900  20.046  0.00  0.00    +0.000 HD
ENDBRANCH  11  12
ENDBRANCH   8  10
ENDBRANCH   4   8
BRANCH   1  18
ATOM     18  O   UNL     1       2.129   5.622  19.589  0.00  0.00    +0.000 OA
BRANCH  18  19
ATOM     19  C   UNL     1       1.616   4.320  19.282  0.00  0.00    +0.000 C 
BRANCH  19  20
ATOM     20  C   UNL     1       1.456   4.134  17.776  0.00  0.00    +0.000 C 
BRANCH  20  21
ATOM     21  C   UNL     1       2.382   3.070  17.192  0.00  0.00    +0.000 C 
BRANCH  21  23
ATOM     22  O   UNL     1       2.139   1.431  18.960  0.00  0.00    +0.000 OA
ATOM     23  C   UNL     1       2.867   2.094  18.238  0.00  0.00    +0.000 C 
BRANCH  23  24
ATOM     24  O   UNL     1       4.214   1.983  18.277  0.00  0.00    +0.000 OA
ATOM     25  H   UNL     1       4.652   2.199  17.431  0.00  0.00    +0.000 HD
ENDBRANCH  23  24
ENDBRANCH  21  23
ENDBRANCH  20  21
ENDBRANCH  19  20
ENDBRANCH  18  19
ENDBRANCH   1  18
TORSDOF 9
ENDMDL
MODEL 6
REMARK VINA RESULT:      -6.8      1.376      1.697
REMARK  Name = 
REMARK  9 active torsions:
REMARK  status: ('A' for Active; 'I' for Inactive)
REMARK    1  A    between atoms: C_2  and  O_3
REMARK    2  A    between atoms: C_2  and  C_4
REMARK    3  A    between atoms: C_4  and  C_5
REMARK    4  A    between atoms: C_5  and  C_6
REMARK    5  A    between atoms: C_6  and  O_7
REMARK    6  A    between atoms: O_7  and  C_8
REMARK    7  A    between atoms: C_11  and  C_12
REMARK    8  A    between atoms: C_12  and  C_14
REMARK    9  A    between atoms: C_15  and  C_16
REMARK                            x       y       z     vdW  Elec       q    Type
REMARK                         _______ _______ _______ _____ _____    ______ ____
ROOT
ATOM      1  C   UNL     1       3.464   5.777  18.788  0.00  0.00    +0.000 A 
ATOM      2  C   UNL     1       4.632   5.076  19.113  0.00  0.00    +0.000 A 
ATOM      3  C   UNL     1       5.866   5.465  18.597  0.00  0.00    +0.000 A 
ATOM      4  C   UNL     1       5.963   6.557  17.733  0.00  0.00    +0.000 A 
ATOM      5  C   UNL     1       4.812   7.286  17.415  0.00  0.00    +0.000 A 
ATOM      6  C   UNL     1       3.571   6.895  17.941  0.00  0.00    +0.000 A 
ATOM      7 CL   UNL     1       2.182   7.837  17.521  0.00  0.00    +0.000 Cl
ENDROOT
BRANCH   4   8
ATOM      8  C   UNL     1       7.315   6.881  17.209  0.00  0.00    +0.000 C 
ATOM      9  O   UNL     1       7.685   6.420  16.134  0.00  0.00    +0.000 OA
BRANCH   8  10
ATOM     10  C   UNL     1       8.153   7.823  17.984  0.00  0.00    +0.000 C 
ATOM     11  C   UNL     1       8.063   9.140  17.749  0.00  0.00    +0.000 C 
BRANCH  11  12
ATOM     12  C   UNL     1       8.860  10.017  18.517  0.00  0.00    +0.000 A 
ATOM     13  N   UNL     1       9.030  10.092  19.822  0.00  0.00    +0.000 NA
ATOM     14  C   UNL     1       9.910  11.119  20.031  0.00  0.00    +0.000 A 
ATOM     15  C   UNL     1      10.284  11.686  18.837  0.00  0.00    +0.000 A 
ATOM     16  N   UNL     1       9.610  10.976  17.880  0.00  0.00    +0.000 N 
ATOM     17  H   UNL     1       9.652  11.129  16.882  0.00  0.00    +0.000 HD
ENDBRANCH  11  12
ENDBRANCH   8  10
ENDBRANCH   4   8
BRANCH   1  18
ATOM     18  O   UNL     1       2.215   5.428  19.249  0.00  0.00    +0.000 OA
BRANCH  18  19
ATOM     19  C   UNL     1       1.441   4.602  18.372  0.00  0.00    +0.000 C 
BRANCH  19  20
ATOM     20  C   UNL     1       1.549   3.131  18.765  0.00  0.00    +0.000 C 
BRANCH  20  21
ATOM     21  C   UNL     1       1.165   2.859  20.217  0.00  0.00    +0.000 C 
BRANCH  21  23
ATOM     22  O   UNL     1       3.465   2.323  20.756  0.00  0.00    +0.000 OA
ATOM     23  C   UNL     1       2.371   2.730  21.116  0.00  0.00    +0.000 C 
BRANCH  23  24
ATOM     24  O   UNL     1       2.141   3.157  22.377  0.00  0.00    +0.000 OA
ATOM     25  H   UNL     1       2.737   3.876  22.665  0.00  0.00    +0.000 HD
ENDBRANCH  23  24
ENDBRANCH  21  23
ENDBRANCH  20  21
ENDBRANCH  19  20
ENDBRANCH  18  19
ENDBRANCH   1  18
TORSDOF 9
ENDMDL
MODEL 7
REMARK VINA RESULT:      -6.8      4.014      5.549
REMARK  Name = 
REMARK  9 active torsions:
REMARK  status: ('A' for Active; 'I' for Inactive)
REMARK    1  A    between atoms: C_2  and  O_3
REMARK    2  A    between atoms: C_2  and  C_4
REMARK    3  A    between atoms: C_4  and  C_5
REMARK    4  A    between atoms: C_5  and  C_6
REMARK    5  A    between atoms: C_6  and  O_7
REMARK    6  A    between atoms: O_7  and  C_8
REMARK    7  A    between atoms: C_11  and  C_12
REMARK    8  A    between atoms: C_12  and  C_14
REMARK    9  A    between atoms: C_15  and  C_16
REMARK                            x       y       z     vdW  Elec       q    Type
REMARK                         _______ _______ _______ _____ _____    ______ ____
ROOT
ATOM      1  C   UNL     1       3.125   5.416  17.872  0.00  0.00    +0.000 A 
ATOM      2  C   UNL     1       3.638   4.168  17.496  0.00  0.00    +0.000 A 
ATOM      3  C   UNL     1       4.723   4.073  16.628  0.00  0.00    +0.000 A 
ATOM      4  C   UNL     1       5.316   5.222  16.103  0.00  0.00    +0.000 A 
ATOM      5  C   UNL     1       4.834   6.479  16.484  0.00  0.00    +0.000 A 
ATOM      6  C   UNL     1       3.744   6.572  17.363  0.00  0.00    +0.000 A 
ATOM      7 CL   UNL     1       3.196   8.151  17.807  0.00  0.00    +0.000 Cl
ENDROOT
BRANCH   4   8
ATOM      8  C   UNL     1       6.448   5.024  15.162  0.00  0.00    +0.000 C 
ATOM      9  O   UNL     1       7.413   5.781  15.192  0.00  0.00    +0.000 OA
BRANCH   8  10
ATOM     10  C   UNL     1       6.401   3.854  14.256  0.00  0.00    +0.000 C 
ATOM     11  C   UNL     1       6.339   4.043  12.930  0.00  0.00    +0.000 C 
BRANCH  11  12
ATOM     12  C   UNL     1       6.314   2.909  12.088  0.00  0.00    +0.000 A 
ATOM     13  N   UNL     1       5.299   2.170  11.685  0.00  0.00    +0.000 NA
ATOM     14  C   UNL     1       5.834   1.200  10.881  0.00  0.00    +0.000 A 
ATOM     15  C   UNL     1       7.197   1.343  10.792  0.00  0.00    +0.000 A 
ATOM     16  N   UNL     1       7.492   2.434  11.564  0.00  0.00    +0.000 N 
ATOM     17  H   UNL     1       8.411   2.822  11.725  0.00  0.00    +0.000 HD
ENDBRANCH  11  12
ENDBRANCH   8  10
ENDBRANCH   4   8
BRANCH   1  18
ATOM     18  O   UNL     1       2.043   5.572  18.708  0.00  0.00    +0.000 OA
BRANCH  18  19
ATOM     19  C   UNL     1       2.349   5.677  20.103  0.00  0.00    +0.000 C 
BRANCH  19  20
ATOM     20  C   UNL     1       1.316   4.939  20.949  0.00  0.00    +0.000 C 
BRANCH  20  21
ATOM     21  C   UNL     1       1.060   3.506  20.487  0.00  0.00    +0.000 C 
BRANCH  21  23
ATOM     22  O   UNL     1       2.861   2.012  19.859  0.00  0.00    +0.000 OA
ATOM     23  C   UNL     1       2.246   2.604  20.732  0.00  0.00    +0.000 C 
BRANCH  23  24
ATOM     24  O   UNL     1       2.606   2.543  22.034  0.00  0.00    +0.000 OA
ATOM     25  H   UNL     1       3.553   2.345  22.172  0.00  0.00    +0.000 HD
ENDBRANCH  23  24
ENDBRANCH  21  23
ENDBRANCH  20  21
ENDBRANCH  19  20
ENDBRANCH  18  19
ENDBRANCH   1  18
TORSDOF 9
ENDMDL
MODEL 8
REMARK VINA RESULT:      -6.8      3.971      5.567
REMARK  Name = 
REMARK  9 active torsions:
REMARK  status: ('A' for Active; 'I' for Inactive)
REMARK    1  A    between atoms: C_2  and  O_3
REMARK    2  A    between atoms: C_2  and  C_4
REMARK    3  A    between atoms: C_4  and  C_5
REMARK    4  A    between atoms: C_5  and  C_6
REMARK    5  A    between atoms: C_6  and  O_7
REMARK    6  A    between atoms: O_7  and  C_8
REMARK    7  A    between atoms: C_11  and  C_12
REMARK    8  A    between atoms: C_12  and  C_14
REMARK    9  A    between atoms: C_15  and  C_16
REMARK                            x       y       z     vdW  Elec       q    Type
REMARK                         _______ _______ _______ _____ _____    ______ ____
ROOT
ATOM      1  C   UNL     1       2.984   5.779  17.860  0.00  0.00    +0.000 A 
ATOM      2  C   UNL     1       3.889   6.790  17.514  0.00  0.00    +0.000 A 
ATOM      3  C   UNL     1       4.996   6.516  16.715  0.00  0.00    +0.000 A 
ATOM      4  C   UNL     1       5.235   5.222  16.251  0.00  0.00    +0.000 A 
ATOM      5  C   UNL     1       4.331   4.201  16.566  0.00  0.00    +0.000 A 
ATOM      6  C   UNL     1       3.213   4.482  17.366  0.00  0.00    +0.000 A 
ATOM      7 CL   UNL     1       2.123   3.184  17.716  0.00  0.00    +0.000 Cl
ENDROOT
BRANCH   4   8
ATOM      8  C   UNL     1       6.456   5.017  15.430  0.00  0.00    +0.000 C 
ATOM      9  O   UNL     1       7.441   5.728  15.603  0.00  0.00    +0.000 OA
BRANCH   8  10
ATOM     10  C   UNL     1       6.463   3.894  14.465  0.00  0.00    +0.000 C 
ATOM     11  C   UNL     1       6.240   4.134  13.165  0.00  0.00    +0.000 C 
BRANCH  11  12
ATOM     12  C   UNL     1       6.271   3.047  12.265  0.00  0.00    +0.000 A 
ATOM     13  N   UNL     1       5.289   2.313  11.780  0.00  0.00    +0.000 NA
ATOM     14  C   UNL     1       5.875   1.396  10.949  0.00  0.00    +0.000 A 
ATOM     15  C   UNL     1       7.238   1.567  10.926  0.00  0.00    +0.000 A 
ATOM     16  N   UNL     1       7.479   2.620  11.766  0.00  0.00    +0.000 N 
ATOM     17  H   UNL     1       8.383   3.015  11.986  0.00  0.00    +0.000 HD
ENDBRANCH  11  12
ENDBRANCH   8  10
ENDBRANCH   4   8
BRANCH   1  18
ATOM     18  O   UNL     1       1.885   5.984  18.664  0.00  0.00    +0.000 OA
BRANCH  18  19
ATOM     19  C   UNL     1       2.164   6.483  19.976  0.00  0.00    +0.000 C 
BRANCH  19  20
ATOM     20  C   UNL     1       2.554   5.352  20.923  0.00  0.00    +0.000 C 
BRANCH  20  21
ATOM     21  C   UNL     1       1.536   4.215  20.967  0.00  0.00    +0.000 C 
BRANCH  21  23
ATOM     22  O   UNL     1       3.245   2.502  21.083  0.00  0.00    +0.000 OA
ATOM     23  C   UNL     1       2.148   2.913  21.427  0.00  0.00    +0.000 C 
BRANCH  23  24
ATOM     24  O   UNL     1       1.374   2.247  22.312  0.00  0.00    +0.000 OA
ATOM     25  H   UNL     1       1.870   1.866  23.062  0.00  0.00    +0.000 HD
ENDBRANCH  23  24
ENDBRANCH  21  23
ENDBRANCH  20  21
ENDBRANCH  19  20
ENDBRANCH  18  19
ENDBRANCH   1  18
TORSDOF 9
ENDMDL
MODEL 9
REMARK VINA RESULT:      -6.7      3.805      5.195
REMARK  Name = 
REMARK  9 active torsions:
REMARK  status: ('A' for Active; 'I' for Inactive)
REMARK    1  A    between atoms: C_2  and  O_3
REMARK    2  A    between atoms: C_2  and  C_4
REMARK    3  A    between atoms: C_4  and  C_5
REMARK    4  A    between atoms: C_5  and  C_6
REMARK    5  A    between atoms: C_6  and  O_7
REMARK    6  A    between atoms: O_7  and  C_8
REMARK    7  A    between atoms: C_11  and  C_12
REMARK    8  A    between atoms: C_12  and  C_14
REMARK    9  A    between atoms: C_15  and  C_16
REMARK                            x       y       z     vdW  Elec       q    Type
REMARK                         _______ _______ _______ _____ _____    ______ ____
ROOT
ATOM      1  C   UNL     1       3.250   6.309  18.927  0.00  0.00    +0.000 A 
ATOM      2  C   UNL     1       4.173   5.256  18.960  0.00  0.00    +0.000 A 
ATOM      3  C   UNL     1       5.144   5.125  17.971  0.00  0.00    +0.000 A 
ATOM      4  C   UNL     1       5.212   6.036  16.916  0.00  0.00    +0.000 A 
ATOM      5  C   UNL     1       4.314   7.109  16.877  0.00  0.00    +0.000 A 
ATOM      6  C   UNL     1       3.340   7.241  17.878  0.00  0.00    +0.000 A 
ATOM      7 CL   UNL     1       2.262   8.591  17.784  0.00  0.00    +0.000 Cl
ENDROOT
BRANCH   4   8
ATOM      8  C   UNL     1       6.261   5.801  15.891  0.00  0.00    +0.000 C 
ATOM      9  O   UNL     1       7.439   6.019  16.155  0.00  0.00    +0.000 OA
BRANCH   8  10
ATOM     10  C   UNL     1       5.845   5.233  14.589  0.00  0.00    +0.000 C 
ATOM     11  C   UNL     1       6.117   3.952  14.305  0.00  0.00    +0.000 C 
BRANCH  11  12
ATOM     12  C   UNL     1       5.691   3.432  13.063  0.00  0.00    +0.000 A 
ATOM     13  N   UNL     1       4.583   3.650  12.383  0.00  0.00    +0.000 NA
ATOM     14  C   UNL     1       4.682   2.896  11.245  0.00  0.00    +0.000 A 
ATOM     15  C   UNL     1       5.867   2.201  11.228  0.00  0.00    +0.000 A 
ATOM     16  N   UNL     1       6.502   2.551  12.389  0.00  0.00    +0.000 N 
ATOM     17  H   UNL     1       7.404   2.219  12.701  0.00  0.00    +0.000 HD
ENDBRANCH  11  12
ENDBRANCH   8  10
ENDBRANCH   4   8
BRANCH   1  18
ATOM     18  O   UNL     1       2.255   6.478  19.863  0.00  0.00    +0.000 OA
BRANCH  18  19
ATOM     19  C   UNL     1       2.102   5.407  20.802  0.00  0.00    +0.000 C 
BRANCH  19  20
ATOM     20  C   UNL     1       0.920   4.515  20.430  0.00  0.00    +0.000 C 
BRANCH  20  21
ATOM     21  C   UNL     1       1.305   3.054  20.213  0.00  0.00    +0.000 C 
BRANCH  21  23
ATOM     22  O   UNL     1       2.489   2.537  22.262  0.00  0.00    +0.000 OA
ATOM     23  C   UNL     1       2.496   2.644  21.046  0.00  0.00    +0.000 C 
BRANCH  23  24
ATOM     24  O   UNL     1       3.588   2.354  20.304  0.00  0.00    +0.000 OA
ATOM     25  H   UNL     1       3.492   1.550  19.758  0.00  0.00    +0.000 HD
ENDBRANCH  23  24
ENDBRANCH  21  23
ENDBRANCH  20  21
ENDBRANCH  19  20
ENDBRANCH  18  19
ENDBRANCH   1  18
TORSDOF 9
ENDMDL
