MODEL 1
REMARK VINA RESULT:      -6.3      0.000      0.000
REMARK  Name = 
REMARK  4 active torsions:
REMARK  status: ('A' for Active; 'I' for Inactive)
REMARK    1  A    between atoms: C_2  and  C_3
REMARK    2  A    between atoms: C_6  and  O_7
REMARK    3  A    between atoms: O_7  and  S_8
REMARK    4  A    between atoms: S_8  and  C_11
REMARK                            x       y       z     vdW  Elec       q    Type
REMARK                         _______ _______ _______ _____ _____    ______ ____
ROOT
ATOM      1  O   UNL     1       4.283   6.036  18.723  0.00  0.00    +0.000 OA
ENDROOT
BRANCH   1   5
ATOM      2  C   UNL     1       5.632   4.527  15.040  0.00  0.00    +0.000 A 
ATOM      3  C   UNL     1       5.451   5.900  15.245  0.00  0.00    +0.000 A 
ATOM      4  C   UNL     1       5.008   6.380  16.488  0.00  0.00    +0.000 A 
ATOM      5  C   UNL     1       4.731   5.493  17.534  0.00  0.00    +0.000 A 
ATOM      6  C   UNL     1       4.931   4.123  17.325  0.00  0.00    +0.000 A 
ATOM      7  C   UNL     1       5.370   3.642  16.087  0.00  0.00    +0.000 A 
BRANCH   2   9
ATOM      8  N   UNL     1       6.445   3.624  12.745  0.00  0.00    +0.000 NA
ATOM      9  C   UNL     1       6.083   4.028  13.773  0.00  0.00    +0.000 C 
ENDBRANCH   2   9
ENDBRANCH   1   5
BRANCH   1  10
ATOM     10  S   UNL     1       2.673   6.110  19.011  0.00  0.00    +0.000 S 
ATOM     11  O   UNL     1       2.399   7.176  19.954  0.00  0.00    +0.000 OA
ATOM     12  O   UNL     1       1.943   5.985  17.765  0.00  0.00    +0.000 OA
BRANCH  10  13
ATOM     13  C   UNL     1       2.225   4.630  19.895  0.00  0.00    +0.000 A 
ATOM     14  C   UNL     1       2.292   4.390  21.257  0.00  0.00    +0.000 A 
ATOM     15  C   UNL     1       1.824   3.099  21.616  0.00  0.00    +0.000 A 
ATOM     16  C   UNL     1       1.406   2.389  20.509  0.00  0.00    +0.000 A 
ATOM     17  S   UNL     1       1.587   3.293  19.056  0.00  0.00    +0.000 S 
ENDBRANCH  10  13
ENDBRANCH   1  10
TORSDOF 4
ENDMDL
MODEL 2
REMARK VINA RESULT:      -6.1      0.823      1.623
REMARK  Name = 
REMARK  4 active torsions:
REMARK  status: ('A' for Active; 'I' for Inactive)
REMARK    1  A    between atoms: C_2  and  C_3
REMARK    2  A    between atoms: C_6  and  O_7
REMARK    3  A    between atoms: O_7  and  S_8
REMARK    4  A    between atoms: S_8  and  C_11
REMARK                            x       y       z     vdW  Elec       q    Type
REMARK                         _______ _______ _______ _____ _____    ______ ____
ROOT
ATOM      1  O   UNL     1       4.243   6.192  18.804  0.00  0.00    +0.000 OA
ENDROOT
BRANCH   1   5
ATOM      2  C   UNL     1       5.571   4.638  15.131  0.00  0.00    +0.000 A 
ATOM      3  C   UNL     1       5.310   3.805  16.226  0.00  0.00    +0.000 A 
ATOM      4  C   UNL     1       4.859   4.348  17.440  0.00  0.00    +0.000 A 
ATOM      5  C   UNL     1       4.673   5.728  17.575  0.00  0.00    +0.000 A 
ATOM      6  C   UNL     1       4.919   6.551  16.470  0.00  0.00    +0.000 A 
ATOM      7  C   UNL     1       5.372   6.014  15.260  0.00  0.00    +0.000 A 
BRANCH   2   9
ATOM      8  N   UNL     1       6.412   3.652  12.881  0.00  0.00    +0.000 NA
ATOM      9  C   UNL     1       6.034   4.093  13.888  0.00  0.00    +0.000 C 
ENDBRANCH   2   9
ENDBRANCH   1   5
BRANCH   1  10
ATOM     10  S   UNL     1       2.638   6.376  19.071  0.00  0.00    +0.000 S 
ATOM     11  O   UNL     1       2.434   7.110  20.303  0.00  0.00    +0.000 OA
ATOM     12  O   UNL     1       1.973   6.750  17.839  0.00  0.00    +0.000 OA
BRANCH  10  13
ATOM     13  C   UNL     1       1.971   4.762  19.418  0.00  0.00    +0.000 A 
ATOM     14  C   UNL     1       1.387   3.866  18.537  0.00  0.00    +0.000 A 
ATOM     15  C   UNL     1       0.990   2.654  19.161  0.00  0.00    +0.000 A 
ATOM     16  C   UNL     1       1.289   2.659  20.508  0.00  0.00    +0.000 A 
ATOM     17  S   UNL     1       2.044   4.126  20.996  0.00  0.00    +0.000 S 
ENDBRANCH  10  13
ENDBRANCH   1  10
TORSDOF 4
ENDMDL
MODEL 3
REMARK VINA RESULT:      -6.1      3.912      5.909
REMARK  Name = 
REMARK  4 active torsions:
REMARK  status: ('A' for Active; 'I' for Inactive)
REMARK    1  A    between atoms: C_2  and  C_3
REMARK    2  A    between atoms: C_6  and  O_7
REMARK    3  A    between atoms: O_7  and  S_8
REMARK    4  A    between atoms: S_8  and  C_11
REMARK                            x       y       z     vdW  Elec       q    Type
REMARK                         _______ _______ _______ _____ _____    ______ ____
ROOT
ATOM      1  O   UNL     1       4.398   4.906  16.019  0.00  0.00    +0.000 OA
ENDROOT
BRANCH   1   5
ATOM      2  C   UNL     1       3.109   3.585  19.796  0.00  0.00    +0.000 A 
ATOM      3  C   UNL     1       3.127   4.946  19.464  0.00  0.00    +0.000 A 
ATOM      4  C   UNL     1       3.553   5.361  18.192  0.00  0.00    +0.000 A 
ATOM      5  C   UNL     1       3.976   4.423  17.244  0.00  0.00    +0.000 A 
ATOM      6  C   UNL     1       3.939   3.064  17.578  0.00  0.00    +0.000 A 
ATOM      7  C   UNL     1       3.517   2.648  18.846  0.00  0.00    +0.000 A 
BRANCH   2   9
ATOM      8  N   UNL     1       2.326   2.805  22.145  0.00  0.00    +0.000 NA
ATOM      9  C   UNL     1       2.676   3.153  21.093  0.00  0.00    +0.000 C 
ENDBRANCH   2   9
ENDBRANCH   1   5
BRANCH   1  10
ATOM     10  S   UNL     1       5.994   4.869  15.653  0.00  0.00    +0.000 S 
ATOM     11  O   UNL     1       6.430   3.493  15.533  0.00  0.00    +0.000 OA
ATOM     12  O   UNL     1       6.289   5.856  14.633  0.00  0.00    +0.000 OA
BRANCH  10  13
ATOM     13  C   UNL     1       6.877   5.477  17.074  0.00  0.00    +0.000 A 
ATOM     14  C   UNL     1       7.426   4.752  18.119  0.00  0.00    +0.000 A 
ATOM     15  C   UNL     1       8.087   5.569  19.074  0.00  0.00    +0.000 A 
ATOM     16  C   UNL     1       8.026   6.902  18.724  0.00  0.00    +0.000 A 
ATOM     17  S   UNL     1       7.172   7.145  17.251  0.00  0.00    +0.000 S 
ENDBRANCH  10  13
ENDBRANCH   1  10
TORSDOF 4
ENDMDL
MODEL 4
REMARK VINA RESULT:      -6.1      3.965      6.196
REMARK  Name = 
REMARK  4 active torsions:
REMARK  status: ('A' for Active; 'I' for Inactive)
REMARK    1  A    between atoms: C_2  and  C_3
REMARK    2  A    between atoms: C_6  and  O_7
REMARK    3  A    between atoms: O_7  and  S_8
REMARK    4  A    between atoms: S_8  and  C_11
REMARK                            x       y       z     vdW  Elec       q    Type
REMARK                         _______ _______ _______ _____ _____    ______ ____
ROOT
ATOM      1  O   UNL     1       3.235   4.605  18.899  0.00  0.00    +0.000 OA
ENDROOT
BRANCH   1   5
ATOM      2  C   UNL     1       1.597   8.398  19.670  0.00  0.00    +0.000 A 
ATOM      3  C   UNL     1       2.202   8.099  18.443  0.00  0.00    +0.000 A 
ATOM      4  C   UNL     1       2.734   6.821  18.207  0.00  0.00    +0.000 A 
ATOM      5  C   UNL     1       2.676   5.834  19.196  0.00  0.00    +0.000 A 
ATOM      6  C   UNL     1       2.054   6.137  20.413  0.00  0.00    +0.000 A 
ATOM      7  C   UNL     1       1.525   7.410  20.652  0.00  0.00    +0.000 A 
BRANCH   2   9
ATOM      8  N   UNL     1       0.613  10.758  20.124  0.00  0.00    +0.000 NA
ATOM      9  C   UNL     1       1.052   9.701  19.920  0.00  0.00    +0.000 C 
ENDBRANCH   2   9
ENDBRANCH   1   5
BRANCH   1  10
ATOM     10  S   UNL     1       4.855   4.409  19.040  0.00  0.00    +0.000 S 
ATOM     11  O   UNL     1       5.433   5.590  19.647  0.00  0.00    +0.000 OA
ATOM     12  O   UNL     1       5.149   3.076  19.528  0.00  0.00    +0.000 OA
BRANCH  10  13
ATOM     13  C   UNL     1       5.531   4.397  17.393  0.00  0.00    +0.000 A 
ATOM     14  C   UNL     1       4.867   4.200  16.193  0.00  0.00    +0.000 A 
ATOM     15  C   UNL     1       5.725   4.283  15.065  0.00  0.00    +0.000 A 
ATOM     16  C   UNL     1       7.026   4.548  15.440  0.00  0.00    +0.000 A 
ATOM     17  S   UNL     1       7.190   4.690  17.147  0.00  0.00    +0.000 S 
ENDBRANCH  10  13
ENDBRANCH   1  10
TORSDOF 4
ENDMDL
MODEL 5
REMARK VINA RESULT:      -6.1      3.780      5.966
REMARK  Name = 
REMARK  4 active torsions:
REMARK  status: ('A' for Active; 'I' for Inactive)
REMARK    1  A    between atoms: C_2  and  C_3
REMARK    2  A    between atoms: C_6  and  O_7
REMARK    3  A    between atoms: O_7  and  S_8
REMARK    4  A    between atoms: S_8  and  C_11
REMARK                            x       y       z     vdW  Elec       q    Type
REMARK                         _______ _______ _______ _____ _____    ______ ____
ROOT
ATOM      1  O   UNL     1       3.805   5.734  16.776  0.00  0.00    +0.000 OA
ENDROOT
BRANCH   1   5
ATOM      2  C   UNL     1       2.255   3.701  20.113  0.00  0.00    +0.000 A 
ATOM      3  C   UNL     1       3.038   4.852  20.257  0.00  0.00    +0.000 A 
ATOM      4  C   UNL     1       3.537   5.519  19.126  0.00  0.00    +0.000 A 
ATOM      5  C   UNL     1       3.267   5.036  17.842  0.00  0.00    +0.000 A 
ATOM      6  C   UNL     1       2.469   3.894  17.706  0.00  0.00    +0.000 A 
ATOM      7  C   UNL     1       1.973   3.227  18.831  0.00  0.00    +0.000 A 
BRANCH   2   9
ATOM      8  N   UNL     1       1.331   2.454  22.195  0.00  0.00    +0.000 NA
ATOM      9  C   UNL     1       1.743   3.013  21.262  0.00  0.00    +0.000 C 
ENDBRANCH   2   9
ENDBRANCH   1   5
BRANCH   1  10
ATOM     10  S   UNL     1       5.268   5.293  16.189  0.00  0.00    +0.000 S 
ATOM     11  O   UNL     1       5.367   3.848  16.175  0.00  0.00    +0.000 OA
ATOM     12  O   UNL     1       5.595   6.094  15.025  0.00  0.00    +0.000 OA
BRANCH  10  13
ATOM     13  C   UNL     1       6.491   5.795  17.383  0.00  0.00    +0.000 A 
ATOM     14  C   UNL     1       7.055   5.044  18.402  0.00  0.00    +0.000 A 
ATOM     15  C   UNL     1       8.023   5.765  19.149  0.00  0.00    +0.000 A 
ATOM     16  C   UNL     1       8.174   7.050  18.672  0.00  0.00    +0.000 A 
ATOM     17  S   UNL     1       7.143   7.366  17.331  0.00  0.00    +0.000 S 
ENDBRANCH  10  13
ENDBRANCH   1  10
TORSDOF 4
ENDMDL
MODEL 6
REMARK VINA RESULT:      -6.1      3.878      6.010
REMARK  Name = 
REMARK  4 active torsions:
REMARK  status: ('A' for Active; 'I' for Inactive)
REMARK    1  A    between atoms: C_2  and  C_3
REMARK    2  A    between atoms: C_6  and  O_7
REMARK    3  A    between atoms: O_7  and  S_8
REMARK    4  A    between atoms: S_8  and  C_11
REMARK                            x       y       z     vdW  Elec       q    Type
REMARK                         _______ _______ _______ _____ _____    ______ ____
ROOT
ATOM      1  O   UNL     1       4.290   5.215  16.224  0.00  0.00    +0.000 OA
ENDROOT
BRANCH   1   5
ATOM      2  C   UNL     1       2.855   3.747  19.892  0.00  0.00    +0.000 A 
ATOM      3  C   UNL     1       2.963   2.922  18.766  0.00  0.00    +0.000 A 
ATOM      4  C   UNL     1       3.455   3.434  17.555  0.00  0.00    +0.000 A 
ATOM      5  C   UNL     1       3.831   4.777  17.453  0.00  0.00    +0.000 A 
ATOM      6  C   UNL     1       3.735   5.591  18.588  0.00  0.00    +0.000 A 
ATOM      7  C   UNL     1       3.244   5.084  19.796  0.00  0.00    +0.000 A 
BRANCH   2   9
ATOM      8  N   UNL     1       1.948   2.815  22.140  0.00  0.00    +0.000 NA
ATOM      9  C   UNL     1       2.353   3.233  21.133  0.00  0.00    +0.000 C 
ENDBRANCH   2   9
ENDBRANCH   1   5
BRANCH   1  10
ATOM     10  S   UNL     1       5.864   4.992  15.833  0.00  0.00    +0.000 S 
ATOM     11  O   UNL     1       6.156   3.574  15.794  0.00  0.00    +0.000 OA
ATOM     12  O   UNL     1       6.233   5.880  14.748  0.00  0.00    +0.000 OA
BRANCH  10  13
ATOM     13  C   UNL     1       6.838   5.592  17.198  0.00  0.00    +0.000 A 
ATOM     14  C   UNL     1       7.377   4.871  18.251  0.00  0.00    +0.000 A 
ATOM     15  C   UNL     1       8.125   5.678  19.149  0.00  0.00    +0.000 A 
ATOM     16  C   UNL     1       8.138   6.998  18.749  0.00  0.00    +0.000 A 
ATOM     17  S   UNL     1       7.248   7.242  17.297  0.00  0.00    +0.000 S 
ENDBRANCH  10  13
ENDBRANCH   1  10
TORSDOF 4
ENDMDL
MODEL 7
REMARK VINA RESULT:      -6.0      3.736      6.556
REMARK  Name = 
REMARK  4 active torsions:
REMARK  status: ('A' for Active; 'I' for Inactive)
REMARK    1  A    between atoms: C_2  and  C_3
REMARK    2  A    between atoms: C_6  and  O_7
REMARK    3  A    between atoms: O_7  and  S_8
REMARK    4  A    between atoms: S_8  and  C_11
REMARK                            x       y       z     vdW  Elec       q    Type
REMARK                         _______ _______ _______ _____ _____    ______ ____
ROOT
ATOM      1  O   UNL     1       5.115   5.897  16.484  0.00  0.00    +0.000 OA
ENDROOT
BRANCH   1   5
ATOM      2  C   UNL     1       2.739   3.997  19.385  0.00  0.00    +0.000 A 
ATOM      3  C   UNL     1       2.774   3.547  18.059  0.00  0.00    +0.000 A 
ATOM      4  C   UNL     1       3.583   4.193  17.111  0.00  0.00    +0.000 A 
ATOM      5  C   UNL     1       4.356   5.301  17.474  0.00  0.00    +0.000 A 
ATOM      6  C   UNL     1       4.329   5.733  18.806  0.00  0.00    +0.000 A 
ATOM      7  C   UNL     1       3.522   5.092  19.752  0.00  0.00    +0.000 A 
BRANCH   2   9
ATOM      8  N   UNL     1       1.244   2.816  21.149  0.00  0.00    +0.000 NA
ATOM      9  C   UNL     1       1.915   3.344  20.360  0.00  0.00    +0.000 C 
ENDBRANCH   2   9
ENDBRANCH   1   5
BRANCH   1  10
ATOM     10  S   UNL     1       6.617   5.324  16.175  0.00  0.00    +0.000 S 
ATOM     11  O   UNL     1       7.550   6.429  16.102  0.00  0.00    +0.000 OA
ATOM     12  O   UNL     1       6.878   4.156  16.994  0.00  0.00    +0.000 OA
BRANCH  10  13
ATOM     13  C   UNL     1       6.602   4.665  14.521  0.00  0.00    +0.000 A 
ATOM     14  C   UNL     1       5.707   3.766  13.963  0.00  0.00    +0.000 A 
ATOM     15  C   UNL     1       5.986   3.481  12.600  0.00  0.00    +0.000 A 
ATOM     16  C   UNL     1       7.089   4.179  12.155  0.00  0.00    +0.000 A 
ATOM     17  S   UNL     1       7.771   5.165  13.389  0.00  0.00    +0.000 S 
ENDBRANCH  10  13
ENDBRANCH   1  10
TORSDOF 4
ENDMDL
MODEL 8
REMARK VINA RESULT:      -6.0      3.408      5.623
REMARK  Name = 
REMARK  4 active torsions:
REMARK  status: ('A' for Active; 'I' for Inactive)
REMARK    1  A    between atoms: C_2  and  C_3
REMARK    2  A    between atoms: C_6  and  O_7
REMARK    3  A    between atoms: O_7  and  S_8
REMARK    4  A    between atoms: S_8  and  C_11
REMARK                            x       y       z     vdW  Elec       q    Type
REMARK                         _______ _______ _______ _____ _____    ______ ____
ROOT
ATOM      1  O   UNL     1       6.102   5.688  19.565  0.00  0.00    +0.000 OA
ENDROOT
BRANCH   1   5
ATOM      2  C   UNL     1       2.568   3.525  18.856  0.00  0.00    +0.000 A 
ATOM      3  C   UNL     1       3.776   2.878  19.143  0.00  0.00    +0.000 A 
ATOM      4  C   UNL     1       4.941   3.624  19.386  0.00  0.00    +0.000 A 
ATOM      5  C   UNL     1       4.914   5.021  19.332  0.00  0.00    +0.000 A 
ATOM      6  C   UNL     1       3.698   5.660  19.061  0.00  0.00    +0.000 A 
ATOM      7  C   UNL     1       2.536   4.920  18.817  0.00  0.00    +0.000 A 
BRANCH   2   9
ATOM      8  N   UNL     1       0.404   2.163  18.405  0.00  0.00    +0.000 NA
ATOM      9  C   UNL     1       1.374   2.772  18.606  0.00  0.00    +0.000 C 
ENDBRANCH   2   9
ENDBRANCH   1   5
BRANCH   1  10
ATOM     10  S   UNL     1       7.285   5.629  18.435  0.00  0.00    +0.000 S 
ATOM     11  O   UNL     1       7.855   6.950  18.263  0.00  0.00    +0.000 OA
ATOM     12  O   UNL     1       8.115   4.460  18.649  0.00  0.00    +0.000 OA
BRANCH  10  13
ATOM     13  C   UNL     1       6.505   5.292  16.870  0.00  0.00    +0.000 A 
ATOM     14  C   UNL     1       6.526   4.117  16.136  0.00  0.00    +0.000 A 
ATOM     15  C   UNL     1       5.766   4.198  14.939  0.00  0.00    +0.000 A 
ATOM     16  C   UNL     1       5.182   5.439  14.797  0.00  0.00    +0.000 A 
ATOM     17  S   UNL     1       5.559   6.486  16.109  0.00  0.00    +0.000 S 
ENDBRANCH  10  13
ENDBRANCH   1  10
TORSDOF 4
ENDMDL
MODEL 9
REMARK VINA RESULT:      -6.0      3.053      3.765
REMARK  Name = 
REMARK  4 active torsions:
REMARK  status: ('A' for Active; 'I' for Inactive)
REMARK    1  A    between atoms: C_2  and  C_3
REMARK    2  A    between atoms: C_6  and  O_7
REMARK    3  A    between atoms: O_7  and  S_8
REMARK    4  A    between atoms: S_8  and  C_11
REMARK                            x       y       z     vdW  Elec       q    Type
REMARK                         _______ _______ _______ _____ _____    ______ ____
ROOT
ATOM      1  O   UNL     1       4.579   3.346  17.389  0.00  0.00    +0.000 OA
ENDROOT
BRANCH   1   5
ATOM      2  C   UNL     1       6.858   6.872  17.580  0.00  0.00    +0.000 A 
ATOM      3  C   UNL     1       7.427   5.619  17.840  0.00  0.00    +0.000 A 
ATOM      4  C   UNL     1       6.646   4.454  17.761  0.00  0.00    +0.000 A 
ATOM      5  C   UNL     1       5.289   4.531  17.431  0.00  0.00    +0.000 A 
ATOM      6  C   UNL     1       4.733   5.786  17.156  0.00  0.00    +0.000 A 
ATOM      7  C   UNL     1       5.508   6.948  17.236  0.00  0.00    +0.000 A 
BRANCH   2   9
ATOM      8  N   UNL     1       8.289   9.035  17.728  0.00  0.00    +0.000 NA
ATOM      9  C   UNL     1       7.648   8.067  17.660  0.00  0.00    +0.000 C 
ENDBRANCH   2   9
ENDBRANCH   1   5
BRANCH   1  10
ATOM     10  S   UNL     1       4.170   2.609  18.792  0.00  0.00    +0.000 S 
ATOM     11  O   UNL     1       3.532   1.340  18.503  0.00  0.00    +0.000 OA
ATOM     12  O   UNL     1       5.258   2.719  19.743  0.00  0.00    +0.000 OA
BRANCH  10  13
ATOM     13  C   UNL     1       2.877   3.578  19.541  0.00  0.00    +0.000 A 
ATOM     14  C   UNL     1       2.980   4.809  20.169  0.00  0.00    +0.000 A 
ATOM     15  C   UNL     1       1.731   5.303  20.628  0.00  0.00    +0.000 A 
ATOM     16  C   UNL     1       0.704   4.431  20.330  0.00  0.00    +0.000 A 
ATOM     17  S   UNL     1       1.265   3.031  19.502  0.00  0.00    +0.000 S 
ENDBRANCH  10  13
ENDBRANCH   1  10
TORSDOF 4
ENDMDL
