MODEL 1
REMARK VINA RESULT:      -8.4      0.000      0.000
REMARK  Name = 
REMARK  7 active torsions:
REMARK  status: ('A' for Active; 'I' for Inactive)
REMARK    1  A    between atoms: C_4  and  C_5
REMARK    2  A    between atoms: C_5  and  N_6
REMARK    3  A    between atoms: N_6  and  C_7
REMARK    4  A    between atoms: N_6  and  C_14
REMARK    5  A    between atoms: C_7  and  C_8
REMARK    6  A    between atoms: C_14  and  C_15
REMARK    7  A    between atoms: C_18  and  C_19
REMARK                            x       y       z     vdW  Elec       q    Type
REMARK                         _______ _______ _______ _____ _____    ______ ____
ROOT
ATOM      1  N   UNL     1       4.889   4.934  19.416  0.00  0.00    +0.000 NA
ENDROOT
BRANCH   1   2
ATOM      2  C   UNL     1       4.223   5.539  18.228  0.00  0.00    +0.000 C 
BRANCH   2   6
ATOM      3  C   UNL     1       1.635   8.760  19.273  0.00  0.00    +0.000 A 
ATOM      4  C   UNL     1       2.268   8.791  18.036  0.00  0.00    +0.000 A 
ATOM      5  C   UNL     1       3.090   7.730  17.664  0.00  0.00    +0.000 A 
ATOM      6  C   UNL     1       3.266   6.673  18.556  0.00  0.00    +0.000 A 
ATOM      7  N   UNL     1       2.648   6.628  19.763  0.00  0.00    +0.000 NA
ATOM      8  C   UNL     1       1.845   7.663  20.089  0.00  0.00    +0.000 A 
ENDBRANCH   2   6
ENDBRANCH   1   2
BRANCH   1   9
ATOM      9  C   UNL     1       4.588   3.473  19.457  0.00  0.00    +0.000 C 
BRANCH   9  10
ATOM     10  C   UNL     1       3.111   3.149  19.627  0.00  0.00    +0.000 A 
ATOM     11  C   UNL     1       2.350   2.733  18.535  0.00  0.00    +0.000 A 
ATOM     12  C   UNL     1       0.984   2.529  18.708  0.00  0.00    +0.000 A 
ATOM     13  C   UNL     1       0.418   2.730  19.961  0.00  0.00    +0.000 A 
ATOM     14  C   UNL     1       1.245   3.127  20.996  0.00  0.00    +0.000 A 
ATOM     15  N   UNL     1       2.571   3.348  20.857  0.00  0.00    +0.000 NA
ENDBRANCH   9  10
ENDBRANCH   1   9
BRANCH   1  16
ATOM     16  C   UNL     1       6.357   5.116  19.307  0.00  0.00    +0.000 C 
BRANCH  16  17
ATOM     17  C   UNL     1       6.753   5.531  17.929  0.00  0.00    +0.000 A 
ATOM     18  C   UNL     1       7.340   6.695  17.493  0.00  0.00    +0.000 A 
ATOM     19  O   UNL     1       7.493   6.613  16.142  0.00  0.00    +0.000 OA
ATOM     20  C   UNL     1       6.988   5.378  15.808  0.00  0.00    +0.000 A 
ATOM     21  N   UNL     1       6.530   4.704  16.851  0.00  0.00    +0.000 NA
BRANCH  20  22
ATOM     22  C   UNL     1       6.948   4.868  14.469  0.00  0.00    +0.000 A 
ATOM     23  C   UNL     1       6.180   3.821  13.980  0.00  0.00    +0.000 A 
ATOM     24  C   UNL     1       6.474   3.690  12.602  0.00  0.00    +0.000 A 
ATOM     25  C   UNL     1       7.408   4.661  12.322  0.00  0.00    +0.000 A 
ATOM     26  O   UNL     1       7.702   5.374  13.439  0.00  0.00    +0.000 OA
ENDBRANCH  20  22
ENDBRANCH  16  17
ENDBRANCH   1  16
TORSDOF 7
ENDMDL
MODEL 2
REMARK VINA RESULT:      -8.1      1.193      3.946
REMARK  Name = 
REMARK  7 active torsions:
REMARK  status: ('A' for Active; 'I' for Inactive)
REMARK    1  A    between atoms: C_4  and  C_5
REMARK    2  A    between atoms: C_5  and  N_6
REMARK    3  A    between atoms: N_6  and  C_7
REMARK    4  A    between atoms: N_6  and  C_14
REMARK    5  A    between atoms: C_7  and  C_8
REMARK    6  A    between atoms: C_14  and  C_15
REMARK    7  A    between atoms: C_18  and  C_19
REMARK                            x       y       z     vdW  Elec       q    Type
REMARK                         _______ _______ _______ _____ _____    ______ ____
ROOT
ATOM      1  N   UNL     1       3.836   5.446  18.352  0.00  0.00    +0.000 NA
ENDROOT
BRANCH   1   2
ATOM      2  C   UNL     1       3.317   4.061  18.168  0.00  0.00    +0.000 C 
BRANCH   2   6
ATOM      3  C   UNL     1       1.499   2.530  21.706  0.00  0.00    +0.000 A 
ATOM      4  C   UNL     1       0.684   3.088  20.727  0.00  0.00    +0.000 A 
ATOM      5  C   UNL     1       1.258   3.560  19.551  0.00  0.00    +0.000 A 
ATOM      6  C   UNL     1       2.641   3.476  19.397  0.00  0.00    +0.000 A 
ATOM      7  N   UNL     1       3.446   2.928  20.341  0.00  0.00    +0.000 NA
ATOM      8  C   UNL     1       2.860   2.463  21.464  0.00  0.00    +0.000 A 
ENDBRANCH   2   6
ENDBRANCH   1   2
BRANCH   1   9
ATOM      9  C   UNL     1       3.187   6.059  19.548  0.00  0.00    +0.000 C 
BRANCH   9  10
ATOM     10  C   UNL     1       2.434   7.348  19.253  0.00  0.00    +0.000 A 
ATOM     11  C   UNL     1       2.542   7.958  18.004  0.00  0.00    +0.000 A 
ATOM     12  C   UNL     1       1.910   9.181  17.798  0.00  0.00    +0.000 A 
ATOM     13  C   UNL     1       1.180   9.754  18.832  0.00  0.00    +0.000 A 
ATOM     14  C   UNL     1       1.108   9.075  20.036  0.00  0.00    +0.000 A 
ATOM     15  N   UNL     1       1.723   7.895  20.272  0.00  0.00    +0.000 NA
ENDBRANCH   9  10
ENDBRANCH   1   9
BRANCH   1  16
ATOM     16  C   UNL     1       5.302   5.399  18.575  0.00  0.00    +0.000 C 
BRANCH  16  17
ATOM     17  C   UNL     1       6.050   5.482  17.286  0.00  0.00    +0.000 A 
ATOM     18  C   UNL     1       7.130   6.260  16.942  0.00  0.00    +0.000 A 
ATOM     19  O   UNL     1       7.451   5.993  15.646  0.00  0.00    +0.000 OA
ATOM     20  C   UNL     1       6.539   5.042  15.250  0.00  0.00    +0.000 A 
ATOM     21  N   UNL     1       5.681   4.715  16.204  0.00  0.00    +0.000 NA
BRANCH  20  22
ATOM     22  C   UNL     1       6.507   4.463  13.939  0.00  0.00    +0.000 A 
ATOM     23  C   UNL     1       7.526   4.428  12.999  0.00  0.00    +0.000 A 
ATOM     24  C   UNL     1       7.029   3.747  11.863  0.00  0.00    +0.000 A 
ATOM     25  C   UNL     1       5.732   3.403  12.167  0.00  0.00    +0.000 A 
ATOM     26  O   UNL     1       5.406   3.832  13.414  0.00  0.00    +0.000 OA
ENDBRANCH  20  22
ENDBRANCH  16  17
ENDBRANCH   1  16
TORSDOF 7
ENDMDL
MODEL 3
REMARK VINA RESULT:      -8.0      0.937      1.242
REMARK  Name = 
REMARK  7 active torsions:
REMARK  status: ('A' for Active; 'I' for Inactive)
REMARK    1  A    between atoms: C_4  and  C_5
REMARK    2  A    between atoms: C_5  and  N_6
REMARK    3  A    between atoms: N_6  and  C_7
REMARK    4  A    between atoms: N_6  and  C_14
REMARK    5  A    between atoms: C_7  and  C_8
REMARK    6  A    between atoms: C_14  and  C_15
REMARK    7  A    between atoms: C_18  and  C_19
REMARK                            x       y       z     vdW  Elec       q    Type
REMARK                         _______ _______ _______ _____ _____    ______ ____
ROOT
ATOM      1  N   UNL     1       4.186   5.633  18.830  0.00  0.00    +0.000 NA
ENDROOT
BRANCH   1   2
ATOM      2  C   UNL     1       3.816   6.738  17.901  0.00  0.00    +0.000 C 
BRANCH   2   6
ATOM      3  C   UNL     1       0.946   9.434  19.531  0.00  0.00    +0.000 A 
ATOM      4  C   UNL     1       1.395   9.646  18.233  0.00  0.00    +0.000 A 
ATOM      5  C   UNL     1       2.306   8.756  17.673  0.00  0.00    +0.000 A 
ATOM      6  C   UNL     1       2.755   7.682  18.441  0.00  0.00    +0.000 A 
ATOM      7  N   UNL     1       2.318   7.460  19.707  0.00  0.00    +0.000 NA
ATOM      8  C   UNL     1       1.423   8.331  20.217  0.00  0.00    +0.000 A 
ENDBRANCH   2   6
ENDBRANCH   1   2
BRANCH   1   9
ATOM      9  C   UNL     1       3.766   4.330  18.237  0.00  0.00    +0.000 C 
BRANCH   9  10
ATOM     10  C   UNL     1       2.522   3.730  18.875  0.00  0.00    +0.000 A 
ATOM     11  C   UNL     1       2.269   3.909  20.235  0.00  0.00    +0.000 A 
ATOM     12  C   UNL     1       1.169   3.273  20.802  0.00  0.00    +0.000 A 
ATOM     13  C   UNL     1       0.346   2.491  20.002  0.00  0.00    +0.000 A 
ATOM     14  C   UNL     1       0.657   2.378  18.658  0.00  0.00    +0.000 A 
ATOM     15  N   UNL     1       1.726   2.969  18.081  0.00  0.00    +0.000 NA
ENDBRANCH   9  10
ENDBRANCH   1   9
BRANCH   1  16
ATOM     16  C   UNL     1       5.657   5.620  19.021  0.00  0.00    +0.000 C 
BRANCH  16  17
ATOM     17  C   UNL     1       6.375   5.780  17.723  0.00  0.00    +0.000 A 
ATOM     18  C   UNL     1       7.393   6.637  17.378  0.00  0.00    +0.000 A 
ATOM     19  O   UNL     1       7.709   6.418  16.072  0.00  0.00    +0.000 OA
ATOM     20  C   UNL     1       6.858   5.415  15.671  0.00  0.00    +0.000 A 
ATOM     21  N   UNL     1       6.041   5.011  16.631  0.00  0.00    +0.000 NA
BRANCH  20  22
ATOM     22  C   UNL     1       6.842   4.862  14.349  0.00  0.00    +0.000 A 
ATOM     23  C   UNL     1       6.079   3.804  13.877  0.00  0.00    +0.000 A 
ATOM     24  C   UNL     1       6.401   3.627  12.511  0.00  0.00    +0.000 A 
ATOM     25  C   UNL     1       7.344   4.585  12.219  0.00  0.00    +0.000 A 
ATOM     26  O   UNL     1       7.620   5.332  13.319  0.00  0.00    +0.000 OA
ENDBRANCH  20  22
ENDBRANCH  16  17
ENDBRANCH   1  16
TORSDOF 7
ENDMDL
MODEL 4
REMARK VINA RESULT:      -8.0      1.324      1.739
REMARK  Name = 
REMARK  7 active torsions:
REMARK  status: ('A' for Active; 'I' for Inactive)
REMARK    1  A    between atoms: C_4  and  C_5
REMARK    2  A    between atoms: C_5  and  N_6
REMARK    3  A    between atoms: N_6  and  C_7
REMARK    4  A    between atoms: N_6  and  C_14
REMARK    5  A    between atoms: C_7  and  C_8
REMARK    6  A    between atoms: C_14  and  C_15
REMARK    7  A    between atoms: C_18  and  C_19
REMARK                            x       y       z     vdW  Elec       q    Type
REMARK                         _______ _______ _______ _____ _____    ______ ____
ROOT
ATOM      1  N   UNL     1       4.368   6.278  18.593  0.00  0.00    +0.000 NA
ENDROOT
BRANCH   1   2
ATOM      2  C   UNL     1       3.306   6.849  17.718  0.00  0.00    +0.000 C 
BRANCH   2   6
ATOM      3  C   UNL     1       0.844   9.660  19.768  0.00  0.00    +0.000 A 
ATOM      4  C   UNL     1       1.123   9.877  18.424  0.00  0.00    +0.000 A 
ATOM      5  C   UNL     1       1.896   8.951  17.730  0.00  0.00    +0.000 A 
ATOM      6  C   UNL     1       2.385   7.838  18.413  0.00  0.00    +0.000 A 
ATOM      7  N   UNL     1       2.114   7.611  19.723  0.00  0.00    +0.000 NA
ATOM      8  C   UNL     1       1.348   8.518  20.365  0.00  0.00    +0.000 A 
ENDBRANCH   2   6
ENDBRANCH   1   2
BRANCH   1   9
ATOM      9  C   UNL     1       4.373   4.793  18.455  0.00  0.00    +0.000 C 
BRANCH   9  10
ATOM     10  C   UNL     1       3.107   4.118  18.962  0.00  0.00    +0.000 A 
ATOM     11  C   UNL     1       2.742   4.219  20.304  0.00  0.00    +0.000 A 
ATOM     12  C   UNL     1       1.626   3.517  20.750  0.00  0.00    +0.000 A 
ATOM     13  C   UNL     1       0.899   2.749  19.849  0.00  0.00    +0.000 A 
ATOM     14  C   UNL     1       1.317   2.715  18.531  0.00  0.00    +0.000 A 
ATOM     15  N   UNL     1       2.405   3.372  18.070  0.00  0.00    +0.000 NA
ENDBRANCH   9  10
ENDBRANCH   1   9
BRANCH   1  16
ATOM     16  C   UNL     1       5.690   6.802  18.173  0.00  0.00    +0.000 C 
BRANCH  16  17
ATOM     17  C   UNL     1       6.385   5.852  17.254  0.00  0.00    +0.000 A 
ATOM     18  C   UNL     1       7.387   4.948  17.514  0.00  0.00    +0.000 A 
ATOM     19  O   UNL     1       7.703   4.317  16.350  0.00  0.00    +0.000 OA
ATOM     20  C   UNL     1       6.860   4.870  15.414  0.00  0.00    +0.000 A 
ATOM     21  N   UNL     1       6.060   5.797  15.917  0.00  0.00    +0.000 NA
BRANCH  20  22
ATOM     22  C   UNL     1       6.846   4.495  14.031  0.00  0.00    +0.000 A 
ATOM     23  C   UNL     1       7.628   5.002  13.003  0.00  0.00    +0.000 A 
ATOM     24  C   UNL     1       7.263   4.320  11.819  0.00  0.00    +0.000 A 
ATOM     25  C   UNL     1       6.277   3.433  12.183  0.00  0.00    +0.000 A 
ATOM     26  O   UNL     1       6.016   3.532  13.512  0.00  0.00    +0.000 OA
ENDBRANCH  20  22
ENDBRANCH  16  17
ENDBRANCH   1  16
TORSDOF 7
ENDMDL
MODEL 5
REMARK VINA RESULT:      -8.0      1.347      4.081
REMARK  Name = 
REMARK  7 active torsions:
REMARK  status: ('A' for Active; 'I' for Inactive)
REMARK    1  A    between atoms: C_4  and  C_5
REMARK    2  A    between atoms: C_5  and  N_6
REMARK    3  A    between atoms: N_6  and  C_7
REMARK    4  A    between atoms: N_6  and  C_14
REMARK    5  A    between atoms: C_7  and  C_8
REMARK    6  A    between atoms: C_14  and  C_15
REMARK    7  A    between atoms: C_18  and  C_19
REMARK                            x       y       z     vdW  Elec       q    Type
REMARK                         _______ _______ _______ _____ _____    ______ ____
ROOT
ATOM      1  N   UNL     1       3.802   5.919  18.122  0.00  0.00    +0.000 NA
ENDROOT
BRANCH   1   2
ATOM      2  C   UNL     1       3.686   4.445  17.942  0.00  0.00    +0.000 C 
BRANCH   2   6
ATOM      3  C   UNL     1       1.351   2.612  20.999  0.00  0.00    +0.000 A 
ATOM      4  C   UNL     1       0.710   3.047  19.845  0.00  0.00    +0.000 A 
ATOM      5  C   UNL     1       1.462   3.616  18.821  0.00  0.00    +0.000 A 
ATOM      6  C   UNL     1       2.840   3.749  18.994  0.00  0.00    +0.000 A 
ATOM      7  N   UNL     1       3.477   3.321  20.113  0.00  0.00    +0.000 NA
ATOM      8  C   UNL     1       2.724   2.759  21.081  0.00  0.00    +0.000 A 
ENDBRANCH   2   6
ENDBRANCH   1   2
BRANCH   1   9
ATOM      9  C   UNL     1       3.026   6.329  19.329  0.00  0.00    +0.000 C 
BRANCH   9  10
ATOM     10  C   UNL     1       2.310   7.664  19.183  0.00  0.00    +0.000 A 
ATOM     11  C   UNL     1       1.611   8.212  20.258  0.00  0.00    +0.000 A 
ATOM     12  C   UNL     1       0.896   9.390  20.063  0.00  0.00    +0.000 A 
ATOM     13  C   UNL     1       0.908   9.995  18.813  0.00  0.00    +0.000 A 
ATOM     14  C   UNL     1       1.640   9.397  17.803  0.00  0.00    +0.000 A 
ATOM     15  N   UNL     1       2.331   8.246  17.956  0.00  0.00    +0.000 NA
ENDBRANCH   9  10
ENDBRANCH   1   9
BRANCH   1  16
ATOM     16  C   UNL     1       5.226   6.282  18.324  0.00  0.00    +0.000 C 
BRANCH  16  17
ATOM     17  C   UNL     1       6.112   5.566  17.359  0.00  0.00    +0.000 A 
ATOM     18  C   UNL     1       7.304   4.915  17.573  0.00  0.00    +0.000 A 
ATOM     19  O   UNL     1       7.742   4.429  16.379  0.00  0.00    +0.000 OA
ATOM     20  C   UNL     1       6.778   4.807  15.473  0.00  0.00    +0.000 A 
ATOM     21  N   UNL     1       5.789   5.494  16.023  0.00  0.00    +0.000 NA
BRANCH  20  22
ATOM     22  C   UNL     1       6.833   4.501  14.074  0.00  0.00    +0.000 A 
ATOM     23  C   UNL     1       7.581   5.136  13.093  0.00  0.00    +0.000 A 
ATOM     24  C   UNL     1       7.314   4.480  11.868  0.00  0.00    +0.000 A 
ATOM     25  C   UNL     1       6.417   3.480  12.165  0.00  0.00    +0.000 A 
ATOM     26  O   UNL     1       6.118   3.485  13.489  0.00  0.00    +0.000 OA
ENDBRANCH  20  22
ENDBRANCH  16  17
ENDBRANCH   1  16
TORSDOF 7
ENDMDL
MODEL 6
REMARK VINA RESULT:      -8.0      3.164      6.862
REMARK  Name = 
REMARK  7 active torsions:
REMARK  status: ('A' for Active; 'I' for Inactive)
REMARK    1  A    between atoms: C_4  and  C_5
REMARK    2  A    between atoms: C_5  and  N_6
REMARK    3  A    between atoms: N_6  and  C_7
REMARK    4  A    between atoms: N_6  and  C_14
REMARK    5  A    between atoms: C_7  and  C_8
REMARK    6  A    between atoms: C_14  and  C_15
REMARK    7  A    between atoms: C_18  and  C_19
REMARK                            x       y       z     vdW  Elec       q    Type
REMARK                         _______ _______ _______ _____ _____    ______ ____
ROOT
ATOM      1  N   UNL     1       3.106   5.525  17.627  0.00  0.00    +0.000 NA
ENDROOT
BRANCH   1   2
ATOM      2  C   UNL     1       4.350   4.866  17.137  0.00  0.00    +0.000 C 
BRANCH   2   6
ATOM      3  C   UNL     1       7.861   6.979  18.309  0.00  0.00    +0.000 A 
ATOM      4  C   UNL     1       7.576   5.767  18.929  0.00  0.00    +0.000 A 
ATOM      5  C   UNL     1       6.453   5.047  18.533  0.00  0.00    +0.000 A 
ATOM      6  C   UNL     1       5.634   5.575  17.536  0.00  0.00    +0.000 A 
ATOM      7  N   UNL     1       5.905   6.753  16.919  0.00  0.00    +0.000 NA
ATOM      8  C   UNL     1       7.010   7.420  17.312  0.00  0.00    +0.000 A 
ENDBRANCH   2   6
ENDBRANCH   1   2
BRANCH   1   9
ATOM      9  C   UNL     1       2.050   4.491  17.830  0.00  0.00    +0.000 C 
BRANCH   9  10
ATOM     10  C   UNL     1       2.146   3.759  19.161  0.00  0.00    +0.000 A 
ATOM     11  C   UNL     1       1.131   3.882  20.109  0.00  0.00    +0.000 A 
ATOM     12  C   UNL     1       1.292   3.270  21.348  0.00  0.00    +0.000 A 
ATOM     13  C   UNL     1       2.449   2.544  21.604  0.00  0.00    +0.000 A 
ATOM     14  C   UNL     1       3.401   2.456  20.605  0.00  0.00    +0.000 A 
ATOM     15  N   UNL     1       3.281   3.052  19.397  0.00  0.00    +0.000 NA
ENDBRANCH   9  10
ENDBRANCH   1   9
BRANCH   1  16
ATOM     16  C   UNL     1       3.378   6.193  18.922  0.00  0.00    +0.000 C 
BRANCH  16  17
ATOM     17  C   UNL     1       2.514   7.397  19.105  0.00  0.00    +0.000 A 
ATOM     18  C   UNL     1       2.159   8.372  18.203  0.00  0.00    +0.000 A 
ATOM     19  O   UNL     1       1.365   9.274  18.843  0.00  0.00    +0.000 OA
ATOM     20  C   UNL     1       1.265   8.799  20.130  0.00  0.00    +0.000 A 
ATOM     21  N   UNL     1       1.944   7.680  20.326  0.00  0.00    +0.000 NA
BRANCH  20  22
ATOM     22  C   UNL     1       0.512   9.446  21.164  0.00  0.00    +0.000 A 
ATOM     23  C   UNL     1      -0.265  10.590  21.062  0.00  0.00    +0.000 A 
ATOM     24  C   UNL     1      -0.818  10.841  22.340  0.00  0.00    +0.000 A 
ATOM     25  C   UNL     1      -0.349   9.837  23.156  0.00  0.00    +0.000 A 
ATOM     26  O   UNL     1       0.455   8.994  22.460  0.00  0.00    +0.000 OA
ENDBRANCH  20  22
ENDBRANCH  16  17
ENDBRANCH   1  16
TORSDOF 7
ENDMDL
MODEL 7
REMARK VINA RESULT:      -8.0      2.900      6.535
REMARK  Name = 
REMARK  7 active torsions:
REMARK  status: ('A' for Active; 'I' for Inactive)
REMARK    1  A    between atoms: C_4  and  C_5
REMARK    2  A    between atoms: C_5  and  N_6
REMARK    3  A    between atoms: N_6  and  C_7
REMARK    4  A    between atoms: N_6  and  C_14
REMARK    5  A    between atoms: C_7  and  C_8
REMARK    6  A    between atoms: C_14  and  C_15
REMARK    7  A    between atoms: C_18  and  C_19
REMARK                            x       y       z     vdW  Elec       q    Type
REMARK                         _______ _______ _______ _____ _____    ______ ____
ROOT
ATOM      1  N   UNL     1       3.566   5.203  17.452  0.00  0.00    +0.000 NA
ENDROOT
BRANCH   1   2
ATOM      2  C   UNL     1       4.710   5.462  16.532  0.00  0.00    +0.000 C 
BRANCH   2   6
ATOM      3  C   UNL     1       8.162   6.955  18.536  0.00  0.00    +0.000 A 
ATOM      4  C   UNL     1       7.705   5.683  18.858  0.00  0.00    +0.000 A 
ATOM      5  C   UNL     1       6.600   5.166  18.189  0.00  0.00    +0.000 A 
ATOM      6  C   UNL     1       5.972   5.951  17.223  0.00  0.00    +0.000 A 
ATOM      7  N   UNL     1       6.413   7.192  16.894  0.00  0.00    +0.000 NA
ATOM      8  C   UNL     1       7.496   7.660  17.549  0.00  0.00    +0.000 A 
ENDBRANCH   2   6
ENDBRANCH   1   2
BRANCH   1   9
ATOM      9  C   UNL     1       3.495   3.743  17.748  0.00  0.00    +0.000 C 
BRANCH   9  10
ATOM     10  C   UNL     1       2.708   3.401  19.005  0.00  0.00    +0.000 A 
ATOM     11  C   UNL     1       1.349   3.702  19.089  0.00  0.00    +0.000 A 
ATOM     12  C   UNL     1       0.680   3.456  20.284  0.00  0.00    +0.000 A 
ATOM     13  C   UNL     1       1.375   2.906  21.354  0.00  0.00    +0.000 A 
ATOM     14  C   UNL     1       2.718   2.621  21.183  0.00  0.00    +0.000 A 
ATOM     15  N   UNL     1       3.399   2.863  20.041  0.00  0.00    +0.000 NA
ENDBRANCH   9  10
ENDBRANCH   1   9
BRANCH   1  16
ATOM     16  C   UNL     1       3.776   5.939  18.722  0.00  0.00    +0.000 C 
BRANCH  16  17
ATOM     17  C   UNL     1       2.864   7.117  18.825  0.00  0.00    +0.000 A 
ATOM     18  C   UNL     1       2.505   8.040  17.873  0.00  0.00    +0.000 A 
ATOM     19  O   UNL     1       1.658   8.937  18.448  0.00  0.00    +0.000 OA
ATOM     20  C   UNL     1       1.530   8.511  19.750  0.00  0.00    +0.000 A 
ATOM     21  N   UNL     1       2.242   7.427  20.014  0.00  0.00    +0.000 NA
BRANCH  20  22
ATOM     22  C   UNL     1       0.719   9.170  20.730  0.00  0.00    +0.000 A 
ATOM     23  C   UNL     1       0.130   8.619  21.859  0.00  0.00    +0.000 A 
ATOM     24  C   UNL     1      -0.566   9.656  22.522  0.00  0.00    +0.000 A 
ATOM     25  C   UNL     1      -0.367  10.787  21.764  0.00  0.00    +0.000 A 
ATOM     26  O   UNL     1       0.402  10.506  20.681  0.00  0.00    +0.000 OA
ENDBRANCH  20  22
ENDBRANCH  16  17
ENDBRANCH   1  16
TORSDOF 7
ENDMDL
MODEL 8
REMARK VINA RESULT:      -7.9      2.815      6.217
REMARK  Name = 
REMARK  7 active torsions:
REMARK  status: ('A' for Active; 'I' for Inactive)
REMARK    1  A    between atoms: C_4  and  C_5
REMARK    2  A    between atoms: C_5  and  N_6
REMARK    3  A    between atoms: N_6  and  C_7
REMARK    4  A    between atoms: N_6  and  C_14
REMARK    5  A    between atoms: C_7  and  C_8
REMARK    6  A    between atoms: C_14  and  C_15
REMARK    7  A    between atoms: C_18  and  C_19
REMARK                            x       y       z     vdW  Elec       q    Type
REMARK                         _______ _______ _______ _____ _____    ______ ____
ROOT
ATOM      1  N   UNL     1       5.692   5.291  17.053  0.00  0.00    +0.000 NA
ENDROOT
BRANCH   1   2
ATOM      2  C   UNL     1       4.286   4.986  16.663  0.00  0.00    +0.000 C 
BRANCH   2   6
ATOM      3  C   UNL     1       1.710   4.152  19.954  0.00  0.00    +0.000 A 
ATOM      4  C   UNL     1       1.331   3.722  18.688  0.00  0.00    +0.000 A 
ATOM      5  C   UNL     1       2.177   3.955  17.608  0.00  0.00    +0.000 A 
ATOM      6  C   UNL     1       3.376   4.632  17.827  0.00  0.00    +0.000 A 
ATOM      7  N   UNL     1       3.760   5.051  19.059  0.00  0.00    +0.000 NA
ATOM      8  C   UNL     1       2.927   4.796  20.090  0.00  0.00    +0.000 A 
ENDBRANCH   2   6
ENDBRANCH   1   2
BRANCH   1   9
ATOM      9  C   UNL     1       6.602   4.281  16.438  0.00  0.00    +0.000 C 
BRANCH   9  10
ATOM     10  C   UNL     1       6.773   4.433  14.934  0.00  0.00    +0.000 A 
ATOM     11  C   UNL     1       5.991   3.682  14.056  0.00  0.00    +0.000 A 
ATOM     12  C   UNL     1       6.234   3.781  12.689  0.00  0.00    +0.000 A 
ATOM     13  C   UNL     1       7.234   4.632  12.235  0.00  0.00    +0.000 A 
ATOM     14  C   UNL     1       7.953   5.355  13.170  0.00  0.00    +0.000 A 
ATOM     15  N   UNL     1       7.752   5.269  14.503  0.00  0.00    +0.000 NA
ENDBRANCH   9  10
ENDBRANCH   1   9
BRANCH   1  16
ATOM     16  C   UNL     1       6.062   6.637  16.552  0.00  0.00    +0.000 C 
BRANCH  16  17
ATOM     17  C   UNL     1       7.087   7.280  17.426  0.00  0.00    +0.000 A 
ATOM     18  C   UNL     1       7.852   6.739  18.433  0.00  0.00    +0.000 A 
ATOM     19  O   UNL     1       8.634   7.725  18.950  0.00  0.00    +0.000 OA
ATOM     20  C   UNL     1       8.310   8.846  18.220  0.00  0.00    +0.000 A 
ATOM     21  N   UNL     1       7.383   8.618  17.302  0.00  0.00    +0.000 NA
BRANCH  20  22
ATOM     22  C   UNL     1       8.902  10.134  18.428  0.00  0.00    +0.000 A 
ATOM     23  C   UNL     1       8.631  11.315  17.754  0.00  0.00    +0.000 A 
ATOM     24  C   UNL     1       9.455  12.320  18.313  0.00  0.00    +0.000 A 
ATOM     25  C   UNL     1      10.188  11.700  19.298  0.00  0.00    +0.000 A 
ATOM     26  O   UNL     1       9.866  10.384  19.375  0.00  0.00    +0.000 OA
ENDBRANCH  20  22
ENDBRANCH  16  17
ENDBRANCH   1  16
TORSDOF 7
ENDMDL
MODEL 9
REMARK VINA RESULT:      -7.9      2.814      6.348
REMARK  Name = 
REMARK  7 active torsions:
REMARK  status: ('A' for Active; 'I' for Inactive)
REMARK    1  A    between atoms: C_4  and  C_5
REMARK    2  A    between atoms: C_5  and  N_6
REMARK    3  A    between atoms: N_6  and  C_7
REMARK    4  A    between atoms: N_6  and  C_14
REMARK    5  A    between atoms: C_7  and  C_8
REMARK    6  A    between atoms: C_14  and  C_15
REMARK    7  A    between atoms: C_18  and  C_19
REMARK                            x       y       z     vdW  Elec       q    Type
REMARK                         _______ _______ _______ _____ _____    ______ ____
ROOT
ATOM      1  N   UNL     1       3.614   4.958  17.414  0.00  0.00    +0.000 NA
ENDROOT
BRANCH   1   2
ATOM      2  C   UNL     1       5.004   4.514  17.111  0.00  0.00    +0.000 C 
BRANCH   2   6
ATOM      3  C   UNL     1       8.152   6.959  18.620  0.00  0.00    +0.000 A 
ATOM      4  C   UNL     1       7.446   7.397  17.505  0.00  0.00    +0.000 A 
ATOM      5  C   UNL     1       6.392   6.628  17.020  0.00  0.00    +0.000 A 
ATOM      6  C   UNL     1       6.088   5.427  17.660  0.00  0.00    +0.000 A 
ATOM      7  N   UNL     1       6.765   4.993  18.753  0.00  0.00    +0.000 NA
ATOM      8  C   UNL     1       7.770   5.768  19.210  0.00  0.00    +0.000 A 
ENDBRANCH   2   6
ENDBRANCH   1   2
BRANCH   1   9
ATOM      9  C   UNL     1       2.727   3.762  17.514  0.00  0.00    +0.000 C 
BRANCH   9  10
ATOM     10  C   UNL     1       2.440   3.320  18.941  0.00  0.00    +0.000 A 
ATOM     11  C   UNL     1       1.191   3.553  19.515  0.00  0.00    +0.000 A 
ATOM     12  C   UNL     1       0.992   3.214  20.850  0.00  0.00    +0.000 A 
ATOM     13  C   UNL     1       2.033   2.641  21.570  0.00  0.00    +0.000 A 
ATOM     14  C   UNL     1       3.236   2.426  20.922  0.00  0.00    +0.000 A 
ATOM     15  N   UNL     1       3.466   2.759  19.633  0.00  0.00    +0.000 NA
ENDBRANCH   9  10
ENDBRANCH   1   9
BRANCH   1  16
ATOM     16  C   UNL     1       3.596   5.677  18.711  0.00  0.00    +0.000 C 
BRANCH  16  17
ATOM     17  C   UNL     1       2.891   6.988  18.596  0.00  0.00    +0.000 A 
ATOM     18  C   UNL     1       2.841   7.873  17.545  0.00  0.00    +0.000 A 
ATOM     19  O   UNL     1       2.081   8.937  17.922  0.00  0.00    +0.000 OA
ATOM     20  C   UNL     1       1.689   8.648  19.209  0.00  0.00    +0.000 A 
ATOM     21  N   UNL     1       2.159   7.491  19.648  0.00  0.00    +0.000 NA
BRANCH  20  22
ATOM     22  C   UNL     1       0.862   9.508  20.004  0.00  0.00    +0.000 A 
ATOM     23  C   UNL     1       0.409  10.781  19.692  0.00  0.00    +0.000 A 
ATOM     24  C   UNL     1      -0.377  11.228  20.779  0.00  0.00    +0.000 A 
ATOM     25  C   UNL     1      -0.363  10.205  21.700  0.00  0.00    +0.000 A 
ATOM     26  O   UNL     1       0.383   9.166  21.245  0.00  0.00    +0.000 OA
ENDBRANCH  20  22
ENDBRANCH  16  17
ENDBRANCH   1  16
TORSDOF 7
ENDMDL
