MODEL 1
REMARK VINA RESULT:      -7.1      0.000      0.000
REMARK  Name = 
REMARK  14 active torsions:
REMARK  status: ('A' for Active; 'I' for Inactive)
REMARK    1  A    between atoms: C_1  and  C_2
REMARK    2  A    between atoms: C_2  and  C_3
REMARK    3  A    between atoms: C_2  and  C_4
REMARK    4  A    between atoms: C_2  and  C_5
REMARK    5  A    between atoms: C_5  and  C_9
REMARK    6  A    between atoms: C_6  and  C_7
REMARK    7  A    between atoms: C_7  and  N_8
REMARK    8  A    between atoms: C_10  and  C_11
REMARK    9  A    between atoms: C_12  and  C_13
REMARK   10  A    between atoms: C_12  and  C_21
REMARK   11  A    between atoms: C_14  and  C_15
REMARK   12  A    between atoms: C_21  and  C_22
REMARK   13  A    between atoms: C_21  and  C_23
REMARK   14  A    between atoms: C_21  and  C_24
REMARK                            x       y       z     vdW  Elec       q    Type
REMARK                         _______ _______ _______ _____ _____    ______ ____
ROOT
ATOM      1  C   UNL     1       0.998   8.374  20.824  0.00  0.00    +0.000 C 
ATOM      2  C   UNL     1       0.466   9.466  20.219  0.00  0.00    +0.000 C 
ENDROOT
BRANCH   2   3
ATOM      3  C   UNL     1       0.753   9.903  18.739  0.00  0.00    +0.000 C 
ATOM      4  C   UNL     1      -0.583  10.134  17.996  0.00  0.00    +0.000 C 
ATOM      5  C   UNL     1       1.546  11.235  18.609  0.00  0.00    +0.000 C 
ATOM      6  C   UNL     1       1.591   8.861  17.964  0.00  0.00    +0.000 C 
ENDBRANCH   2   3
BRANCH   1   8
ATOM      7  C   UNL     1       1.837   6.108  20.287  0.00  0.00    +0.000 C 
ATOM      8  C   UNL     1       1.966   7.444  20.275  0.00  0.00    +0.000 C 
BRANCH   7   9
ATOM      9  C   UNL     1       2.845   5.195  19.725  0.00  0.00    +0.000 C 
ATOM     10  C   UNL     1       4.026   5.752  19.358  0.00  0.00    +0.000 C 
BRANCH   9  12
ATOM     11  C   UNL     1       3.456   2.780  20.291  0.00  0.00    +0.000 C 
ATOM     12  C   UNL     1       2.440   3.706  19.583  0.00  0.00    +0.000 C 
ATOM     13  C   UNL     1       2.319   3.310  18.095  0.00  0.00    +0.000 C 
ATOM     14  C   UNL     1       1.064   3.388  20.231  0.00  0.00    +0.000 C 
ENDBRANCH   9  12
BRANCH  10  15
ATOM     15  C   UNL     1       5.261   5.145  18.770  0.00  0.00    +0.000 C 
BRANCH  15  16
ATOM     16  N   UNL     1       6.358   5.227  19.726  0.00  0.00    +0.000 NA
ATOM     17  H   UNL     1       6.912   4.374  19.658  0.00  0.00    +0.000 HD
ATOM     18  H   UNL     1       5.973   5.234  20.668  0.00  0.00    +0.000 HD
ENDBRANCH  15  16
ENDBRANCH  10  15
ENDBRANCH   7   9
ENDBRANCH   1   8
BRANCH   2  19
ATOM     19  C   UNL     1      -0.402  10.364  21.010  0.00  0.00    +0.000 C 
ATOM     20  C   UNL     1      -0.058  11.442  21.738  0.00  0.00    +0.000 C 
BRANCH  20  21
ATOM     21  C   UNL     1      -0.978  12.248  22.553  0.00  0.00    +0.000 C 
ATOM     22  C   UNL     1      -2.118  11.706  23.030  0.00  0.00    +0.000 C 
ATOM     23  C   UNL     1      -3.157  12.464  23.814  0.00  0.00    +0.000 C 
ATOM     24  C   UNL     1      -2.993  13.979  23.736  0.00  0.00    +0.000 C 
ATOM     25  C   UNL     1      -1.531  14.370  23.890  0.00  0.00    +0.000 C 
ATOM     26  C   UNL     1      -0.658  13.707  22.817  0.00  0.00    +0.000 C 
ENDBRANCH  20  21
ENDBRANCH   2  19
TORSDOF 8
ENDMDL
MODEL 2
REMARK VINA RESULT:      -7.1      0.053      1.240
REMARK  Name = 
REMARK  14 active torsions:
REMARK  status: ('A' for Active; 'I' for Inactive)
REMARK    1  A    between atoms: C_1  and  C_2
REMARK    2  A    between atoms: C_2  and  C_3
REMARK    3  A    between atoms: C_2  and  C_4
REMARK    4  A    between atoms: C_2  and  C_5
REMARK    5  A    between atoms: C_5  and  C_9
REMARK    6  A    between atoms: C_6  and  C_7
REMARK    7  A    between atoms: C_7  and  N_8
REMARK    8  A    between atoms: C_10  and  C_11
REMARK    9  A    between atoms: C_12  and  C_13
REMARK   10  A    between atoms: C_12  and  C_21
REMARK   11  A    between atoms: C_14  and  C_15
REMARK   12  A    between atoms: C_21  and  C_22
REMARK   13  A    between atoms: C_21  and  C_23
REMARK   14  A    between atoms: C_21  and  C_24
REMARK                            x       y       z     vdW  Elec       q    Type
REMARK                         _______ _______ _______ _____ _____    ______ ____
ROOT
ATOM      1  C   UNL     1       1.005   8.366  20.831  0.00  0.00    +0.000 C 
ATOM      2  C   UNL     1       0.455   9.443  20.216  0.00  0.00    +0.000 C 
ENDROOT
BRANCH   2   3
ATOM      3  C   UNL     1       0.716   9.856  18.724  0.00  0.00    +0.000 C 
ATOM      4  C   UNL     1       1.490  11.193  18.682  0.00  0.00    +0.000 C 
ATOM      5  C   UNL     1       1.579   8.840  17.922  0.00  0.00    +0.000 C 
ATOM      6  C   UNL     1      -0.591  10.000  17.911  0.00  0.00    +0.000 C 
ENDBRANCH   2   3
BRANCH   1   8
ATOM      7  C   UNL     1       1.841   6.098  20.294  0.00  0.00    +0.000 C 
ATOM      8  C   UNL     1       1.972   7.434  20.284  0.00  0.00    +0.000 C 
BRANCH   7   9
ATOM      9  C   UNL     1       2.847   5.183  19.734  0.00  0.00    +0.000 C 
ATOM     10  C   UNL     1       4.022   5.742  19.348  0.00  0.00    +0.000 C 
BRANCH   9  12
ATOM     11  C   UNL     1       1.058   3.430  20.238  0.00  0.00    +0.000 C 
ATOM     12  C   UNL     1       2.450   3.690  19.616  0.00  0.00    +0.000 C 
ATOM     13  C   UNL     1       3.503   2.788  20.294  0.00  0.00    +0.000 C 
ATOM     14  C   UNL     1       2.346   3.206  18.143  0.00  0.00    +0.000 C 
ENDBRANCH   9  12
BRANCH  10  15
ATOM     15  C   UNL     1       5.254   5.134  18.756  0.00  0.00    +0.000 C 
BRANCH  15  16
ATOM     16  N   UNL     1       6.355   5.215  19.708  0.00  0.00    +0.000 NA
ATOM     17  H   UNL     1       7.232   5.216  19.189  0.00  0.00    +0.000 HD
ATOM     18  H   UNL     1       6.365   4.369  20.271  0.00  0.00    +0.000 HD
ENDBRANCH  15  16
ENDBRANCH  10  15
ENDBRANCH   7   9
ENDBRANCH   1   8
BRANCH   2  19
ATOM     19  C   UNL     1      -0.408  10.348  21.005  0.00  0.00    +0.000 C 
ATOM     20  C   UNL     1      -0.058  11.424  21.732  0.00  0.00    +0.000 C 
BRANCH  20  21
ATOM     21  C   UNL     1      -0.974  12.238  22.544  0.00  0.00    +0.000 C 
ATOM     22  C   UNL     1      -2.120  11.705  23.016  0.00  0.00    +0.000 C 
ATOM     23  C   UNL     1      -3.156  12.471  23.797  0.00  0.00    +0.000 C 
ATOM     24  C   UNL     1      -2.977  13.985  23.722  0.00  0.00    +0.000 C 
ATOM     25  C   UNL     1      -1.513  14.362  23.882  0.00  0.00    +0.000 C 
ATOM     26  C   UNL     1      -0.641  13.693  22.812  0.00  0.00    +0.000 C 
ENDBRANCH  20  21
ENDBRANCH   2  19
TORSDOF 8
ENDMDL
MODEL 3
REMARK VINA RESULT:      -7.0      2.959      9.023
REMARK  Name = 
REMARK  14 active torsions:
REMARK  status: ('A' for Active; 'I' for Inactive)
REMARK    1  A    between atoms: C_1  and  C_2
REMARK    2  A    between atoms: C_2  and  C_3
REMARK    3  A    between atoms: C_2  and  C_4
REMARK    4  A    between atoms: C_2  and  C_5
REMARK    5  A    between atoms: C_5  and  C_9
REMARK    6  A    between atoms: C_6  and  C_7
REMARK    7  A    between atoms: C_7  and  N_8
REMARK    8  A    between atoms: C_10  and  C_11
REMARK    9  A    between atoms: C_12  and  C_13
REMARK   10  A    between atoms: C_12  and  C_21
REMARK   11  A    between atoms: C_14  and  C_15
REMARK   12  A    between atoms: C_21  and  C_22
REMARK   13  A    between atoms: C_21  and  C_23
REMARK   14  A    between atoms: C_21  and  C_24
REMARK                            x       y       z     vdW  Elec       q    Type
REMARK                         _______ _______ _______ _____ _____    ______ ____
ROOT
ATOM      1  C   UNL     1       0.195   9.126  21.605  0.00  0.00    +0.000 C 
ATOM      2  C   UNL     1       0.845   8.955  20.426  0.00  0.00    +0.000 C 
ENDROOT
BRANCH   2   3
ATOM      3  C   UNL     1       0.736   9.919  19.192  0.00  0.00    +0.000 C 
ATOM      4  C   UNL     1       1.447   9.288  17.974  0.00  0.00    +0.000 C 
ATOM      5  C   UNL     1      -0.723  10.204  18.731  0.00  0.00    +0.000 C 
ATOM      6  C   UNL     1       1.346  11.311  19.471  0.00  0.00    +0.000 C 
ENDBRANCH   2   3
BRANCH   1   8
ATOM      7  C   UNL     1      -0.446  11.334  22.522  0.00  0.00    +0.000 C 
ATOM      8  C   UNL     1      -0.759  10.163  21.946  0.00  0.00    +0.000 C 
BRANCH   7   9
ATOM      9  C   UNL     1      -1.444  12.361  22.859  0.00  0.00    +0.000 C 
ATOM     10  C   UNL     1      -2.588  11.922  23.441  0.00  0.00    +0.000 C 
BRANCH   9  12
ATOM     11  C   UNL     1      -2.128  14.411  21.496  0.00  0.00    +0.000 C 
ATOM     12  C   UNL     1      -1.097  13.825  22.488  0.00  0.00    +0.000 C 
ATOM     13  C   UNL     1       0.321  13.915  21.884  0.00  0.00    +0.000 C 
ATOM     14  C   UNL     1      -1.109  14.780  23.715  0.00  0.00    +0.000 C 
ENDBRANCH   9  12
BRANCH  10  15
ATOM     15  C   UNL     1      -3.797  12.663  23.918  0.00  0.00    +0.000 C 
BRANCH  15  16
ATOM     16  N   UNL     1      -4.608  11.797  24.764  0.00  0.00    +0.000 NA
ATOM     17  H   UNL     1      -5.520  12.233  24.895  0.00  0.00    +0.000 HD
ATOM     18  H   UNL     1      -4.187  11.752  25.689  0.00  0.00    +0.000 HD
ENDBRANCH  15  16
ENDBRANCH  10  15
ENDBRANCH   7   9
ENDBRANCH   1   8
BRANCH   2  19
ATOM     19  C   UNL     1       1.672   7.745  20.240  0.00  0.00    +0.000 C 
ATOM     20  C   UNL     1       1.373   6.466  20.531  0.00  0.00    +0.000 C 
BRANCH  20  21
ATOM     21  C   UNL     1       2.282   5.322  20.373  0.00  0.00    +0.000 C 
ATOM     22  C   UNL     1       3.449   5.466  19.711  0.00  0.00    +0.000 C 
ATOM     23  C   UNL     1       4.415   4.343  19.436  0.00  0.00    +0.000 C 
ATOM     24  C   UNL     1       3.818   2.957  19.664  0.00  0.00    +0.000 C 
ATOM     25  C   UNL     1       3.005   2.925  20.949  0.00  0.00    +0.000 C 
ATOM     26  C   UNL     1       1.880   3.967  20.926  0.00  0.00    +0.000 C 
ENDBRANCH  20  21
ENDBRANCH   2  19
TORSDOF 8
ENDMDL
MODEL 4
REMARK VINA RESULT:      -6.9      3.050      9.019
REMARK  Name = 
REMARK  14 active torsions:
REMARK  status: ('A' for Active; 'I' for Inactive)
REMARK    1  A    between atoms: C_1  and  C_2
REMARK    2  A    between atoms: C_2  and  C_3
REMARK    3  A    between atoms: C_2  and  C_4
REMARK    4  A    between atoms: C_2  and  C_5
REMARK    5  A    between atoms: C_5  and  C_9
REMARK    6  A    between atoms: C_6  and  C_7
REMARK    7  A    between atoms: C_7  and  N_8
REMARK    8  A    between atoms: C_10  and  C_11
REMARK    9  A    between atoms: C_12  and  C_13
REMARK   10  A    between atoms: C_12  and  C_21
REMARK   11  A    between atoms: C_14  and  C_15
REMARK   12  A    between atoms: C_21  and  C_22
REMARK   13  A    between atoms: C_21  and  C_23
REMARK   14  A    between atoms: C_21  and  C_24
REMARK                            x       y       z     vdW  Elec       q    Type
REMARK                         _______ _______ _______ _____ _____    ______ ____
ROOT
ATOM      1  C   UNL     1       0.269   9.400  21.444  0.00  0.00    +0.000 C 
ATOM      2  C   UNL     1       0.935   9.123  20.295  0.00  0.00    +0.000 C 
ENDROOT
BRANCH   2   3
ATOM      3  C   UNL     1       0.884   9.999  18.993  0.00  0.00    +0.000 C 
ATOM      4  C   UNL     1       1.418  11.417  19.298  0.00  0.00    +0.000 C 
ATOM      5  C   UNL     1       1.758   9.458  17.825  0.00  0.00    +0.000 C 
ATOM      6  C   UNL     1      -0.542  10.109  18.407  0.00  0.00    +0.000 C 
ENDBRANCH   2   3
BRANCH   1   8
ATOM      7  C   UNL     1      -0.767  11.157  22.848  0.00  0.00    +0.000 C 
ATOM      8  C   UNL     1      -0.657  10.489  21.688  0.00  0.00    +0.000 C 
BRANCH   7   9
ATOM      9  C   UNL     1      -1.724  12.254  23.061  0.00  0.00    +0.000 C 
ATOM     10  C   UNL     1      -2.912  11.918  23.622  0.00  0.00    +0.000 C 
BRANCH   9  12
ATOM     11  C   UNL     1      -1.174  14.640  23.789  0.00  0.00    +0.000 C 
ATOM     12  C   UNL     1      -1.286  13.666  22.594  0.00  0.00    +0.000 C 
ATOM     13  C   UNL     1      -2.276  14.229  21.551  0.00  0.00    +0.000 C 
ATOM     14  C   UNL     1       0.112  13.673  21.916  0.00  0.00    +0.000 C 
ENDBRANCH   9  12
BRANCH  10  15
ATOM     15  C   UNL     1      -4.099  12.753  23.987  0.00  0.00    +0.000 C 
BRANCH  15  16
ATOM     16  N   UNL     1      -4.894  12.068  24.999  0.00  0.00    +0.000 NA
ATOM     17  H   UNL     1      -4.391  12.102  25.885  0.00  0.00    +0.000 HD
ATOM     18  H   UNL     1      -4.960  11.083  24.755  0.00  0.00    +0.000 HD
ENDBRANCH  15  16
ENDBRANCH  10  15
ENDBRANCH   7   9
ENDBRANCH   1   8
BRANCH   2  19
ATOM     19  C   UNL     1       1.725   7.876  20.215  0.00  0.00    +0.000 C 
ATOM     20  C   UNL     1       1.309   6.605  20.352  0.00  0.00    +0.000 C 
BRANCH  20  21
ATOM     21  C   UNL     1       2.175   5.417  20.321  0.00  0.00    +0.000 C 
ATOM     22  C   UNL     1       3.370   5.463  19.697  0.00  0.00    +0.000 C 
ATOM     23  C   UNL     1       4.299   4.286  19.551  0.00  0.00    +0.000 C 
ATOM     24  C   UNL     1       3.636   2.946  19.861  0.00  0.00    +0.000 C 
ATOM     25  C   UNL     1       2.775   3.048  21.110  0.00  0.00    +0.000 C 
ATOM     26  C   UNL     1       1.696   4.128  20.960  0.00  0.00    +0.000 C 
ENDBRANCH  20  21
ENDBRANCH   2  19
TORSDOF 8
ENDMDL
MODEL 5
REMARK VINA RESULT:      -6.9      0.625      1.440
REMARK  Name = 
REMARK  14 active torsions:
REMARK  status: ('A' for Active; 'I' for Inactive)
REMARK    1  A    between atoms: C_1  and  C_2
REMARK    2  A    between atoms: C_2  and  C_3
REMARK    3  A    between atoms: C_2  and  C_4
REMARK    4  A    between atoms: C_2  and  C_5
REMARK    5  A    between atoms: C_5  and  C_9
REMARK    6  A    between atoms: C_6  and  C_7
REMARK    7  A    between atoms: C_7  and  N_8
REMARK    8  A    between atoms: C_10  and  C_11
REMARK    9  A    between atoms: C_12  and  C_13
REMARK   10  A    between atoms: C_12  and  C_21
REMARK   11  A    between atoms: C_14  and  C_15
REMARK   12  A    between atoms: C_21  and  C_22
REMARK   13  A    between atoms: C_21  and  C_23
REMARK   14  A    between atoms: C_21  and  C_24
REMARK                            x       y       z     vdW  Elec       q    Type
REMARK                         _______ _______ _______ _____ _____    ______ ____
ROOT
ATOM      1  C   UNL     1       1.309   8.513  20.641  0.00  0.00    +0.000 C 
ATOM      2  C   UNL     1       0.914   9.713  20.147  0.00  0.00    +0.000 C 
ENDROOT
BRANCH   2   3
ATOM      3  C   UNL     1       1.009  10.140  18.639  0.00  0.00    +0.000 C 
ATOM      4  C   UNL     1       1.476  11.609  18.542  0.00  0.00    +0.000 C 
ATOM      5  C   UNL     1       2.030   9.314  17.806  0.00  0.00    +0.000 C 
ATOM      6  C   UNL     1      -0.335   9.984  17.893  0.00  0.00    +0.000 C 
ENDBRANCH   2   3
BRANCH   1   8
ATOM      7  C   UNL     1       2.201   6.213  20.434  0.00  0.00    +0.000 C 
ATOM      8  C   UNL     1       1.944   7.426  19.921  0.00  0.00    +0.000 C 
BRANCH   7   9
ATOM      9  C   UNL     1       2.854   5.136  19.673  0.00  0.00    +0.000 C 
ATOM     10  C   UNL     1       4.031   5.448  19.076  0.00  0.00    +0.000 C 
BRANCH   9  12
ATOM     11  C   UNL     1       2.958   2.650  20.253  0.00  0.00    +0.000 C 
ATOM     12  C   UNL     1       2.115   3.775  19.609  0.00  0.00    +0.000 C 
ATOM     13  C   UNL     1       1.775   3.405  18.149  0.00  0.00    +0.000 C 
ATOM     14  C   UNL     1       0.767   3.781  20.382  0.00  0.00    +0.000 C 
ENDBRANCH   9  12
BRANCH  10  15
ATOM     15  C   UNL     1       4.962   4.622  18.245  0.00  0.00    +0.000 C 
BRANCH  15  16
ATOM     16  N   UNL     1       6.014   4.063  19.085  0.00  0.00    +0.000 NA
ATOM     17  H   UNL     1       6.053   3.057  18.928  0.00  0.00    +0.000 HD
ATOM     18  H   UNL     1       5.753   4.181  20.061  0.00  0.00    +0.000 HD
ENDBRANCH  15  16
ENDBRANCH  10  15
ENDBRANCH   7   9
ENDBRANCH   1   8
BRANCH   2  19
ATOM     19  C   UNL     1       0.413  10.738  21.087  0.00  0.00    +0.000 C 
ATOM     20  C   UNL     1      -0.845  11.184  21.256  0.00  0.00    +0.000 C 
BRANCH  20  21
ATOM     21  C   UNL     1      -1.251  12.258  22.173  0.00  0.00    +0.000 C 
ATOM     22  C   UNL     1      -0.547  13.407  22.230  0.00  0.00    +0.000 C 
ATOM     23  C   UNL     1      -0.839  14.538  23.182  0.00  0.00    +0.000 C 
ATOM     24  C   UNL     1      -1.782  14.149  24.318  0.00  0.00    +0.000 C 
ATOM     25  C   UNL     1      -2.941  13.316  23.793  0.00  0.00    +0.000 C 
ATOM     26  C   UNL     1      -2.445  12.048  23.086  0.00  0.00    +0.000 C 
ENDBRANCH  20  21
ENDBRANCH   2  19
TORSDOF 8
ENDMDL
MODEL 6
REMARK VINA RESULT:      -6.9      0.286      1.647
REMARK  Name = 
REMARK  14 active torsions:
REMARK  status: ('A' for Active; 'I' for Inactive)
REMARK    1  A    between atoms: C_1  and  C_2
REMARK    2  A    between atoms: C_2  and  C_3
REMARK    3  A    between atoms: C_2  and  C_4
REMARK    4  A    between atoms: C_2  and  C_5
REMARK    5  A    between atoms: C_5  and  C_9
REMARK    6  A    between atoms: C_6  and  C_7
REMARK    7  A    between atoms: C_7  and  N_8
REMARK    8  A    between atoms: C_10  and  C_11
REMARK    9  A    between atoms: C_12  and  C_13
REMARK   10  A    between atoms: C_12  and  C_21
REMARK   11  A    between atoms: C_14  and  C_15
REMARK   12  A    between atoms: C_21  and  C_22
REMARK   13  A    between atoms: C_21  and  C_23
REMARK   14  A    between atoms: C_21  and  C_24
REMARK                            x       y       z     vdW  Elec       q    Type
REMARK                         _______ _______ _______ _____ _____    ______ ____
ROOT
ATOM      1  C   UNL     1       1.039   8.448  20.823  0.00  0.00    +0.000 C 
ATOM      2  C   UNL     1       0.519   9.503  20.147  0.00  0.00    +0.000 C 
ENDROOT
BRANCH   2   3
ATOM      3  C   UNL     1       0.799   9.829  18.637  0.00  0.00    +0.000 C 
ATOM      4  C   UNL     1       1.625  11.131  18.530  0.00  0.00    +0.000 C 
ATOM      5  C   UNL     1       1.624   8.741  17.891  0.00  0.00    +0.000 C 
ATOM      6  C   UNL     1      -0.498   9.982  17.812  0.00  0.00    +0.000 C 
ENDBRANCH   2   3
BRANCH   1   8
ATOM      7  C   UNL     1       1.772   6.142  20.302  0.00  0.00    +0.000 C 
ATOM      8  C   UNL     1       1.988   7.466  20.335  0.00  0.00    +0.000 C 
BRANCH   7   9
ATOM      9  C   UNL     1       2.762   5.174  19.804  0.00  0.00    +0.000 C 
ATOM     10  C   UNL     1       3.947   5.685  19.385  0.00  0.00    +0.000 C 
BRANCH   9  12
ATOM     11  C   UNL     1       2.025   3.211  18.344  0.00  0.00    +0.000 C 
ATOM     12  C   UNL     1       2.338   3.684  19.783  0.00  0.00    +0.000 C 
ATOM     13  C   UNL     1       1.109   3.452  20.689  0.00  0.00    +0.000 C 
ATOM     14  C   UNL     1       3.449   2.730  20.303  0.00  0.00    +0.000 C 
ENDBRANCH   9  12
BRANCH  10  15
ATOM     15  C   UNL     1       5.168   5.017  18.835  0.00  0.00    +0.000 C 
BRANCH  15  16
ATOM     16  N   UNL     1       6.306   5.267  19.710  0.00  0.00    +0.000 NA
ATOM     17  H   UNL     1       6.989   5.829  19.202  0.00  0.00    +0.000 HD
ATOM     18  H   UNL     1       6.768   4.383  19.910  0.00  0.00    +0.000 HD
ENDBRANCH  15  16
ENDBRANCH  10  15
ENDBRANCH   7   9
ENDBRANCH   1   8
BRANCH   2  19
ATOM     19  C   UNL     1      -0.328  10.469  20.879  0.00  0.00    +0.000 C 
ATOM     20  C   UNL     1       0.048  11.465  21.701  0.00  0.00    +0.000 C 
BRANCH  20  21
ATOM     21  C   UNL     1      -0.864  12.346  22.444  0.00  0.00    +0.000 C 
ATOM     22  C   UNL     1      -0.588  13.660  22.573  0.00  0.00    +0.000 C 
ATOM     23  C   UNL     1      -1.420  14.630  23.370  0.00  0.00    +0.000 C 
ATOM     24  C   UNL     1      -2.415  13.950  24.308  0.00  0.00    +0.000 C 
ATOM     25  C   UNL     1      -3.110  12.793  23.607  0.00  0.00    +0.000 C 
ATOM     26  C   UNL     1      -2.100  11.757  23.100  0.00  0.00    +0.000 C 
ENDBRANCH  20  21
ENDBRANCH   2  19
TORSDOF 8
ENDMDL
MODEL 7
REMARK VINA RESULT:      -6.9      0.117      1.231
REMARK  Name = 
REMARK  14 active torsions:
REMARK  status: ('A' for Active; 'I' for Inactive)
REMARK    1  A    between atoms: C_1  and  C_2
REMARK    2  A    between atoms: C_2  and  C_3
REMARK    3  A    between atoms: C_2  and  C_4
REMARK    4  A    between atoms: C_2  and  C_5
REMARK    5  A    between atoms: C_5  and  C_9
REMARK    6  A    between atoms: C_6  and  C_7
REMARK    7  A    between atoms: C_7  and  N_8
REMARK    8  A    between atoms: C_10  and  C_11
REMARK    9  A    between atoms: C_12  and  C_13
REMARK   10  A    between atoms: C_12  and  C_21
REMARK   11  A    between atoms: C_14  and  C_15
REMARK   12  A    between atoms: C_21  and  C_22
REMARK   13  A    between atoms: C_21  and  C_23
REMARK   14  A    between atoms: C_21  and  C_24
REMARK                            x       y       z     vdW  Elec       q    Type
REMARK                         _______ _______ _______ _____ _____    ______ ____
ROOT
ATOM      1  C   UNL     1       1.006   8.293  20.872  0.00  0.00    +0.000 C 
ATOM      2  C   UNL     1       0.459   9.398  20.305  0.00  0.00    +0.000 C 
ENDROOT
BRANCH   2   3
ATOM      3  C   UNL     1       0.709   9.869  18.828  0.00  0.00    +0.000 C 
ATOM      4  C   UNL     1       1.376   8.729  18.025  0.00  0.00    +0.000 C 
ATOM      5  C   UNL     1      -0.585  10.238  18.048  0.00  0.00    +0.000 C 
ATOM      6  C   UNL     1       1.597  11.131  18.750  0.00  0.00    +0.000 C 
ENDBRANCH   2   3
BRANCH   1   8
ATOM      7  C   UNL     1       1.874   6.038  20.333  0.00  0.00    +0.000 C 
ATOM      8  C   UNL     1       1.961   7.377  20.279  0.00  0.00    +0.000 C 
BRANCH   7   9
ATOM      9  C   UNL     1       2.867   5.139  19.724  0.00  0.00    +0.000 C 
ATOM     10  C   UNL     1       4.053   5.698  19.376  0.00  0.00    +0.000 C 
BRANCH   9  12
ATOM     11  C   UNL     1       2.370   3.307  18.013  0.00  0.00    +0.000 C 
ATOM     12  C   UNL     1       2.442   3.663  19.516  0.00  0.00    +0.000 C 
ATOM     13  C   UNL     1       1.079   3.386  20.187  0.00  0.00    +0.000 C 
ATOM     14  C   UNL     1       3.446   2.652  20.137  0.00  0.00    +0.000 C 
ENDBRANCH   9  12
BRANCH  10  15
ATOM     15  C   UNL     1       5.276   5.103  18.753  0.00  0.00    +0.000 C 
BRANCH  15  16
ATOM     16  N   UNL     1       6.398   5.193  19.679  0.00  0.00    +0.000 NA
ATOM     17  H   UNL     1       6.632   6.177  19.811  0.00  0.00    +0.000 HD
ATOM     18  H   UNL     1       7.216   4.769  19.247  0.00  0.00    +0.000 HD
ENDBRANCH  15  16
ENDBRANCH  10  15
ENDBRANCH   7   9
ENDBRANCH   1   8
BRANCH   2  19
ATOM     19  C   UNL     1      -0.389  10.278  21.137  0.00  0.00    +0.000 C 
ATOM     20  C   UNL     1      -0.132  11.521  21.583  0.00  0.00    +0.000 C 
BRANCH  20  21
ATOM     21  C   UNL     1      -1.007  12.307  22.464  0.00  0.00    +0.000 C 
ATOM     22  C   UNL     1      -2.124  11.756  22.981  0.00  0.00    +0.000 C 
ATOM     23  C   UNL     1      -3.120  12.495  23.837  0.00  0.00    +0.000 C 
ATOM     24  C   UNL     1      -2.950  14.012  23.795  0.00  0.00    +0.000 C 
ATOM     25  C   UNL     1      -1.481  14.391  23.888  0.00  0.00    +0.000 C 
ATOM     26  C   UNL     1      -0.665  13.756  22.755  0.00  0.00    +0.000 C 
ENDBRANCH  20  21
ENDBRANCH   2  19
TORSDOF 8
ENDMDL
MODEL 8
REMARK VINA RESULT:      -6.8      0.849      1.252
REMARK  Name = 
REMARK  14 active torsions:
REMARK  status: ('A' for Active; 'I' for Inactive)
REMARK    1  A    between atoms: C_1  and  C_2
REMARK    2  A    between atoms: C_2  and  C_3
REMARK    3  A    between atoms: C_2  and  C_4
REMARK    4  A    between atoms: C_2  and  C_5
REMARK    5  A    between atoms: C_5  and  C_9
REMARK    6  A    between atoms: C_6  and  C_7
REMARK    7  A    between atoms: C_7  and  N_8
REMARK    8  A    between atoms: C_10  and  C_11
REMARK    9  A    between atoms: C_12  and  C_13
REMARK   10  A    between atoms: C_12  and  C_21
REMARK   11  A    between atoms: C_14  and  C_15
REMARK   12  A    between atoms: C_21  and  C_22
REMARK   13  A    between atoms: C_21  and  C_23
REMARK   14  A    between atoms: C_21  and  C_24
REMARK                            x       y       z     vdW  Elec       q    Type
REMARK                         _______ _______ _______ _____ _____    ______ ____
ROOT
ATOM      1  C   UNL     1       1.203   8.632  20.838  0.00  0.00    +0.000 C 
ATOM      2  C   UNL     1       0.760   9.829  20.377  0.00  0.00    +0.000 C 
ENDROOT
BRANCH   2   3
ATOM      3  C   UNL     1       0.862  10.313  18.887  0.00  0.00    +0.000 C 
ATOM      4  C   UNL     1      -0.499  10.117  18.182  0.00  0.00    +0.000 C 
ATOM      5  C   UNL     1       1.210  11.820  18.727  0.00  0.00    +0.000 C 
ATOM      6  C   UNL     1       1.956   9.564  18.093  0.00  0.00    +0.000 C 
ENDBRANCH   2   3
BRANCH   1   8
ATOM      7  C   UNL     1       2.027   6.325  20.483  0.00  0.00    +0.000 C 
ATOM      8  C   UNL     1       1.902   7.603  20.093  0.00  0.00    +0.000 C 
BRANCH   7   9
ATOM      9  C   UNL     1       2.750   5.309  19.703  0.00  0.00    +0.000 C 
ATOM     10  C   UNL     1       4.013   5.626  19.322  0.00  0.00    +0.000 C 
BRANCH   9  12
ATOM     11  C   UNL     1       1.518   3.982  17.901  0.00  0.00    +0.000 C 
ATOM     12  C   UNL     1       1.986   4.002  19.374  0.00  0.00    +0.000 C 
ATOM     13  C   UNL     1       0.770   3.827  20.311  0.00  0.00    +0.000 C 
ATOM     14  C   UNL     1       2.859   2.728  19.552  0.00  0.00    +0.000 C 
ENDBRANCH   9  12
BRANCH  10  15
ATOM     15  C   UNL     1       5.030   4.854  18.543  0.00  0.00    +0.000 C 
BRANCH  15  16
ATOM     16  N   UNL     1       4.875   5.126  17.119  0.00  0.00    +0.000 NA
ATOM     17  H   UNL     1       5.476   5.911  16.871  0.00  0.00    +0.000 HD
ATOM     18  H   UNL     1       3.923   5.440  16.946  0.00  0.00    +0.000 HD
ENDBRANCH  15  16
ENDBRANCH  10  15
ENDBRANCH   7   9
ENDBRANCH   1   8
BRANCH   2  19
ATOM     19  C   UNL     1       0.194  10.796  21.341  0.00  0.00    +0.000 C 
ATOM     20  C   UNL     1      -1.090  11.157  21.518  0.00  0.00    +0.000 C 
BRANCH  20  21
ATOM     21  C   UNL     1      -1.564  12.179  22.462  0.00  0.00    +0.000 C 
ATOM     22  C   UNL     1      -2.701  11.984  23.161  0.00  0.00    +0.000 C 
ATOM     23  C   UNL     1      -3.307  12.996  24.099  0.00  0.00    +0.000 C 
ATOM     24  C   UNL     1      -2.724  14.398  23.940  0.00  0.00    +0.000 C 
ATOM     25  C   UNL     1      -1.211  14.340  23.805  0.00  0.00    +0.000 C 
ATOM     26  C   UNL     1      -0.787  13.474  22.612  0.00  0.00    +0.000 C 
ENDBRANCH  20  21
ENDBRANCH   2  19
TORSDOF 8
ENDMDL
MODEL 9
REMARK VINA RESULT:      -6.8      2.830      4.132
REMARK  Name = 
REMARK  14 active torsions:
REMARK  status: ('A' for Active; 'I' for Inactive)
REMARK    1  A    between atoms: C_1  and  C_2
REMARK    2  A    between atoms: C_2  and  C_3
REMARK    3  A    between atoms: C_2  and  C_4
REMARK    4  A    between atoms: C_2  and  C_5
REMARK    5  A    between atoms: C_5  and  C_9
REMARK    6  A    between atoms: C_6  and  C_7
REMARK    7  A    between atoms: C_7  and  N_8
REMARK    8  A    between atoms: C_10  and  C_11
REMARK    9  A    between atoms: C_12  and  C_13
REMARK   10  A    between atoms: C_12  and  C_21
REMARK   11  A    between atoms: C_14  and  C_15
REMARK   12  A    between atoms: C_21  and  C_22
REMARK   13  A    between atoms: C_21  and  C_23
REMARK   14  A    between atoms: C_21  and  C_24
REMARK                            x       y       z     vdW  Elec       q    Type
REMARK                         _______ _______ _______ _____ _____    ______ ____
ROOT
ATOM      1  C   UNL     1       1.420   9.139  18.364  0.00  0.00    +0.000 C 
ATOM      2  C   UNL     1       0.601   9.314  19.432  0.00  0.00    +0.000 C 
ENDROOT
BRANCH   2   3
ATOM      3  C   UNL     1       0.850   8.716  20.862  0.00  0.00    +0.000 C 
ATOM      4  C   UNL     1      -0.493   8.599  21.618  0.00  0.00    +0.000 C 
ATOM      5  C   UNL     1       1.461   7.286  20.858  0.00  0.00    +0.000 C 
ATOM      6  C   UNL     1       1.830   9.568  21.699  0.00  0.00    +0.000 C 
ENDBRANCH   2   3
BRANCH   1   8
ATOM      7  C   UNL     1       2.742   7.187  17.608  0.00  0.00    +0.000 C 
ATOM      8  C   UNL     1       2.624   8.334  18.296  0.00  0.00    +0.000 C 
BRANCH   7   9
ATOM      9  C   UNL     1       3.980   6.393  17.567  0.00  0.00    +0.000 C 
ATOM     10  C   UNL     1       5.108   7.054  17.204  0.00  0.00    +0.000 C 
BRANCH   9  12
ATOM     11  C   UNL     1       2.385   4.481  18.139  0.00  0.00    +0.000 C 
ATOM     12  C   UNL     1       3.859   4.887  17.911  0.00  0.00    +0.000 C 
ATOM     13  C   UNL     1       4.696   4.543  19.162  0.00  0.00    +0.000 C 
ATOM     14  C   UNL     1       4.375   3.963  16.774  0.00  0.00    +0.000 C 
ENDBRANCH   9  12
BRANCH  10  15
ATOM     15  C   UNL     1       6.521   6.584  17.063  0.00  0.00    +0.000 C 
BRANCH  15  16
ATOM     16  N   UNL     1       7.432   7.720  17.139  0.00  0.00    +0.000 NA
ATOM     17  H   UNL     1       8.168   7.591  16.447  0.00  0.00    +0.000 HD
ATOM     18  H   UNL     1       7.896   7.709  18.044  0.00  0.00    +0.000 HD
ENDBRANCH  15  16
ENDBRANCH  10  15
ENDBRANCH   7   9
ENDBRANCH   1   8
BRANCH   2  19
ATOM     19  C   UNL     1      -0.658  10.066  19.247  0.00  0.00    +0.000 C 
ATOM     20  C   UNL     1      -1.556   9.973  18.250  0.00  0.00    +0.000 C 
BRANCH  20  21
ATOM     21  C   UNL     1      -2.757  10.808  18.106  0.00  0.00    +0.000 C 
ATOM     22  C   UNL     1      -3.101  11.680  19.077  0.00  0.00    +0.000 C 
ATOM     23  C   UNL     1      -4.345  12.528  19.057  0.00  0.00    +0.000 C 
ATOM     24  C   UNL     1      -5.370  12.080  18.018  0.00  0.00    +0.000 C 
ATOM     25  C   UNL     1      -4.690  11.748  16.700  0.00  0.00    +0.000 C 
ATOM     26  C   UNL     1      -3.631  10.652  16.876  0.00  0.00    +0.000 C 
ENDBRANCH  20  21
ENDBRANCH   2  19
TORSDOF 8
ENDMDL
