MODEL 1
REMARK VINA RESULT:      -8.0      0.000      0.000
REMARK  Name = 
REMARK  6 active torsions:
REMARK  status: ('A' for Active; 'I' for Inactive)
REMARK    1  A    between atoms: C_1  and  C_2
REMARK    2  A    between atoms: C_2  and  N_3
REMARK    3  A    between atoms: C_7  and  C_8
REMARK    4  A    between atoms: C_17  and  N_18
REMARK    5  A    between atoms: C_19  and  C_21
REMARK    6  A    between atoms: C_26  and  N_27
REMARK                            x       y       z     vdW  Elec       q    Type
REMARK                         _______ _______ _______ _____ _____    ______ ____
ROOT
ATOM      1  C   UNL     1       5.257   6.625  16.456  0.00  0.00    +0.000 C 
ATOM      2  C   UNL     1       6.259   5.491  16.726  0.00  0.00    +0.000 C 
ATOM      3  C   UNL     1       7.080   5.223  15.434  0.00  0.00    +0.000 C 
ATOM      4  C   UNL     1       6.208   4.337  14.550  0.00  0.00    +0.000 C 
ATOM      5  C   UNL     1       5.239   3.630  15.494  0.00  0.00    +0.000 C 
ATOM      6  C   UNL     1       5.620   4.082  16.910  0.00  0.00    +0.000 C 
ENDROOT
BRANCH   2   7
ATOM      7  N   UNL     1       7.239   5.852  17.766  0.00  0.00    +0.000 N 
ATOM      8  C   UNL     1       7.736   7.148  17.908  0.00  0.00    +0.000 A 
ATOM      9  C   UNL     1       8.485   7.475  19.043  0.00  0.00    +0.000 A 
ATOM     10  N   UNL     1       8.988   8.712  19.306  0.00  0.00    +0.000 NA
ATOM     11  C   UNL     1       8.687   9.668  18.387  0.00  0.00    +0.000 A 
ATOM     12  C   UNL     1       7.970   9.345  17.245  0.00  0.00    +0.000 A 
ATOM     13  N   UNL     1       7.504   8.096  16.986  0.00  0.00    +0.000 NA
ATOM     14  H   UNL     1       8.000   5.187  17.839  0.00  0.00    +0.000 HD
BRANCH  11  15
ATOM     15  C   UNL     1       9.092  11.110  18.593  0.00  0.00    +0.000 C 
ATOM     16  F   UNL     1       8.925  11.571  19.864  0.00  0.00    +0.000 F 
ATOM     17  F   UNL     1      10.405  11.335  18.289  0.00  0.00    +0.000 F 
ATOM     18  F   UNL     1       8.390  11.968  17.795  0.00  0.00    +0.000 F 
ENDBRANCH  11  15
ENDBRANCH   2   7
BRANCH   6  19
ATOM     19  N   UNL     1       4.482   3.966  17.799  0.00  0.00    +0.000 N 
ATOM     20  C   UNL     1       4.617   4.159  19.158  0.00  0.00    +0.000 C 
ATOM     21  O   UNL     1       5.638   4.581  19.699  0.00  0.00    +0.000 OA
ATOM     22  H   UNL     1       3.544   3.832  17.441  0.00  0.00    +0.000 HD
BRANCH  20  23
ATOM     23  C   UNL     1       3.403   3.853  19.977  0.00  0.00    +0.000 A 
ATOM     24  N   UNL     1       3.440   2.677  20.674  0.00  0.00    +0.000 NA
ATOM     25  C   UNL     1       2.273   2.259  21.219  0.00  0.00    +0.000 A 
ATOM     26  C   UNL     1       1.069   2.939  21.088  0.00  0.00    +0.000 A 
ATOM     27  C   UNL     1       1.055   4.144  20.392  0.00  0.00    +0.000 A 
ATOM     28  C   UNL     1       2.252   4.630  19.857  0.00  0.00    +0.000 A 
BRANCH  28  29
ATOM     29  N   UNL     1       2.304   5.929  19.313  0.00  0.00    +0.000 N 
ATOM     30  C   UNL     1       2.155   6.283  17.988  0.00  0.00    +0.000 A 
ATOM     31  C   UNL     1       2.134   7.657  17.943  0.00  0.00    +0.000 A 
ATOM     32  C   UNL     1       2.222   8.054  19.285  0.00  0.00    +0.000 A 
ATOM     33  N   UNL     1       2.281   7.018  20.121  0.00  0.00    +0.000 NA
ENDBRANCH  28  29
ENDBRANCH  20  23
ENDBRANCH   6  19
TORSDOF 5
ENDMDL
MODEL 2
REMARK VINA RESULT:      -7.6      2.557      5.048
REMARK  Name = 
REMARK  6 active torsions:
REMARK  status: ('A' for Active; 'I' for Inactive)
REMARK    1  A    between atoms: C_1  and  C_2
REMARK    2  A    between atoms: C_2  and  N_3
REMARK    3  A    between atoms: C_7  and  C_8
REMARK    4  A    between atoms: C_17  and  N_18
REMARK    5  A    between atoms: C_19  and  C_21
REMARK    6  A    between atoms: C_26  and  N_27
REMARK                            x       y       z     vdW  Elec       q    Type
REMARK                         _______ _______ _______ _____ _____    ______ ____
ROOT
ATOM      1  C   UNL     1       2.546   3.393  17.339  0.00  0.00    +0.000 C 
ATOM      2  C   UNL     1       2.973   3.436  18.814  0.00  0.00    +0.000 C 
ATOM      3  C   UNL     1       2.459   2.155  19.527  0.00  0.00    +0.000 C 
ATOM      4  C   UNL     1       0.996   2.416  19.872  0.00  0.00    +0.000 C 
ATOM      5  C   UNL     1       0.845   3.934  19.930  0.00  0.00    +0.000 C 
ATOM      6  C   UNL     1       2.245   4.509  19.678  0.00  0.00    +0.000 C 
ENDROOT
BRANCH   2   7
ATOM      7  N   UNL     1       4.440   3.429  18.968  0.00  0.00    +0.000 N 
ATOM      8  C   UNL     1       5.236   4.511  18.590  0.00  0.00    +0.000 A 
ATOM      9  C   UNL     1       6.584   4.533  18.965  0.00  0.00    +0.000 A 
ATOM     10  N   UNL     1       7.446   5.549  18.686  0.00  0.00    +0.000 NA
ATOM     11  C   UNL     1       6.902   6.606  18.024  0.00  0.00    +0.000 A 
ATOM     12  C   UNL     1       5.574   6.578  17.625  0.00  0.00    +0.000 A 
ATOM     13  N   UNL     1       4.739   5.540  17.885  0.00  0.00    +0.000 NA
ATOM     14  H   UNL     1       4.866   2.566  18.649  0.00  0.00    +0.000 HD
BRANCH  11  15
ATOM     15  C   UNL     1       7.710   7.850  17.734  0.00  0.00    +0.000 C 
ATOM     16  F   UNL     1       8.661   8.141  18.665  0.00  0.00    +0.000 F 
ATOM     17  F   UNL     1       8.372   7.778  16.540  0.00  0.00    +0.000 F 
ATOM     18  F   UNL     1       6.931   8.969  17.641  0.00  0.00    +0.000 F 
ENDBRANCH  11  15
ENDBRANCH   2   7
BRANCH   6  19
ATOM     19  N   UNL     1       2.149   5.854  19.147  0.00  0.00    +0.000 N 
ATOM     20  C   UNL     1       2.014   6.942  19.982  0.00  0.00    +0.000 C 
ATOM     21  O   UNL     1       2.113   6.891  21.207  0.00  0.00    +0.000 OA
ATOM     22  H   UNL     1       2.272   6.041  18.158  0.00  0.00    +0.000 HD
BRANCH  20  23
ATOM     23  C   UNL     1       1.765   8.252  19.301  0.00  0.00    +0.000 A 
ATOM     24  N   UNL     1       2.171   8.327  17.997  0.00  0.00    +0.000 NA
ATOM     25  C   UNL     1       2.184   9.560  17.439  0.00  0.00    +0.000 A 
ATOM     26  C   UNL     1       1.838  10.722  18.115  0.00  0.00    +0.000 A 
ATOM     27  C   UNL     1       1.409  10.622  19.436  0.00  0.00    +0.000 A 
ATOM     28  C   UNL     1       1.336   9.359  20.029  0.00  0.00    +0.000 A 
BRANCH  28  29
ATOM     29  N   UNL     1       0.732   9.210  21.294  0.00  0.00    +0.000 N 
ATOM     30  C   UNL     1       1.239   9.615  22.512  0.00  0.00    +0.000 A 
ATOM     31  C   UNL     1       0.254   9.398  23.446  0.00  0.00    +0.000 A 
ATOM     32  C   UNL     1      -0.832   8.911  22.705  0.00  0.00    +0.000 A 
ATOM     33  N   UNL     1      -0.567   8.835  21.400  0.00  0.00    +0.000 NA
ENDBRANCH  28  29
ENDBRANCH  20  23
ENDBRANCH   6  19
TORSDOF 5
ENDMDL
MODEL 3
REMARK VINA RESULT:      -7.2      8.936     12.075
REMARK  Name = 
REMARK  6 active torsions:
REMARK  status: ('A' for Active; 'I' for Inactive)
REMARK    1  A    between atoms: C_1  and  C_2
REMARK    2  A    between atoms: C_2  and  N_3
REMARK    3  A    between atoms: C_7  and  C_8
REMARK    4  A    between atoms: C_17  and  N_18
REMARK    5  A    between atoms: C_19  and  C_21
REMARK    6  A    between atoms: C_26  and  N_27
REMARK                            x       y       z     vdW  Elec       q    Type
REMARK                         _______ _______ _______ _____ _____    ______ ____
ROOT
ATOM      1  C   UNL     1      -5.264  10.378  18.168  0.00  0.00    +0.000 C 
ATOM      2  C   UNL     1      -4.520  11.624  17.663  0.00  0.00    +0.000 C 
ATOM      3  C   UNL     1      -4.606  11.670  16.112  0.00  0.00    +0.000 C 
ATOM      4  C   UNL     1      -3.522  10.729  15.597  0.00  0.00    +0.000 C 
ATOM      5  C   UNL     1      -2.486  10.632  16.713  0.00  0.00    +0.000 C 
ATOM      6  C   UNL     1      -2.971  11.574  17.823  0.00  0.00    +0.000 C 
ENDROOT
BRANCH   2   7
ATOM      7  N   UNL     1      -5.139  12.873  18.144  0.00  0.00    +0.000 N 
ATOM      8  C   UNL     1      -5.449  13.083  19.488  0.00  0.00    +0.000 A 
ATOM      9  C   UNL     1      -5.824  14.363  19.913  0.00  0.00    +0.000 A 
ATOM     10  N   UNL     1      -6.113  14.695  21.200  0.00  0.00    +0.000 NA
ATOM     11  C   UNL     1      -5.983  13.685  22.103  0.00  0.00    +0.000 A 
ATOM     12  C   UNL     1      -5.641  12.408  21.685  0.00  0.00    +0.000 A 
ATOM     13  N   UNL     1      -5.387  12.090  20.390  0.00  0.00    +0.000 NA
ATOM     14  H   UNL     1      -5.912  13.179  17.565  0.00  0.00    +0.000 HD
BRANCH  11  15
ATOM     15  C   UNL     1      -6.174  13.926  23.583  0.00  0.00    +0.000 C 
ATOM     16  F   UNL     1      -5.054  14.337  24.241  0.00  0.00    +0.000 F 
ATOM     17  F   UNL     1      -7.123  14.876  23.842  0.00  0.00    +0.000 F 
ATOM     18  F   UNL     1      -6.601  12.809  24.244  0.00  0.00    +0.000 F 
ENDBRANCH  11  15
ENDBRANCH   2   7
BRANCH   6  19
ATOM     19  N   UNL     1      -2.437  11.158  19.105  0.00  0.00    +0.000 N 
ATOM     20  C   UNL     1      -1.141  11.458  19.468  0.00  0.00    +0.000 C 
ATOM     21  O   UNL     1      -0.399  12.204  18.831  0.00  0.00    +0.000 OA
ATOM     22  H   UNL     1      -3.025  10.721  19.805  0.00  0.00    +0.000 HD
BRANCH  20  23
ATOM     23  C   UNL     1      -0.668  10.834  20.743  0.00  0.00    +0.000 A 
ATOM     24  N   UNL     1      -0.223   9.545  20.643  0.00  0.00    +0.000 NA
ATOM     25  C   UNL     1      -0.024   8.881  21.805  0.00  0.00    +0.000 A 
ATOM     26  C   UNL     1      -0.265   9.424  23.060  0.00  0.00    +0.000 A 
ATOM     27  C   UNL     1      -0.700  10.744  23.143  0.00  0.00    +0.000 A 
ATOM     28  C   UNL     1      -0.869  11.476  21.963  0.00  0.00    +0.000 A 
BRANCH  28  29
ATOM     29  N   UNL     1      -1.125  12.860  22.025  0.00  0.00    +0.000 N 
ATOM     30  C   UNL     1      -2.340  13.472  22.255  0.00  0.00    +0.000 A 
ATOM     31  C   UNL     1      -2.092  14.819  22.373  0.00  0.00    +0.000 A 
ATOM     32  C   UNL     1      -0.699  14.931  22.255  0.00  0.00    +0.000 A 
ATOM     33  N   UNL     1      -0.104  13.750  22.088  0.00  0.00    +0.000 NA
ENDBRANCH  28  29
ENDBRANCH  20  23
ENDBRANCH   6  19
TORSDOF 5
ENDMDL
MODEL 4
REMARK VINA RESULT:      -7.1      5.938      9.127
REMARK  Name = 
REMARK  6 active torsions:
REMARK  status: ('A' for Active; 'I' for Inactive)
REMARK    1  A    between atoms: C_1  and  C_2
REMARK    2  A    between atoms: C_2  and  N_3
REMARK    3  A    between atoms: C_7  and  C_8
REMARK    4  A    between atoms: C_17  and  N_18
REMARK    5  A    between atoms: C_19  and  C_21
REMARK    6  A    between atoms: C_26  and  N_27
REMARK                            x       y       z     vdW  Elec       q    Type
REMARK                         _______ _______ _______ _____ _____    ______ ____
ROOT
ATOM      1  C   UNL     1       1.717  11.261  18.885  0.00  0.00    +0.000 C 
ATOM      2  C   UNL     1       0.573  10.277  19.177  0.00  0.00    +0.000 C 
ATOM      3  C   UNL     1      -0.350  10.884  20.269  0.00  0.00    +0.000 C 
ATOM      4  C   UNL     1       0.327  10.601  21.606  0.00  0.00    +0.000 C 
ATOM      5  C   UNL     1       1.230   9.393  21.370  0.00  0.00    +0.000 C 
ATOM      6  C   UNL     1       1.001   8.972  19.913  0.00  0.00    +0.000 C 
ENDROOT
BRANCH   2   7
ATOM      7  N   UNL     1      -0.281  10.053  17.996  0.00  0.00    +0.000 N 
ATOM      8  C   UNL     1      -1.587  10.537  17.917  0.00  0.00    +0.000 A 
ATOM      9  C   UNL     1      -2.264  10.487  16.693  0.00  0.00    +0.000 A 
ATOM     10  N   UNL     1      -3.523  10.960  16.487  0.00  0.00    +0.000 NA
ATOM     11  C   UNL     1      -4.109  11.541  17.569  0.00  0.00    +0.000 A 
ATOM     12  C   UNL     1      -3.455  11.568  18.792  0.00  0.00    +0.000 A 
ATOM     13  N   UNL     1      -2.211  11.061  18.984  0.00  0.00    +0.000 NA
ATOM     14  H   UNL     1      -0.252   9.096  17.664  0.00  0.00    +0.000 HD
BRANCH  11  15
ATOM     15  C   UNL     1      -5.465  12.201  17.467  0.00  0.00    +0.000 C 
ATOM     16  F   UNL     1      -5.655  12.940  16.338  0.00  0.00    +0.000 F 
ATOM     17  F   UNL     1      -6.490  11.298  17.494  0.00  0.00    +0.000 F 
ATOM     18  F   UNL     1      -5.712  13.050  18.509  0.00  0.00    +0.000 F 
ENDBRANCH  11  15
ENDBRANCH   2   7
BRANCH   6  19
ATOM     19  N   UNL     1       2.158   8.258  19.407  0.00  0.00    +0.000 N 
ATOM     20  C   UNL     1       2.110   7.586  18.205  0.00  0.00    +0.000 C 
ATOM     21  O   UNL     1       1.173   7.654  17.411  0.00  0.00    +0.000 OA
ATOM     22  H   UNL     1       3.055   8.311  19.874  0.00  0.00    +0.000 HD
BRANCH  20  23
ATOM     23  C   UNL     1       3.315   6.762  17.878  0.00  0.00    +0.000 A 
ATOM     24  N   UNL     1       4.290   7.396  17.157  0.00  0.00    +0.000 NA
ATOM     25  C   UNL     1       5.267   6.615  16.642  0.00  0.00    +0.000 A 
ATOM     26  C   UNL     1       5.313   5.234  16.787  0.00  0.00    +0.000 A 
ATOM     27  C   UNL     1       4.324   4.609  17.539  0.00  0.00    +0.000 A 
ATOM     28  C   UNL     1       3.326   5.391  18.128  0.00  0.00    +0.000 A 
BRANCH  28  29
ATOM     29  N   UNL     1       2.425   4.811  19.043  0.00  0.00    +0.000 N 
ATOM     30  C   UNL     1       1.492   3.828  18.784  0.00  0.00    +0.000 A 
ATOM     31  C   UNL     1       0.943   3.471  19.992  0.00  0.00    +0.000 A 
ATOM     32  C   UNL     1       1.635   4.245  20.935  0.00  0.00    +0.000 A 
ATOM     33  N   UNL     1       2.560   5.024  20.376  0.00  0.00    +0.000 NA
ENDBRANCH  28  29
ENDBRANCH  20  23
ENDBRANCH   6  19
TORSDOF 5
ENDMDL
MODEL 5
REMARK VINA RESULT:      -7.1      2.993      6.348
REMARK  Name = 
REMARK  6 active torsions:
REMARK  status: ('A' for Active; 'I' for Inactive)
REMARK    1  A    between atoms: C_1  and  C_2
REMARK    2  A    between atoms: C_2  and  N_3
REMARK    3  A    between atoms: C_7  and  C_8
REMARK    4  A    between atoms: C_17  and  N_18
REMARK    5  A    between atoms: C_19  and  C_21
REMARK    6  A    between atoms: C_26  and  N_27
REMARK                            x       y       z     vdW  Elec       q    Type
REMARK                         _______ _______ _______ _____ _____    ______ ____
ROOT
ATOM      1  C   UNL     1       2.834   3.434  21.074  0.00  0.00    +0.000 C 
ATOM      2  C   UNL     1       1.849   4.272  20.244  0.00  0.00    +0.000 C 
ATOM      3  C   UNL     1       0.608   3.403  19.902  0.00  0.00    +0.000 C 
ATOM      4  C   UNL     1       1.002   2.551  18.700  0.00  0.00    +0.000 C 
ATOM      5  C   UNL     1       2.136   3.302  18.009  0.00  0.00    +0.000 C 
ATOM      6  C   UNL     1       2.324   4.604  18.798  0.00  0.00    +0.000 C 
ENDROOT
BRANCH   2   7
ATOM      7  N   UNL     1       1.339   5.434  20.996  0.00  0.00    +0.000 N 
ATOM      8  C   UNL     1       1.391   6.733  20.489  0.00  0.00    +0.000 A 
ATOM      9  C   UNL     1       0.695   7.754  21.146  0.00  0.00    +0.000 A 
ATOM     10  N   UNL     1       0.642   9.047  20.726  0.00  0.00    +0.000 NA
ATOM     11  C   UNL     1       1.301   9.307  19.564  0.00  0.00    +0.000 A 
ATOM     12  C   UNL     1       2.017   8.306  18.924  0.00  0.00    +0.000 A 
ATOM     13  N   UNL     1       2.083   7.029  19.377  0.00  0.00    +0.000 NA
ATOM     14  H   UNL     1       1.634   5.436  21.966  0.00  0.00    +0.000 HD
BRANCH  11  15
ATOM     15  C   UNL     1       1.249  10.673  18.922  0.00  0.00    +0.000 C 
ATOM     16  F   UNL     1       1.419  11.715  19.784  0.00  0.00    +0.000 F 
ATOM     17  F   UNL     1       2.201  10.835  17.955  0.00  0.00    +0.000 F 
ATOM     18  F   UNL     1       0.059  10.908  18.292  0.00  0.00    +0.000 F 
ENDBRANCH  11  15
ENDBRANCH   2   7
BRANCH   6  19
ATOM     19  N   UNL     1       3.674   5.106  18.629  0.00  0.00    +0.000 N 
ATOM     20  C   UNL     1       4.753   4.249  18.593  0.00  0.00    +0.000 C 
ATOM     21  O   UNL     1       4.662   3.023  18.548  0.00  0.00    +0.000 OA
ATOM     22  H   UNL     1       3.853   6.085  18.440  0.00  0.00    +0.000 HD
BRANCH  20  23
ATOM     23  C   UNL     1       6.098   4.905  18.575  0.00  0.00    +0.000 A 
ATOM     24  N   UNL     1       6.658   5.140  19.800  0.00  0.00    +0.000 NA
ATOM     25  C   UNL     1       7.746   5.944  19.823  0.00  0.00    +0.000 A 
ATOM     26  C   UNL     1       8.292   6.545  18.696  0.00  0.00    +0.000 A 
ATOM     27  C   UNL     1       7.719   6.278  17.456  0.00  0.00    +0.000 A 
ATOM     28  C   UNL     1       6.623   5.412  17.389  0.00  0.00    +0.000 A 
BRANCH  28  29
ATOM     29  N   UNL     1       6.144   4.980  16.136  0.00  0.00    +0.000 N 
ATOM     30  C   UNL     1       5.333   5.682  15.267  0.00  0.00    +0.000 A 
ATOM     31  C   UNL     1       5.241   4.936  14.117  0.00  0.00    +0.000 A 
ATOM     32  C   UNL     1       6.066   3.826  14.351  0.00  0.00    +0.000 A 
ATOM     33  N   UNL     1       6.648   3.866  15.550  0.00  0.00    +0.000 NA
ENDBRANCH  28  29
ENDBRANCH  20  23
ENDBRANCH   6  19
TORSDOF 5
ENDMDL
MODEL 6
REMARK VINA RESULT:      -7.1      6.076      9.080
REMARK  Name = 
REMARK  6 active torsions:
REMARK  status: ('A' for Active; 'I' for Inactive)
REMARK    1  A    between atoms: C_1  and  C_2
REMARK    2  A    between atoms: C_2  and  N_3
REMARK    3  A    between atoms: C_7  and  C_8
REMARK    4  A    between atoms: C_17  and  N_18
REMARK    5  A    between atoms: C_19  and  C_21
REMARK    6  A    between atoms: C_26  and  N_27
REMARK                            x       y       z     vdW  Elec       q    Type
REMARK                         _______ _______ _______ _____ _____    ______ ____
ROOT
ATOM      1  C   UNL     1      -0.787   8.176  21.024  0.00  0.00    +0.000 C 
ATOM      2  C   UNL     1       0.146   9.394  21.116  0.00  0.00    +0.000 C 
ATOM      3  C   UNL     1       1.178   9.156  22.252  0.00  0.00    +0.000 C 
ATOM      4  C   UNL     1       0.469   9.514  23.554  0.00  0.00    +0.000 C 
ATOM      5  C   UNL     1      -0.653  10.474  23.169  0.00  0.00    +0.000 C 
ATOM      6  C   UNL     1      -0.521  10.694  21.656  0.00  0.00    +0.000 C 
ENDROOT
BRANCH   2   7
ATOM      7  N   UNL     1       0.932   9.585  19.882  0.00  0.00    +0.000 N 
ATOM      8  C   UNL     1       1.731   8.577  19.342  0.00  0.00    +0.000 A 
ATOM      9  C   UNL     1       2.270   8.742  18.061  0.00  0.00    +0.000 A 
ATOM     10  N   UNL     1       3.031   7.815  17.418  0.00  0.00    +0.000 NA
ATOM     11  C   UNL     1       3.224   6.651  18.097  0.00  0.00    +0.000 A 
ATOM     12  C   UNL     1       2.717   6.492  19.378  0.00  0.00    +0.000 A 
ATOM     13  N   UNL     1       1.987   7.443  20.014  0.00  0.00    +0.000 NA
ATOM     14  H   UNL     1       1.439  10.463  19.870  0.00  0.00    +0.000 HD
BRANCH  11  15
ATOM     15  C   UNL     1       3.963   5.492  17.470  0.00  0.00    +0.000 C 
ATOM     16  F   UNL     1       3.177   4.431  17.133  0.00  0.00    +0.000 F 
ATOM     17  F   UNL     1       4.619   5.845  16.325  0.00  0.00    +0.000 F 
ATOM     18  F   UNL     1       4.931   4.985  18.291  0.00  0.00    +0.000 F 
ENDBRANCH  11  15
ENDBRANCH   2   7
BRANCH   6  19
ATOM     19  N   UNL     1      -1.798  11.084  21.091  0.00  0.00    +0.000 N 
ATOM     20  C   UNL     1      -1.884  12.097  20.160  0.00  0.00    +0.000 C 
ATOM     21  O   UNL     1      -0.914  12.637  19.632  0.00  0.00    +0.000 OA
ATOM     22  H   UNL     1      -2.644  10.565  21.292  0.00  0.00    +0.000 HD
BRANCH  20  23
ATOM     23  C   UNL     1      -3.273  12.507  19.779  0.00  0.00    +0.000 A 
ATOM     24  N   UNL     1      -3.891  13.375  20.637  0.00  0.00    +0.000 NA
ATOM     25  C   UNL     1      -5.218  13.566  20.453  0.00  0.00    +0.000 A 
ATOM     26  C   UNL     1      -5.966  12.923  19.476  0.00  0.00    +0.000 A 
ATOM     27  C   UNL     1      -5.316  12.058  18.600  0.00  0.00    +0.000 A 
ATOM     28  C   UNL     1      -3.936  11.874  18.730  0.00  0.00    +0.000 A 
BRANCH  28  29
ATOM     29  N   UNL     1      -3.226  11.155  17.748  0.00  0.00    +0.000 N 
ATOM     30  C   UNL     1      -2.625   9.921  17.891  0.00  0.00    +0.000 A 
ATOM     31  C   UNL     1      -2.181   9.547  16.645  0.00  0.00    +0.000 A 
ATOM     32  C   UNL     1      -2.599  10.583  15.797  0.00  0.00    +0.000 A 
ATOM     33  N   UNL     1      -3.268  11.536  16.447  0.00  0.00    +0.000 NA
ENDBRANCH  28  29
ENDBRANCH  20  23
ENDBRANCH   6  19
TORSDOF 5
ENDMDL
MODEL 7
REMARK VINA RESULT:      -7.1      6.681      9.671
REMARK  Name = 
REMARK  6 active torsions:
REMARK  status: ('A' for Active; 'I' for Inactive)
REMARK    1  A    between atoms: C_1  and  C_2
REMARK    2  A    between atoms: C_2  and  N_3
REMARK    3  A    between atoms: C_7  and  C_8
REMARK    4  A    between atoms: C_17  and  N_18
REMARK    5  A    between atoms: C_19  and  C_21
REMARK    6  A    between atoms: C_26  and  N_27
REMARK                            x       y       z     vdW  Elec       q    Type
REMARK                         _______ _______ _______ _____ _____    ______ ____
ROOT
ATOM      1  C   UNL     1      -0.387  13.847  21.901  0.00  0.00    +0.000 C 
ATOM      2  C   UNL     1       0.191  12.903  20.835  0.00  0.00    +0.000 C 
ATOM      3  C   UNL     1       1.651  13.330  20.520  0.00  0.00    +0.000 C 
ATOM      4  C   UNL     1       1.554  14.492  19.538  0.00  0.00    +0.000 C 
ATOM      5  C   UNL     1       0.199  14.347  18.850  0.00  0.00    +0.000 C 
ATOM      6  C   UNL     1      -0.425  13.063  19.412  0.00  0.00    +0.000 C 
ENDROOT
BRANCH   2   7
ATOM      7  N   UNL     1       0.265  11.509  21.309  0.00  0.00    +0.000 N 
ATOM      8  C   UNL     1       0.788  10.480  20.526  0.00  0.00    +0.000 A 
ATOM      9  C   UNL     1       1.036   9.232  21.109  0.00  0.00    +0.000 A 
ATOM     10  N   UNL     1       1.577   8.169  20.456  0.00  0.00    +0.000 NA
ATOM     11  C   UNL     1       1.912   8.394  19.156  0.00  0.00    +0.000 A 
ATOM     12  C   UNL     1       1.643   9.619  18.564  0.00  0.00    +0.000 A 
ATOM     13  N   UNL     1       1.072  10.658  19.225  0.00  0.00    +0.000 NA
ATOM     14  H   UNL     1      -0.592  11.197  21.751  0.00  0.00    +0.000 HD
BRANCH  11  15
ATOM     15  C   UNL     1       2.613   7.339  18.332  0.00  0.00    +0.000 C 
ATOM     16  F   UNL     1       3.362   7.826  17.303  0.00  0.00    +0.000 F 
ATOM     17  F   UNL     1       3.464   6.572  19.077  0.00  0.00    +0.000 F 
ATOM     18  F   UNL     1       1.740   6.454  17.766  0.00  0.00    +0.000 F 
ENDBRANCH  11  15
ENDBRANCH   2   7
BRANCH   6  19
ATOM     19  N   UNL     1      -1.870  13.115  19.303  0.00  0.00    +0.000 N 
ATOM     20  C   UNL     1      -2.633  11.972  19.400  0.00  0.00    +0.000 C 
ATOM     21  O   UNL     1      -2.192  10.871  19.726  0.00  0.00    +0.000 OA
ATOM     22  H   UNL     1      -2.363  13.999  19.246  0.00  0.00    +0.000 HD
BRANCH  20  23
ATOM     23  C   UNL     1      -4.091  12.143  19.109  0.00  0.00    +0.000 A 
ATOM     24  N   UNL     1      -4.802  12.845  20.044  0.00  0.00    +0.000 NA
ATOM     25  C   UNL     1      -6.151  12.804  19.934  0.00  0.00    +0.000 A 
ATOM     26  C   UNL     1      -6.828  12.084  18.959  0.00  0.00    +0.000 A 
ATOM     27  C   UNL     1      -6.087  11.391  18.006  0.00  0.00    +0.000 A 
ATOM     28  C   UNL     1      -4.691  11.452  18.059  0.00  0.00    +0.000 A 
BRANCH  28  29
ATOM     29  N   UNL     1      -3.923  10.919  17.005  0.00  0.00    +0.000 N 
ATOM     30  C   UNL     1      -3.334   9.672  16.951  0.00  0.00    +0.000 A 
ATOM     31  C   UNL     1      -2.814   9.531  15.687  0.00  0.00    +0.000 A 
ATOM     32  C   UNL     1      -3.177  10.712  15.024  0.00  0.00    +0.000 A 
ATOM     33  N   UNL     1      -3.883  11.536  15.798  0.00  0.00    +0.000 NA
ENDBRANCH  28  29
ENDBRANCH  20  23
ENDBRANCH   6  19
TORSDOF 5
ENDMDL
MODEL 8
REMARK VINA RESULT:      -7.0      5.332      8.045
REMARK  Name = 
REMARK  6 active torsions:
REMARK  status: ('A' for Active; 'I' for Inactive)
REMARK    1  A    between atoms: C_1  and  C_2
REMARK    2  A    between atoms: C_2  and  N_3
REMARK    3  A    between atoms: C_7  and  C_8
REMARK    4  A    between atoms: C_17  and  N_18
REMARK    5  A    between atoms: C_19  and  C_21
REMARK    6  A    between atoms: C_26  and  N_27
REMARK                            x       y       z     vdW  Elec       q    Type
REMARK                         _______ _______ _______ _____ _____    ______ ____
ROOT
ATOM      1  C   UNL     1      -0.357   9.443  18.348  0.00  0.00    +0.000 C 
ATOM      2  C   UNL     1       0.887   9.692  19.216  0.00  0.00    +0.000 C 
ATOM      3  C   UNL     1       1.324  11.175  19.061  0.00  0.00    +0.000 C 
ATOM      4  C   UNL     1       2.128  11.249  17.767  0.00  0.00    +0.000 C 
ATOM      5  C   UNL     1       2.653   9.837  17.519  0.00  0.00    +0.000 C 
ATOM      6  C   UNL     1       2.188   8.997  18.716  0.00  0.00    +0.000 C 
ENDROOT
BRANCH   2   7
ATOM      7  N   UNL     1       0.609   9.496  20.652  0.00  0.00    +0.000 N 
ATOM      8  C   UNL     1      -0.261  10.321  21.364  0.00  0.00    +0.000 A 
ATOM      9  C   UNL     1      -0.653   9.951  22.656  0.00  0.00    +0.000 A 
ATOM     10  N   UNL     1      -1.522  10.656  23.430  0.00  0.00    +0.000 NA
ATOM     11  C   UNL     1      -2.044  11.771  22.850  0.00  0.00    +0.000 A 
ATOM     12  C   UNL     1      -1.638  12.158  21.582  0.00  0.00    +0.000 A 
ATOM     13  N   UNL     1      -0.744  11.458  20.838  0.00  0.00    +0.000 NA
ATOM     14  H   UNL     1       1.449   9.335  21.197  0.00  0.00    +0.000 HD
BRANCH  11  15
ATOM     15  C   UNL     1      -3.097  12.599  23.548  0.00  0.00    +0.000 C 
ATOM     16  F   UNL     1      -3.825  11.924  24.482  0.00  0.00    +0.000 F 
ATOM     17  F   UNL     1      -2.570  13.677  24.201  0.00  0.00    +0.000 F 
ATOM     18  F   UNL     1      -4.012  13.122  22.678  0.00  0.00    +0.000 F 
ENDBRANCH  11  15
ENDBRANCH   2   7
BRANCH   6  19
ATOM     19  N   UNL     1       2.108   7.597  18.347  0.00  0.00    +0.000 N 
ATOM     20  C   UNL     1       2.257   6.603  19.290  0.00  0.00    +0.000 C 
ATOM     21  O   UNL     1       2.316   6.802  20.503  0.00  0.00    +0.000 OA
ATOM     22  H   UNL     1       1.849   7.312  17.410  0.00  0.00    +0.000 HD
BRANCH  20  23
ATOM     23  C   UNL     1       2.313   5.207  18.753  0.00  0.00    +0.000 A 
ATOM     24  N   UNL     1       1.168   4.471  18.896  0.00  0.00    +0.000 NA
ATOM     25  C   UNL     1       1.267   3.145  18.647  0.00  0.00    +0.000 A 
ATOM     26  C   UNL     1       2.447   2.509  18.286  0.00  0.00    +0.000 A 
ATOM     27  C   UNL     1       3.597   3.277  18.127  0.00  0.00    +0.000 A 
ATOM     28  C   UNL     1       3.521   4.658  18.328  0.00  0.00    +0.000 A 
BRANCH  28  29
ATOM     29  N   UNL     1       4.616   5.479  17.995  0.00  0.00    +0.000 N 
ATOM     30  C   UNL     1       5.829   5.555  18.648  0.00  0.00    +0.000 A 
ATOM     31  C   UNL     1       6.638   6.372  17.894  0.00  0.00    +0.000 A 
ATOM     32  C   UNL     1       5.857   6.706  16.777  0.00  0.00    +0.000 A 
ATOM     33  N   UNL     1       4.652   6.137  16.809  0.00  0.00    +0.000 NA
ENDBRANCH  28  29
ENDBRANCH  20  23
ENDBRANCH   6  19
TORSDOF 5
ENDMDL
MODEL 9
REMARK VINA RESULT:      -6.9      9.195     12.351
REMARK  Name = 
REMARK  6 active torsions:
REMARK  status: ('A' for Active; 'I' for Inactive)
REMARK    1  A    between atoms: C_1  and  C_2
REMARK    2  A    between atoms: C_2  and  N_3
REMARK    3  A    between atoms: C_7  and  C_8
REMARK    4  A    between atoms: C_17  and  N_18
REMARK    5  A    between atoms: C_19  and  C_21
REMARK    6  A    between atoms: C_26  and  N_27
REMARK                            x       y       z     vdW  Elec       q    Type
REMARK                         _______ _______ _______ _____ _____    ______ ____
ROOT
ATOM      1  C   UNL     1       1.062  11.403  19.167  0.00  0.00    +0.000 C 
ATOM      2  C   UNL     1      -0.373  11.715  19.621  0.00  0.00    +0.000 C 
ATOM      3  C   UNL     1      -1.259  10.459  19.393  0.00  0.00    +0.000 C 
ATOM      4  C   UNL     1      -1.648  10.473  17.918  0.00  0.00    +0.000 C 
ATOM      5  C   UNL     1      -1.535  11.928  17.470  0.00  0.00    +0.000 C 
ATOM      6  C   UNL     1      -1.142  12.727  18.719  0.00  0.00    +0.000 C 
ENDROOT
BRANCH   2   7
ATOM      7  N   UNL     1      -0.447  12.012  21.063  0.00  0.00    +0.000 N 
ATOM      8  C   UNL     1      -1.651  12.293  21.708  0.00  0.00    +0.000 A 
ATOM      9  C   UNL     1      -1.686  12.345  23.106  0.00  0.00    +0.000 A 
ATOM     10  N   UNL     1      -2.807  12.574  23.842  0.00  0.00    +0.000 NA
ATOM     11  C   UNL     1      -3.953  12.724  23.124  0.00  0.00    +0.000 A 
ATOM     12  C   UNL     1      -3.921  12.703  21.738  0.00  0.00    +0.000 A 
ATOM     13  N   UNL     1      -2.786  12.505  21.021  0.00  0.00    +0.000 NA
ATOM     14  H   UNL     1       0.263  12.669  21.368  0.00  0.00    +0.000 HD
BRANCH  11  15
ATOM     15  C   UNL     1      -5.291  12.885  23.807  0.00  0.00    +0.000 C 
ATOM     16  F   UNL     1      -6.359  12.463  23.074  0.00  0.00    +0.000 F 
ATOM     17  F   UNL     1      -5.362  12.202  24.989  0.00  0.00    +0.000 F 
ATOM     18  F   UNL     1      -5.558  14.186  24.132  0.00  0.00    +0.000 F 
ENDBRANCH  11  15
ENDBRANCH   2   7
BRANCH   6  19
ATOM     19  N   UNL     1      -0.461  13.949  18.342  0.00  0.00    +0.000 N 
ATOM     20  C   UNL     1      -0.572  15.091  19.106  0.00  0.00    +0.000 C 
ATOM     21  O   UNL     1      -1.110  15.135  20.211  0.00  0.00    +0.000 OA
ATOM     22  H   UNL     1       0.187  13.973  17.563  0.00  0.00    +0.000 HD
BRANCH  20  23
ATOM     23  C   UNL     1       0.048  16.322  18.521  0.00  0.00    +0.000 A 
ATOM     24  N   UNL     1      -0.807  17.154  17.852  0.00  0.00    +0.000 NA
ATOM     25  C   UNL     1      -0.240  18.134  17.110  0.00  0.00    +0.000 A 
ATOM     26  C   UNL     1       1.131  18.316  16.982  0.00  0.00    +0.000 A 
ATOM     27  C   UNL     1       1.984  17.471  17.686  0.00  0.00    +0.000 A 
ATOM     28  C   UNL     1       1.432  16.478  18.500  0.00  0.00    +0.000 A 
BRANCH  28  29
ATOM     29  N   UNL     1       2.261  15.734  19.364  0.00  0.00    +0.000 N 
ATOM     30  C   UNL     1       2.463  15.946  20.712  0.00  0.00    +0.000 A 
ATOM     31  C   UNL     1       3.230  14.901  21.169  0.00  0.00    +0.000 A 
ATOM     32  C   UNL     1       3.404  14.076  20.049  0.00  0.00    +0.000 A 
ATOM     33  N   UNL     1       2.787  14.549  18.966  0.00  0.00    +0.000 NA
ENDBRANCH  28  29
ENDBRANCH  20  23
ENDBRANCH   6  19
TORSDOF 5
ENDMDL
