MODEL 1
REMARK VINA RESULT:      -8.7      0.000      0.000
REMARK  Name = 
REMARK  6 active torsions:
REMARK  status: ('A' for Active; 'I' for Inactive)
REMARK    1  A    between atoms: C_2  and  C_3
REMARK    2  A    between atoms: C_2  and  C_10
REMARK    3  A    between atoms: C_6  and  O_7
REMARK    4  A    between atoms: C_18  and  C_19
REMARK    5  A    between atoms: C_22  and  C_23
REMARK    6  A    between atoms: C_26  and  O_27
REMARK                            x       y       z     vdW  Elec       q    Type
REMARK                         _______ _______ _______ _____ _____    ______ ____
ROOT
ATOM      1  C   UNL     1      -0.554  12.482  18.901  0.00  0.00    +0.000 A 
ATOM      2  O   UNL     1      -0.552  13.846  18.775  0.00  0.00    +0.000 OA
ATOM      3  C   UNL     1       0.737  14.260  18.754  0.00  0.00    +0.000 A 
ATOM      4  C   UNL     1       1.148  15.588  18.650  0.00  0.00    +0.000 A 
ATOM      5  C   UNL     1       2.526  15.820  18.655  0.00  0.00    +0.000 A 
ATOM      6  C   UNL     1       3.431  14.762  18.743  0.00  0.00    +0.000 A 
ATOM      7  C   UNL     1       2.983  13.436  18.827  0.00  0.00    +0.000 A 
ATOM      8  C   UNL     1       1.597  13.177  18.851  0.00  0.00    +0.000 A 
ATOM      9  C   UNL     1       0.758  12.015  18.950  0.00  0.00    +0.000 A 
ENDROOT
BRANCH   9  10
ATOM     10  C   UNL     1       1.148  10.614  19.065  0.00  0.00    +0.000 A 
ATOM     11  C   UNL     1       0.901   9.906  20.245  0.00  0.00    +0.000 A 
ATOM     12  C   UNL     1       1.304   8.572  20.382  0.00  0.00    +0.000 A 
ATOM     13  C   UNL     1       1.922   7.881  19.327  0.00  0.00    +0.000 A 
ATOM     14  C   UNL     1       2.143   8.596  18.140  0.00  0.00    +0.000 A 
ATOM     15  C   UNL     1       1.794   9.945  18.022  0.00  0.00    +0.000 A 
BRANCH  13  16
ATOM     16  C   UNL     1       2.331   6.466  19.458  0.00  0.00    +0.000 A 
ATOM     17  C   UNL     1       3.162   5.851  18.506  0.00  0.00    +0.000 A 
ATOM     18  C   UNL     1       3.529   4.503  18.616  0.00  0.00    +0.000 A 
ATOM     19  C   UNL     1       3.079   3.760  19.699  0.00  0.00    +0.000 A 
ATOM     20  C   UNL     1       2.275   4.341  20.669  0.00  0.00    +0.000 A 
ATOM     21  C   UNL     1       1.899   5.678  20.543  0.00  0.00    +0.000 A 
BRANCH  19  22
ATOM     22  O   UNL     1       3.405   2.446  19.847  0.00  0.00    +0.000 OA
ATOM     23  H   UNL     1       3.264   2.197  20.776  0.00  0.00    +0.000 HD
ENDBRANCH  19  22
ENDBRANCH  13  16
ENDBRANCH   9  10
BRANCH   1  25
ATOM     24  O   UNL     1      -2.442  11.673  20.079  0.00  0.00    +0.000 OA
ATOM     25  C   UNL     1      -1.844  11.824  19.014  0.00  0.00    +0.000 C 
BRANCH  25  26
ATOM     26  C   UNL     1      -2.499  11.286  17.786  0.00  0.00    +0.000 A 
ATOM     27  C   UNL     1      -3.803  11.706  17.485  0.00  0.00    +0.000 A 
ATOM     28  C   UNL     1      -4.454  11.231  16.344  0.00  0.00    +0.000 A 
ATOM     29  C   UNL     1      -3.802  10.324  15.516  0.00  0.00    +0.000 A 
ATOM     30  C   UNL     1      -2.521   9.874  15.816  0.00  0.00    +0.000 A 
ATOM     31  C   UNL     1      -1.870  10.346  16.957  0.00  0.00    +0.000 A 
BRANCH  29  32
ATOM     32  O   UNL     1      -4.394   9.842  14.388  0.00  0.00    +0.000 OA
ATOM     33  H   UNL     1      -4.771   8.967  14.583  0.00  0.00    +0.000 HD
ENDBRANCH  29  32
ENDBRANCH  25  26
ENDBRANCH   1  25
TORSDOF 6
ENDMDL
MODEL 2
REMARK VINA RESULT:      -8.7      2.776      9.397
REMARK  Name = 
REMARK  6 active torsions:
REMARK  status: ('A' for Active; 'I' for Inactive)
REMARK    1  A    between atoms: C_2  and  C_3
REMARK    2  A    between atoms: C_2  and  C_10
REMARK    3  A    between atoms: C_6  and  O_7
REMARK    4  A    between atoms: C_18  and  C_19
REMARK    5  A    between atoms: C_22  and  C_23
REMARK    6  A    between atoms: C_26  and  O_27
REMARK                            x       y       z     vdW  Elec       q    Type
REMARK                         _______ _______ _______ _____ _____    ______ ____
ROOT
ATOM      1  C   UNL     1       4.236   5.274  18.579  0.00  0.00    +0.000 A 
ATOM      2  O   UNL     1       4.436   3.956  18.899  0.00  0.00    +0.000 OA
ATOM      3  C   UNL     1       3.429   3.569  19.717  0.00  0.00    +0.000 A 
ATOM      4  C   UNL     1       3.291   2.296  20.267  0.00  0.00    +0.000 A 
ATOM      5  C   UNL     1       2.188   2.088  21.099  0.00  0.00    +0.000 A 
ATOM      6  C   UNL     1       1.270   3.111  21.342  0.00  0.00    +0.000 A 
ATOM      7  C   UNL     1       1.429   4.375  20.757  0.00  0.00    +0.000 A 
ATOM      8  C   UNL     1       2.549   4.618  19.935  0.00  0.00    +0.000 A 
ATOM      9  C   UNL     1       3.073   5.733  19.196  0.00  0.00    +0.000 A 
ENDROOT
BRANCH   9  10
ATOM     10  C   UNL     1       2.534   7.082  19.072  0.00  0.00    +0.000 A 
ATOM     11  C   UNL     1       1.931   7.706  20.169  0.00  0.00    +0.000 A 
ATOM     12  C   UNL     1       1.374   8.986  20.052  0.00  0.00    +0.000 A 
ATOM     13  C   UNL     1       1.446   9.711  18.852  0.00  0.00    +0.000 A 
ATOM     14  C   UNL     1       2.074   9.082  17.765  0.00  0.00    +0.000 A 
ATOM     15  C   UNL     1       2.578   7.782  17.863  0.00  0.00    +0.000 A 
BRANCH  13  16
ATOM     16  C   UNL     1       0.880  11.071  18.729  0.00  0.00    +0.000 A 
ATOM     17  C   UNL     1       1.704  12.207  18.674  0.00  0.00    +0.000 A 
ATOM     18  C   UNL     1       1.167  13.498  18.583  0.00  0.00    +0.000 A 
ATOM     19  C   UNL     1      -0.210  13.661  18.526  0.00  0.00    +0.000 A 
ATOM     20  C   UNL     1      -1.054  12.561  18.557  0.00  0.00    +0.000 A 
ATOM     21  C   UNL     1      -0.512  11.279  18.666  0.00  0.00    +0.000 A 
BRANCH  19  22
ATOM     22  O   UNL     1      -0.779  14.896  18.444  0.00  0.00    +0.000 OA
ATOM     23  H   UNL     1      -0.882  15.248  19.344  0.00  0.00    +0.000 HD
ENDBRANCH  19  22
ENDBRANCH  13  16
ENDBRANCH   9  10
BRANCH   1  25
ATOM     24  O   UNL     1       5.795   6.978  18.061  0.00  0.00    +0.000 OA
ATOM     25  C   UNL     1       5.243   5.921  17.758  0.00  0.00    +0.000 C 
BRANCH  25  26
ATOM     26  C   UNL     1       5.643   5.294  16.464  0.00  0.00    +0.000 A 
ATOM     27  C   UNL     1       4.693   4.529  15.771  0.00  0.00    +0.000 A 
ATOM     28  C   UNL     1       5.022   3.926  14.555  0.00  0.00    +0.000 A 
ATOM     29  C   UNL     1       6.306   4.078  14.044  0.00  0.00    +0.000 A 
ATOM     30  C   UNL     1       7.268   4.808  14.733  0.00  0.00    +0.000 A 
ATOM     31  C   UNL     1       6.942   5.410  15.950  0.00  0.00    +0.000 A 
BRANCH  29  32
ATOM     32  O   UNL     1       6.668   3.516  12.856  0.00  0.00    +0.000 OA
ATOM     33  H   UNL     1       5.884   3.108  12.453  0.00  0.00    +0.000 HD
ENDBRANCH  29  32
ENDBRANCH  25  26
ENDBRANCH   1  25
TORSDOF 6
ENDMDL
MODEL 3
REMARK VINA RESULT:      -8.7      2.786      9.439
REMARK  Name = 
REMARK  6 active torsions:
REMARK  status: ('A' for Active; 'I' for Inactive)
REMARK    1  A    between atoms: C_2  and  C_3
REMARK    2  A    between atoms: C_2  and  C_10
REMARK    3  A    between atoms: C_6  and  O_7
REMARK    4  A    between atoms: C_18  and  C_19
REMARK    5  A    between atoms: C_22  and  C_23
REMARK    6  A    between atoms: C_26  and  O_27
REMARK                            x       y       z     vdW  Elec       q    Type
REMARK                         _______ _______ _______ _____ _____    ______ ____
ROOT
ATOM      1  C   UNL     1       4.239   5.258  18.600  0.00  0.00    +0.000 A 
ATOM      2  O   UNL     1       4.457   3.946  18.929  0.00  0.00    +0.000 OA
ATOM      3  C   UNL     1       3.472   3.561  19.775  0.00  0.00    +0.000 A 
ATOM      4  C   UNL     1       3.357   2.293  20.343  0.00  0.00    +0.000 A 
ATOM      5  C   UNL     1       2.275   2.087  21.202  0.00  0.00    +0.000 A 
ATOM      6  C   UNL     1       1.354   3.105  21.454  0.00  0.00    +0.000 A 
ATOM      7  C   UNL     1       1.490   4.363  20.851  0.00  0.00    +0.000 A 
ATOM      8  C   UNL     1       2.589   4.605  20.001  0.00  0.00    +0.000 A 
ATOM      9  C   UNL     1       3.088   5.716  19.237  0.00  0.00    +0.000 A 
ENDROOT
BRANCH   9  10
ATOM     10  C   UNL     1       2.534   7.059  19.110  0.00  0.00    +0.000 A 
ATOM     11  C   UNL     1       1.953   7.692  20.214  0.00  0.00    +0.000 A 
ATOM     12  C   UNL     1       1.385   8.966  20.096  0.00  0.00    +0.000 A 
ATOM     13  C   UNL     1       1.421   9.676  18.885  0.00  0.00    +0.000 A 
ATOM     14  C   UNL     1       2.028   9.039  17.791  0.00  0.00    +0.000 A 
ATOM     15  C   UNL     1       2.544   7.744  17.892  0.00  0.00    +0.000 A 
BRANCH  13  16
ATOM     16  C   UNL     1       0.841  11.030  18.759  0.00  0.00    +0.000 A 
ATOM     17  C   UNL     1      -0.545  11.227  18.645  0.00  0.00    +0.000 A 
ATOM     18  C   UNL     1      -1.093  12.509  18.500  0.00  0.00    +0.000 A 
ATOM     19  C   UNL     1      -0.252  13.613  18.490  0.00  0.00    +0.000 A 
ATOM     20  C   UNL     1       1.120  13.457  18.622  0.00  0.00    +0.000 A 
ATOM     21  C   UNL     1       1.660  12.177  18.747  0.00  0.00    +0.000 A 
BRANCH  19  22
ATOM     22  O   UNL     1      -0.737  14.877  18.347  0.00  0.00    +0.000 OA
ATOM     23  H   UNL     1      -0.778  15.085  17.398  0.00  0.00    +0.000 HD
ENDBRANCH  19  22
ENDBRANCH  13  16
ENDBRANCH   9  10
BRANCH   1  25
ATOM     24  O   UNL     1       5.775   6.966  18.027  0.00  0.00    +0.000 OA
ATOM     25  C   UNL     1       5.222   5.903  17.747  0.00  0.00    +0.000 C 
BRANCH  25  26
ATOM     26  C   UNL     1       5.595   5.265  16.450  0.00  0.00    +0.000 A 
ATOM     27  C   UNL     1       6.904   5.435  15.975  0.00  0.00    +0.000 A 
ATOM     28  C   UNL     1       7.298   4.854  14.768  0.00  0.00    +0.000 A 
ATOM     29  C   UNL     1       6.376   4.117  14.032  0.00  0.00    +0.000 A 
ATOM     30  C   UNL     1       5.066   3.965  14.475  0.00  0.00    +0.000 A 
ATOM     31  C   UNL     1       4.669   4.546  15.681  0.00  0.00    +0.000 A 
BRANCH  29  32
ATOM     32  O   UNL     1       6.719   3.524  12.855  0.00  0.00    +0.000 OA
ATOM     33  H   UNL     1       6.796   2.566  12.999  0.00  0.00    +0.000 HD
ENDBRANCH  29  32
ENDBRANCH  25  26
ENDBRANCH   1  25
TORSDOF 6
ENDMDL
MODEL 4
REMARK VINA RESULT:      -8.6      0.448      1.302
REMARK  Name = 
REMARK  6 active torsions:
REMARK  status: ('A' for Active; 'I' for Inactive)
REMARK    1  A    between atoms: C_2  and  C_3
REMARK    2  A    between atoms: C_2  and  C_10
REMARK    3  A    between atoms: C_6  and  O_7
REMARK    4  A    between atoms: C_18  and  C_19
REMARK    5  A    between atoms: C_22  and  C_23
REMARK    6  A    between atoms: C_26  and  O_27
REMARK                            x       y       z     vdW  Elec       q    Type
REMARK                         _______ _______ _______ _____ _____    ______ ____
ROOT
ATOM      1  C   UNL     1      -0.544  12.285  18.892  0.00  0.00    +0.000 A 
ATOM      2  O   UNL     1      -0.629  13.652  18.849  0.00  0.00    +0.000 OA
ATOM      3  C   UNL     1       0.631  14.147  18.827  0.00  0.00    +0.000 A 
ATOM      4  C   UNL     1       0.957  15.502  18.795  0.00  0.00    +0.000 A 
ATOM      5  C   UNL     1       2.318  15.820  18.786  0.00  0.00    +0.000 A 
ATOM      6  C   UNL     1       3.288  14.817  18.790  0.00  0.00    +0.000 A 
ATOM      7  C   UNL     1       2.925  13.464  18.803  0.00  0.00    +0.000 A 
ATOM      8  C   UNL     1       1.558  13.117  18.840  0.00  0.00    +0.000 A 
ATOM      9  C   UNL     1       0.795  11.900  18.886  0.00  0.00    +0.000 A 
ENDROOT
BRANCH   9  10
ATOM     10  C   UNL     1       1.273  10.522  18.907  0.00  0.00    +0.000 A 
ATOM     11  C   UNL     1       1.926   9.983  17.794  0.00  0.00    +0.000 A 
ATOM     12  C   UNL     1       2.355   8.650  17.788  0.00  0.00    +0.000 A 
ATOM     13  C   UNL     1       2.195   7.823  18.912  0.00  0.00    +0.000 A 
ATOM     14  C   UNL     1       1.559   8.383  20.030  0.00  0.00    +0.000 A 
ATOM     15  C   UNL     1       1.078   9.696  20.017  0.00  0.00    +0.000 A 
BRANCH  13  16
ATOM     16  C   UNL     1       2.666   6.421  18.919  0.00  0.00    +0.000 A 
ATOM     17  C   UNL     1       2.385   5.558  19.991  0.00  0.00    +0.000 A 
ATOM     18  C   UNL     1       2.853   4.237  20.010  0.00  0.00    +0.000 A 
ATOM     19  C   UNL     1       3.593   3.760  18.938  0.00  0.00    +0.000 A 
ATOM     20  C   UNL     1       3.871   4.578  17.852  0.00  0.00    +0.000 A 
ATOM     21  C   UNL     1       3.417   5.898  17.849  0.00  0.00    +0.000 A 
BRANCH  19  22
ATOM     22  O   UNL     1       4.074   2.487  18.913  0.00  0.00    +0.000 OA
ATOM     23  H   UNL     1       4.959   2.499  18.511  0.00  0.00    +0.000 HD
ENDBRANCH  19  22
ENDBRANCH  13  16
ENDBRANCH   9  10
BRANCH   1  25
ATOM     24  O   UNL     1      -2.326  11.253  20.059  0.00  0.00    +0.000 OA
ATOM     25  C   UNL     1      -1.788  11.543  18.991  0.00  0.00    +0.000 C 
BRANCH  25  26
ATOM     26  C   UNL     1      -2.467  11.086  17.743  0.00  0.00    +0.000 A 
ATOM     27  C   UNL     1      -3.726  11.622  17.434  0.00  0.00    +0.000 A 
ATOM     28  C   UNL     1      -4.397  11.227  16.275  0.00  0.00    +0.000 A 
ATOM     29  C   UNL     1      -3.813  10.284  15.436  0.00  0.00    +0.000 A 
ATOM     30  C   UNL     1      -2.579   9.720  15.745  0.00  0.00    +0.000 A 
ATOM     31  C   UNL     1      -1.907  10.113  16.904  0.00  0.00    +0.000 A 
BRANCH  29  32
ATOM     32  O   UNL     1      -4.426   9.876  14.291  0.00  0.00    +0.000 OA
ATOM     33  H   UNL     1      -5.232   9.386  14.526  0.00  0.00    +0.000 HD
ENDBRANCH  29  32
ENDBRANCH  25  26
ENDBRANCH   1  25
TORSDOF 6
ENDMDL
MODEL 5
REMARK VINA RESULT:      -8.5      0.785      1.252
REMARK  Name = 
REMARK  6 active torsions:
REMARK  status: ('A' for Active; 'I' for Inactive)
REMARK    1  A    between atoms: C_2  and  C_3
REMARK    2  A    between atoms: C_2  and  C_10
REMARK    3  A    between atoms: C_6  and  O_7
REMARK    4  A    between atoms: C_18  and  C_19
REMARK    5  A    between atoms: C_22  and  C_23
REMARK    6  A    between atoms: C_26  and  O_27
REMARK                            x       y       z     vdW  Elec       q    Type
REMARK                         _______ _______ _______ _____ _____    ______ ____
ROOT
ATOM      1  C   UNL     1      -0.418  12.144  18.926  0.00  0.00    +0.000 A 
ATOM      2  O   UNL     1      -0.474  13.513  18.928  0.00  0.00    +0.000 OA
ATOM      3  C   UNL     1       0.794  13.982  18.861  0.00  0.00    +0.000 A 
ATOM      4  C   UNL     1       1.149  15.330  18.854  0.00  0.00    +0.000 A 
ATOM      5  C   UNL     1       2.514  15.619  18.791  0.00  0.00    +0.000 A 
ATOM      6  C   UNL     1       3.462  14.597  18.718  0.00  0.00    +0.000 A 
ATOM      7  C   UNL     1       3.069  13.252  18.708  0.00  0.00    +0.000 A 
ATOM      8  C   UNL     1       1.698  12.933  18.799  0.00  0.00    +0.000 A 
ATOM      9  C   UNL     1       0.911  11.731  18.844  0.00  0.00    +0.000 A 
ENDROOT
BRANCH   9  10
ATOM     10  C   UNL     1       1.358  10.344  18.801  0.00  0.00    +0.000 A 
ATOM     11  C   UNL     1       1.160   9.503  19.901  0.00  0.00    +0.000 A 
ATOM     12  C   UNL     1       1.619   8.180  19.887  0.00  0.00    +0.000 A 
ATOM     13  C   UNL     1       2.245   7.633  18.755  0.00  0.00    +0.000 A 
ATOM     14  C   UNL     1       2.417   8.480  17.650  0.00  0.00    +0.000 A 
ATOM     15  C   UNL     1       2.012   9.818  17.684  0.00  0.00    +0.000 A 
BRANCH  13  16
ATOM     16  C   UNL     1       2.713   6.230  18.727  0.00  0.00    +0.000 A 
ATOM     17  C   UNL     1       3.834   5.815  19.465  0.00  0.00    +0.000 A 
ATOM     18  C   UNL     1       4.293   4.492  19.418  0.00  0.00    +0.000 A 
ATOM     19  C   UNL     1       3.615   3.562  18.642  0.00  0.00    +0.000 A 
ATOM     20  C   UNL     1       2.491   3.932  17.918  0.00  0.00    +0.000 A 
ATOM     21  C   UNL     1       2.051   5.256  17.955  0.00  0.00    +0.000 A 
BRANCH  19  22
ATOM     22  O   UNL     1       4.025   2.266  18.561  0.00  0.00    +0.000 OA
ATOM     23  H   UNL     1       4.374   1.999  19.428  0.00  0.00    +0.000 HD
ENDBRANCH  19  22
ENDBRANCH  13  16
ENDBRANCH   9  10
BRANCH   1  25
ATOM     24  O   UNL     1      -2.156  11.096  20.144  0.00  0.00    +0.000 OA
ATOM     25  C   UNL     1      -1.672  11.425  19.061  0.00  0.00    +0.000 C 
BRANCH  25  26
ATOM     26  C   UNL     1      -2.432  11.045  17.834  0.00  0.00    +0.000 A 
ATOM     27  C   UNL     1      -1.842  10.143  16.937  0.00  0.00    +0.000 A 
ATOM     28  C   UNL     1      -2.517   9.756  15.777  0.00  0.00    +0.000 A 
ATOM     29  C   UNL     1      -3.776  10.284  15.512  0.00  0.00    +0.000 A 
ATOM     30  C   UNL     1      -4.362  11.203  16.377  0.00  0.00    +0.000 A 
ATOM     31  C   UNL     1      -3.688  11.592  17.536  0.00  0.00    +0.000 A 
BRANCH  29  32
ATOM     32  O   UNL     1      -4.475   9.928  14.399  0.00  0.00    +0.000 OA
ATOM     33  H   UNL     1      -4.106   9.099  14.051  0.00  0.00    +0.000 HD
ENDBRANCH  29  32
ENDBRANCH  25  26
ENDBRANCH   1  25
TORSDOF 6
ENDMDL
MODEL 6
REMARK VINA RESULT:      -8.5      1.909      5.154
REMARK  Name = 
REMARK  6 active torsions:
REMARK  status: ('A' for Active; 'I' for Inactive)
REMARK    1  A    between atoms: C_2  and  C_3
REMARK    2  A    between atoms: C_2  and  C_10
REMARK    3  A    between atoms: C_6  and  O_7
REMARK    4  A    between atoms: C_18  and  C_19
REMARK    5  A    between atoms: C_22  and  C_23
REMARK    6  A    between atoms: C_26  and  O_27
REMARK                            x       y       z     vdW  Elec       q    Type
REMARK                         _______ _______ _______ _____ _____    ______ ____
ROOT
ATOM      1  C   UNL     1      -0.566  11.891  19.833  0.00  0.00    +0.000 A 
ATOM      2  O   UNL     1      -1.757  12.566  19.769  0.00  0.00    +0.000 OA
ATOM      3  C   UNL     1      -2.614  11.826  19.026  0.00  0.00    +0.000 A 
ATOM      4  C   UNL     1      -3.926  12.188  18.723  0.00  0.00    +0.000 A 
ATOM      5  C   UNL     1      -4.655  11.296  17.931  0.00  0.00    +0.000 A 
ATOM      6  C   UNL     1      -4.088  10.100  17.490  0.00  0.00    +0.000 A 
ATOM      7  C   UNL     1      -2.772   9.759  17.830  0.00  0.00    +0.000 A 
ATOM      8  C   UNL     1      -2.005  10.654  18.605  0.00  0.00    +0.000 A 
ATOM      9  C   UNL     1      -0.667  10.694  19.127  0.00  0.00    +0.000 A 
ENDROOT
BRANCH   9  10
ATOM     10  C   UNL     1       0.397   9.707  18.990  0.00  0.00    +0.000 A 
ATOM     11  C   UNL     1       1.034   9.521  17.759  0.00  0.00    +0.000 A 
ATOM     12  C   UNL     1       2.032   8.550  17.604  0.00  0.00    +0.000 A 
ATOM     13  C   UNL     1       2.465   7.765  18.685  0.00  0.00    +0.000 A 
ATOM     14  C   UNL     1       1.833   7.978  19.920  0.00  0.00    +0.000 A 
ATOM     15  C   UNL     1       0.797   8.906  20.063  0.00  0.00    +0.000 A 
BRANCH  13  16
ATOM     16  C   UNL     1       3.532   6.753  18.533  0.00  0.00    +0.000 A 
ATOM     17  C   UNL     1       3.707   5.724  19.473  0.00  0.00    +0.000 A 
ATOM     18  C   UNL     1       4.734   4.780  19.343  0.00  0.00    +0.000 A 
ATOM     19  C   UNL     1       5.589   4.848  18.251  0.00  0.00    +0.000 A 
ATOM     20  C   UNL     1       5.432   5.838  17.292  0.00  0.00    +0.000 A 
ATOM     21  C   UNL     1       4.418   6.785  17.439  0.00  0.00    +0.000 A 
BRANCH  19  22
ATOM     22  O   UNL     1       6.604   3.957  18.084  0.00  0.00    +0.000 OA
ATOM     23  H   UNL     1       6.525   3.562  17.199  0.00  0.00    +0.000 HD
ENDBRANCH  19  22
ENDBRANCH  13  16
ENDBRANCH   9  10
BRANCH   1  25
ATOM     24  O   UNL     1       0.753  12.399  21.732  0.00  0.00    +0.000 OA
ATOM     25  C   UNL     1       0.531  12.540  20.531  0.00  0.00    +0.000 C 
BRANCH  25  26
ATOM     26  C   UNL     1       1.448  13.440  19.772  0.00  0.00    +0.000 A 
ATOM     27  C   UNL     1       1.321  14.826  19.950  0.00  0.00    +0.000 A 
ATOM     28  C   UNL     1       2.160  15.706  19.263  0.00  0.00    +0.000 A 
ATOM     29  C   UNL     1       3.113  15.197  18.388  0.00  0.00    +0.000 A 
ATOM     30  C   UNL     1       3.232  13.827  18.178  0.00  0.00    +0.000 A 
ATOM     31  C   UNL     1       2.393  12.946  18.862  0.00  0.00    +0.000 A 
BRANCH  29  32
ATOM     32  O   UNL     1       3.959  16.018  17.705  0.00  0.00    +0.000 OA
ATOM     33  H   UNL     1       4.694  16.266  18.291  0.00  0.00    +0.000 HD
ENDBRANCH  29  32
ENDBRANCH  25  26
ENDBRANCH   1  25
TORSDOF 6
ENDMDL
MODEL 7
REMARK VINA RESULT:      -8.5      1.971      5.172
REMARK  Name = 
REMARK  6 active torsions:
REMARK  status: ('A' for Active; 'I' for Inactive)
REMARK    1  A    between atoms: C_2  and  C_3
REMARK    2  A    between atoms: C_2  and  C_10
REMARK    3  A    between atoms: C_6  and  O_7
REMARK    4  A    between atoms: C_18  and  C_19
REMARK    5  A    between atoms: C_22  and  C_23
REMARK    6  A    between atoms: C_26  and  O_27
REMARK                            x       y       z     vdW  Elec       q    Type
REMARK                         _______ _______ _______ _____ _____    ______ ____
ROOT
ATOM      1  C   UNL     1      -0.481  11.714  19.927  0.00  0.00    +0.000 A 
ATOM      2  O   UNL     1      -1.660  12.410  19.864  0.00  0.00    +0.000 OA
ATOM      3  C   UNL     1      -2.493  11.743  19.032  0.00  0.00    +0.000 A 
ATOM      4  C   UNL     1      -3.787  12.147  18.703  0.00  0.00    +0.000 A 
ATOM      5  C   UNL     1      -4.492  11.329  17.816  0.00  0.00    +0.000 A 
ATOM      6  C   UNL     1      -3.922  10.161  17.309  0.00  0.00    +0.000 A 
ATOM      7  C   UNL     1      -2.626   9.774  17.676  0.00  0.00    +0.000 A 
ATOM      8  C   UNL     1      -1.882  10.596  18.549  0.00  0.00    +0.000 A 
ATOM      9  C   UNL     1      -0.567  10.576  19.128  0.00  0.00    +0.000 A 
ENDROOT
BRANCH   9  10
ATOM     10  C   UNL     1       0.490   9.585  18.960  0.00  0.00    +0.000 A 
ATOM     11  C   UNL     1       0.853   8.752  20.022  0.00  0.00    +0.000 A 
ATOM     12  C   UNL     1       1.892   7.823  19.885  0.00  0.00    +0.000 A 
ATOM     13  C   UNL     1       2.571   7.657  18.668  0.00  0.00    +0.000 A 
ATOM     14  C   UNL     1       2.182   8.483  17.603  0.00  0.00    +0.000 A 
ATOM     15  C   UNL     1       1.184   9.451  17.755  0.00  0.00    +0.000 A 
BRANCH  13  16
ATOM     16  C   UNL     1       3.655   6.663  18.511  0.00  0.00    +0.000 A 
ATOM     17  C   UNL     1       3.866   5.651  19.463  0.00  0.00    +0.000 A 
ATOM     18  C   UNL     1       4.909   4.725  19.328  0.00  0.00    +0.000 A 
ATOM     19  C   UNL     1       5.742   4.792  18.220  0.00  0.00    +0.000 A 
ATOM     20  C   UNL     1       5.549   5.764  17.249  0.00  0.00    +0.000 A 
ATOM     21  C   UNL     1       4.520   6.695  17.400  0.00  0.00    +0.000 A 
BRANCH  19  22
ATOM     22  O   UNL     1       6.771   3.918  18.048  0.00  0.00    +0.000 OA
ATOM     23  H   UNL     1       6.405   3.019  17.986  0.00  0.00    +0.000 HD
ENDBRANCH  19  22
ENDBRANCH  13  16
ENDBRANCH   9  10
BRANCH   1  25
ATOM     24  O   UNL     1       0.682  12.170  21.938  0.00  0.00    +0.000 OA
ATOM     25  C   UNL     1       0.593  12.291  20.717  0.00  0.00    +0.000 C 
BRANCH  25  26
ATOM     26  C   UNL     1       1.654  13.088  20.034  0.00  0.00    +0.000 A 
ATOM     27  C   UNL     1       1.728  13.041  18.634  0.00  0.00    +0.000 A 
ATOM     28  C   UNL     1       2.703  13.773  17.953  0.00  0.00    +0.000 A 
ATOM     29  C   UNL     1       3.611  14.538  18.677  0.00  0.00    +0.000 A 
ATOM     30  C   UNL     1       3.571  14.571  20.067  0.00  0.00    +0.000 A 
ATOM     31  C   UNL     1       2.598  13.839  20.750  0.00  0.00    +0.000 A 
BRANCH  29  32
ATOM     32  O   UNL     1       4.573  15.275  18.054  0.00  0.00    +0.000 OA
ATOM     33  H   UNL     1       4.530  16.187  18.386  0.00  0.00    +0.000 HD
ENDBRANCH  29  32
ENDBRANCH  25  26
ENDBRANCH   1  25
TORSDOF 6
ENDMDL
MODEL 8
REMARK VINA RESULT:      -8.5      3.851      8.566
REMARK  Name = 
REMARK  6 active torsions:
REMARK  status: ('A' for Active; 'I' for Inactive)
REMARK    1  A    between atoms: C_2  and  C_3
REMARK    2  A    between atoms: C_2  and  C_10
REMARK    3  A    between atoms: C_6  and  O_7
REMARK    4  A    between atoms: C_18  and  C_19
REMARK    5  A    between atoms: C_22  and  C_23
REMARK    6  A    between atoms: C_26  and  O_27
REMARK                            x       y       z     vdW  Elec       q    Type
REMARK                         _______ _______ _______ _____ _____    ______ ____
ROOT
ATOM      1  C   UNL     1       3.779   4.620  17.424  0.00  0.00    +0.000 A 
ATOM      2  O   UNL     1       4.847   4.116  16.729  0.00  0.00    +0.000 OA
ATOM      3  C   UNL     1       5.790   5.085  16.655  0.00  0.00    +0.000 A 
ATOM      4  C   UNL     1       7.020   4.956  16.011  0.00  0.00    +0.000 A 
ATOM      5  C   UNL     1       7.859   6.073  16.033  0.00  0.00    +0.000 A 
ATOM      6  C   UNL     1       7.477   7.245  16.687  0.00  0.00    +0.000 A 
ATOM      7  C   UNL     1       6.240   7.334  17.340  0.00  0.00    +0.000 A 
ATOM      8  C   UNL     1       5.363   6.230  17.310  0.00  0.00    +0.000 A 
ATOM      9  C   UNL     1       4.050   5.931  17.811  0.00  0.00    +0.000 A 
ENDROOT
BRANCH   9  10
ATOM     10  C   UNL     1       3.151   6.782  18.582  0.00  0.00    +0.000 A 
ATOM     11  C   UNL     1       2.633   7.954  18.023  0.00  0.00    +0.000 A 
ATOM     12  C   UNL     1       1.799   8.800  18.766  0.00  0.00    +0.000 A 
ATOM     13  C   UNL     1       1.411   8.479  20.077  0.00  0.00    +0.000 A 
ATOM     14  C   UNL     1       1.919   7.288  20.618  0.00  0.00    +0.000 A 
ATOM     15  C   UNL     1       2.798   6.473  19.899  0.00  0.00    +0.000 A 
BRANCH  13  16
ATOM     16  C   UNL     1       0.514   9.356  20.859  0.00  0.00    +0.000 A 
ATOM     17  C   UNL     1      -0.116  10.469  20.275  0.00  0.00    +0.000 A 
ATOM     18  C   UNL     1      -0.946  11.316  21.022  0.00  0.00    +0.000 A 
ATOM     19  C   UNL     1      -1.170  11.041  22.364  0.00  0.00    +0.000 A 
ATOM     20  C   UNL     1      -0.582   9.939  22.967  0.00  0.00    +0.000 A 
ATOM     21  C   UNL     1       0.258   9.111  22.222  0.00  0.00    +0.000 A 
BRANCH  19  22
ATOM     22  O   UNL     1      -1.963  11.837  23.132  0.00  0.00    +0.000 OA
ATOM     23  H   UNL     1      -2.032  12.708  22.704  0.00  0.00    +0.000 HD
ENDBRANCH  19  22
ENDBRANCH  13  16
ENDBRANCH   9  10
BRANCH   1  25
ATOM     24  O   UNL     1       1.952   3.351  16.615  0.00  0.00    +0.000 OA
ATOM     25  C   UNL     1       2.613   3.766  17.566  0.00  0.00    +0.000 C 
BRANCH  25  26
ATOM     26  C   UNL     1       2.166   3.362  18.932  0.00  0.00    +0.000 A 
ATOM     27  C   UNL     1       3.134   2.924  19.848  0.00  0.00    +0.000 A 
ATOM     28  C   UNL     1       2.762   2.539  21.138  0.00  0.00    +0.000 A 
ATOM     29  C   UNL     1       1.421   2.579  21.502  0.00  0.00    +0.000 A 
ATOM     30  C   UNL     1       0.446   2.982  20.595  0.00  0.00    +0.000 A 
ATOM     31  C   UNL     1       0.815   3.365  19.305  0.00  0.00    +0.000 A 
BRANCH  29  32
ATOM     32  O   UNL     1       1.014   2.222  22.752  0.00  0.00    +0.000 OA
ATOM     33  H   UNL     1       0.639   3.004  23.193  0.00  0.00    +0.000 HD
ENDBRANCH  29  32
ENDBRANCH  25  26
ENDBRANCH   1  25
TORSDOF 6
ENDMDL
MODEL 9
REMARK VINA RESULT:      -8.5      1.906      5.148
REMARK  Name = 
REMARK  6 active torsions:
REMARK  status: ('A' for Active; 'I' for Inactive)
REMARK    1  A    between atoms: C_2  and  C_3
REMARK    2  A    between atoms: C_2  and  C_10
REMARK    3  A    between atoms: C_6  and  O_7
REMARK    4  A    between atoms: C_18  and  C_19
REMARK    5  A    between atoms: C_22  and  C_23
REMARK    6  A    between atoms: C_26  and  O_27
REMARK                            x       y       z     vdW  Elec       q    Type
REMARK                         _______ _______ _______ _____ _____    ______ ____
ROOT
ATOM      1  C   UNL     1      -0.595  11.901  19.859  0.00  0.00    +0.000 A 
ATOM      2  O   UNL     1      -1.789  12.572  19.796  0.00  0.00    +0.000 OA
ATOM      3  C   UNL     1      -2.641  11.835  19.045  0.00  0.00    +0.000 A 
ATOM      4  C   UNL     1      -3.953  12.195  18.740  0.00  0.00    +0.000 A 
ATOM      5  C   UNL     1      -4.677  11.307  17.940  0.00  0.00    +0.000 A 
ATOM      6  C   UNL     1      -4.105  10.116  17.492  0.00  0.00    +0.000 A 
ATOM      7  C   UNL     1      -2.789   9.776  17.833  0.00  0.00    +0.000 A 
ATOM      8  C   UNL     1      -2.028  10.668  18.617  0.00  0.00    +0.000 A 
ATOM      9  C   UNL     1      -0.691  10.708  19.144  0.00  0.00    +0.000 A 
ENDROOT
BRANCH   9  10
ATOM     10  C   UNL     1       0.377   9.725  19.002  0.00  0.00    +0.000 A 
ATOM     11  C   UNL     1       1.008   9.540  17.768  0.00  0.00    +0.000 A 
ATOM     12  C   UNL     1       2.009   8.573  17.610  0.00  0.00    +0.000 A 
ATOM     13  C   UNL     1       2.451   7.792  18.690  0.00  0.00    +0.000 A 
ATOM     14  C   UNL     1       1.825   8.004  19.928  0.00  0.00    +0.000 A 
ATOM     15  C   UNL     1       0.786   8.928  20.074  0.00  0.00    +0.000 A 
BRANCH  13  16
ATOM     16  C   UNL     1       3.522   6.785  18.534  0.00  0.00    +0.000 A 
ATOM     17  C   UNL     1       4.398   6.809  17.435  0.00  0.00    +0.000 A 
ATOM     18  C   UNL     1       5.396   5.839  17.273  0.00  0.00    +0.000 A 
ATOM     19  C   UNL     1       5.540   4.842  18.228  0.00  0.00    +0.000 A 
ATOM     20  C   UNL     1       4.707   4.800  19.336  0.00  0.00    +0.000 A 
ATOM     21  C   UNL     1       3.703   5.758  19.481  0.00  0.00    +0.000 A 
BRANCH  19  22
ATOM     22  O   UNL     1       6.492   3.875  18.112  0.00  0.00    +0.000 OA
ATOM     23  H   UNL     1       7.109   4.134  17.406  0.00  0.00    +0.000 HD
ENDBRANCH  19  22
ENDBRANCH  13  16
ENDBRANCH   9  10
BRANCH   1  25
ATOM     24  O   UNL     1       0.725  12.387  21.763  0.00  0.00    +0.000 OA
ATOM     25  C   UNL     1       0.497  12.547  20.564  0.00  0.00    +0.000 C 
BRANCH  25  26
ATOM     26  C   UNL     1       1.402  13.471  19.819  0.00  0.00    +0.000 A 
ATOM     27  C   UNL     1       2.311  12.919  18.904  0.00  0.00    +0.000 A 
ATOM     28  C   UNL     1       3.176  13.745  18.182  0.00  0.00    +0.000 A 
ATOM     29  C   UNL     1       3.138  15.120  18.389  0.00  0.00    +0.000 A 
ATOM     30  C   UNL     1       2.263  15.679  19.315  0.00  0.00    +0.000 A 
ATOM     31  C   UNL     1       1.400  14.855  20.039  0.00  0.00    +0.000 A 
BRANCH  29  32
ATOM     32  O   UNL     1       3.955  15.964  17.700  0.00  0.00    +0.000 OA
ATOM     33  H   UNL     1       4.877  15.763  17.931  0.00  0.00    +0.000 HD
ENDBRANCH  29  32
ENDBRANCH  25  26
ENDBRANCH   1  25
TORSDOF 6
ENDMDL
