MODEL 1
REMARK VINA RESULT:      -6.8      0.000      0.000
REMARK  Name = 
REMARK  4 active torsions:
REMARK  status: ('A' for Active; 'I' for Inactive)
REMARK    1  A    between atoms: C_2  and  C_4
REMARK    2  A    between atoms: C_7  and  O_8
REMARK    3  A    between atoms: O_8  and  C_9
REMARK    4  A    between atoms: C_9  and  C_10
REMARK                            x       y       z     vdW  Elec       q    Type
REMARK                         _______ _______ _______ _____ _____    ______ ____
ROOT
ATOM      1  C   UNL     1       5.696   4.948  17.164  0.00  0.00    +0.000 A 
ATOM      2  C   UNL     1       5.075   5.904  17.966  0.00  0.00    +0.000 A 
ATOM      3  C   UNL     1       3.715   5.796  18.258  0.00  0.00    +0.000 A 
ATOM      4  C   UNL     1       2.957   4.738  17.749  0.00  0.00    +0.000 A 
ATOM      5  C   UNL     1       3.575   3.794  16.925  0.00  0.00    +0.000 A 
ATOM      6  C   UNL     1       4.941   3.900  16.626  0.00  0.00    +0.000 A 
ENDROOT
BRANCH   1   8
ATOM      7  N   UNL     1       7.983   4.269  17.621  0.00  0.00    +0.000 N 
ATOM      8  C   UNL     1       7.146   5.046  16.865  0.00  0.00    +0.000 C 
ATOM      9  O   UNL     1       7.576   5.764  15.973  0.00  0.00    +0.000 OA
ATOM     10  H   UNL     1       8.962   4.274  17.368  0.00  0.00    +0.000 HD
ATOM     11  H   UNL     1       7.648   3.500  18.185  0.00  0.00    +0.000 HD
ENDBRANCH   1   8
BRANCH   4  12
ATOM     12  O   UNL     1       1.614   4.552  17.993  0.00  0.00    +0.000 OA
BRANCH  12  13
ATOM     13  C   UNL     1       1.227   3.188  18.158  0.00  0.00    +0.000 C 
BRANCH  13  14
ATOM     14  C   UNL     1       1.279   2.735  19.612  0.00  0.00    +0.000 C 
ATOM     15  C   UNL     1       1.171   3.866  20.623  0.00  0.00    +0.000 C 
ATOM     16  C   UNL     1       1.998   3.336  21.769  0.00  0.00    +0.000 C 
ATOM     17  C   UNL     1       3.121   2.630  21.047  0.00  0.00    +0.000 C 
ATOM     18  O   UNL     1       2.554   2.094  19.845  0.00  0.00    +0.000 OA
ENDBRANCH  13  14
ENDBRANCH  12  13
ENDBRANCH   4  12
TORSDOF 4
ENDMDL
MODEL 2
REMARK VINA RESULT:      -6.7      1.855      2.499
REMARK  Name = 
REMARK  4 active torsions:
REMARK  status: ('A' for Active; 'I' for Inactive)
REMARK    1  A    between atoms: C_2  and  C_4
REMARK    2  A    between atoms: C_7  and  O_8
REMARK    3  A    between atoms: O_8  and  C_9
REMARK    4  A    between atoms: C_9  and  C_10
REMARK                            x       y       z     vdW  Elec       q    Type
REMARK                         _______ _______ _______ _____ _____    ______ ____
ROOT
ATOM      1  C   UNL     1       6.271   4.509  15.785  0.00  0.00    +0.000 A 
ATOM      2  C   UNL     1       7.072   4.711  16.909  0.00  0.00    +0.000 A 
ATOM      3  C   UNL     1       6.506   4.687  18.184  0.00  0.00    +0.000 A 
ATOM      4  C   UNL     1       5.136   4.469  18.354  0.00  0.00    +0.000 A 
ATOM      5  C   UNL     1       4.331   4.292  17.225  0.00  0.00    +0.000 A 
ATOM      6  C   UNL     1       4.894   4.318  15.941  0.00  0.00    +0.000 A 
ENDROOT
BRANCH   1   8
ATOM      7  N   UNL     1       6.369   3.606  13.532  0.00  0.00    +0.000 N 
ATOM      8  C   UNL     1       6.869   4.514  14.427  0.00  0.00    +0.000 C 
ATOM      9  O   UNL     1       7.748   5.302  14.110  0.00  0.00    +0.000 OA
ATOM     10  H   UNL     1       6.718   3.660  12.585  0.00  0.00    +0.000 HD
ATOM     11  H   UNL     1       5.495   3.120  13.684  0.00  0.00    +0.000 HD
ENDBRANCH   1   8
BRANCH   4  12
ATOM     12  O   UNL     1       4.499   4.423  19.574  0.00  0.00    +0.000 OA
BRANCH  12  13
ATOM     13  C   UNL     1       3.442   5.371  19.726  0.00  0.00    +0.000 C 
BRANCH  13  14
ATOM     14  C   UNL     1       2.216   4.778  20.408  0.00  0.00    +0.000 C 
ATOM     15  C   UNL     1       2.518   3.605  21.327  0.00  0.00    +0.000 C 
ATOM     16  C   UNL     1       1.257   2.784  21.205  0.00  0.00    +0.000 C 
ATOM     17  C   UNL     1       0.909   2.957  19.745  0.00  0.00    +0.000 C 
ATOM     18  O   UNL     1       1.320   4.282  19.386  0.00  0.00    +0.000 OA
ENDBRANCH  13  14
ENDBRANCH  12  13
ENDBRANCH   4  12
TORSDOF 4
ENDMDL
MODEL 3
REMARK VINA RESULT:      -6.7      1.749      1.811
REMARK  Name = 
REMARK  4 active torsions:
REMARK  status: ('A' for Active; 'I' for Inactive)
REMARK    1  A    between atoms: C_2  and  C_4
REMARK    2  A    between atoms: C_7  and  O_8
REMARK    3  A    between atoms: O_8  and  C_9
REMARK    4  A    between atoms: C_9  and  C_10
REMARK                            x       y       z     vdW  Elec       q    Type
REMARK                         _______ _______ _______ _____ _____    ______ ____
ROOT
ATOM      1  C   UNL     1       5.851   4.861  15.292  0.00  0.00    +0.000 A 
ATOM      2  C   UNL     1       5.430   6.112  15.740  0.00  0.00    +0.000 A 
ATOM      3  C   UNL     1       4.514   6.208  16.788  0.00  0.00    +0.000 A 
ATOM      4  C   UNL     1       4.001   5.059  17.396  0.00  0.00    +0.000 A 
ATOM      5  C   UNL     1       4.405   3.805  16.929  0.00  0.00    +0.000 A 
ATOM      6  C   UNL     1       5.324   3.703  15.875  0.00  0.00    +0.000 A 
ENDROOT
BRANCH   1   8
ATOM      7  N   UNL     1       6.620   3.768  13.263  0.00  0.00    +0.000 N 
ATOM      8  C   UNL     1       6.840   4.751  14.191  0.00  0.00    +0.000 C 
ATOM      9  O   UNL     1       7.792   5.513  14.098  0.00  0.00    +0.000 OA
ATOM     10  H   UNL     1       7.247   3.741  12.471  0.00  0.00    +0.000 HD
ATOM     11  H   UNL     1       5.732   3.292  13.176  0.00  0.00    +0.000 HD
ENDBRANCH   1   8
BRANCH   4  12
ATOM     12  O   UNL     1       3.101   5.064  18.438  0.00  0.00    +0.000 OA
BRANCH  12  13
ATOM     13  C   UNL     1       1.878   4.380  18.167  0.00  0.00    +0.000 C 
BRANCH  13  14
ATOM     14  C   UNL     1       1.508   3.384  19.259  0.00  0.00    +0.000 C 
ATOM     15  C   UNL     1       1.012   4.024  20.546  0.00  0.00    +0.000 C 
ATOM     16  C   UNL     1       1.477   3.031  21.584  0.00  0.00    +0.000 C 
ATOM     17  C   UNL     1       2.817   2.602  21.031  0.00  0.00    +0.000 C 
ATOM     18  O   UNL     1       2.690   2.625  19.604  0.00  0.00    +0.000 OA
ENDBRANCH  13  14
ENDBRANCH  12  13
ENDBRANCH   4  12
TORSDOF 4
ENDMDL
MODEL 4
REMARK VINA RESULT:      -6.7      0.754      1.405
REMARK  Name = 
REMARK  4 active torsions:
REMARK  status: ('A' for Active; 'I' for Inactive)
REMARK    1  A    between atoms: C_2  and  C_4
REMARK    2  A    between atoms: C_7  and  O_8
REMARK    3  A    between atoms: O_8  and  C_9
REMARK    4  A    between atoms: C_9  and  C_10
REMARK                            x       y       z     vdW  Elec       q    Type
REMARK                         _______ _______ _______ _____ _____    ______ ____
ROOT
ATOM      1  C   UNL     1       5.610   5.440  16.786  0.00  0.00    +0.000 A 
ATOM      2  C   UNL     1       5.054   4.177  16.593  0.00  0.00    +0.000 A 
ATOM      3  C   UNL     1       3.753   3.912  17.023  0.00  0.00    +0.000 A 
ATOM      4  C   UNL     1       2.995   4.900  17.657  0.00  0.00    +0.000 A 
ATOM      5  C   UNL     1       3.564   6.159  17.872  0.00  0.00    +0.000 A 
ATOM      6  C   UNL     1       4.871   6.429  17.444  0.00  0.00    +0.000 A 
ENDROOT
BRANCH   1   8
ATOM      7  N   UNL     1       7.542   4.838  15.442  0.00  0.00    +0.000 N 
ATOM      8  C   UNL     1       6.986   5.735  16.314  0.00  0.00    +0.000 C 
ATOM      9  O   UNL     1       7.589   6.740  16.664  0.00  0.00    +0.000 OA
ATOM     10  H   UNL     1       8.446   5.076  15.057  0.00  0.00    +0.000 HD
ATOM     11  H   UNL     1       6.992   4.144  14.953  0.00  0.00    +0.000 HD
ENDBRANCH   1   8
BRANCH   4  12
ATOM     12  O   UNL     1       1.705   4.726  18.105  0.00  0.00    +0.000 OA
BRANCH  12  13
ATOM     13  C   UNL     1       1.270   3.367  18.144  0.00  0.00    +0.000 C 
BRANCH  13  14
ATOM     14  C   UNL     1       1.266   2.793  19.555  0.00  0.00    +0.000 C 
ATOM     15  C   UNL     1       1.130   3.836  20.653  0.00  0.00    +0.000 C 
ATOM     16  C   UNL     1       1.909   3.201  21.780  0.00  0.00    +0.000 C 
ATOM     17  C   UNL     1       3.053   2.545  21.041  0.00  0.00    +0.000 C 
ATOM     18  O   UNL     1       2.526   2.119  19.778  0.00  0.00    +0.000 OA
ENDBRANCH  13  14
ENDBRANCH  12  13
ENDBRANCH   4  12
TORSDOF 4
ENDMDL
MODEL 5
REMARK VINA RESULT:      -6.7      1.730      2.479
REMARK  Name = 
REMARK  4 active torsions:
REMARK  status: ('A' for Active; 'I' for Inactive)
REMARK    1  A    between atoms: C_2  and  C_4
REMARK    2  A    between atoms: C_7  and  O_8
REMARK    3  A    between atoms: O_8  and  C_9
REMARK    4  A    between atoms: C_9  and  C_10
REMARK                            x       y       z     vdW  Elec       q    Type
REMARK                         _______ _______ _______ _____ _____    ______ ____
ROOT
ATOM      1  C   UNL     1       6.047   4.776  16.003  0.00  0.00    +0.000 A 
ATOM      2  C   UNL     1       5.043   3.880  16.365  0.00  0.00    +0.000 A 
ATOM      3  C   UNL     1       4.373   4.033  17.580  0.00  0.00    +0.000 A 
ATOM      4  C   UNL     1       4.701   5.076  18.450  0.00  0.00    +0.000 A 
ATOM      5  C   UNL     1       5.725   5.959  18.096  0.00  0.00    +0.000 A 
ATOM      6  C   UNL     1       6.403   5.808  16.878  0.00  0.00    +0.000 A 
ENDROOT
BRANCH   1   8
ATOM      7  N   UNL     1       6.288   3.658  13.860  0.00  0.00    +0.000 N 
ATOM      8  C   UNL     1       6.750   4.631  14.704  0.00  0.00    +0.000 C 
ATOM      9  O   UNL     1       7.682   5.358  14.388  0.00  0.00    +0.000 OA
ATOM     10  H   UNL     1       6.712   3.609  12.944  0.00  0.00    +0.000 HD
ATOM     11  H   UNL     1       5.386   3.215  13.983  0.00  0.00    +0.000 HD
ENDBRANCH   1   8
BRANCH   4  12
ATOM     12  O   UNL     1       4.087   5.304  19.661  0.00  0.00    +0.000 OA
BRANCH  12  13
ATOM     13  C   UNL     1       2.764   5.830  19.563  0.00  0.00    +0.000 C 
BRANCH  13  14
ATOM     14  C   UNL     1       1.731   4.953  20.261  0.00  0.00    +0.000 C 
ATOM     15  C   UNL     1       2.306   4.052  21.342  0.00  0.00    +0.000 C 
ATOM     16  C   UNL     1       1.382   2.859  21.272  0.00  0.00    +0.000 C 
ATOM     17  C   UNL     1       1.127   2.745  19.787  0.00  0.00    +0.000 C 
ATOM     18  O   UNL     1       1.130   4.083  19.274  0.00  0.00    +0.000 OA
ENDBRANCH  13  14
ENDBRANCH  12  13
ENDBRANCH   4  12
TORSDOF 4
ENDMDL
MODEL 6
REMARK VINA RESULT:      -6.6      1.344      2.024
REMARK  Name = 
REMARK  4 active torsions:
REMARK  status: ('A' for Active; 'I' for Inactive)
REMARK    1  A    between atoms: C_2  and  C_4
REMARK    2  A    between atoms: C_7  and  O_8
REMARK    3  A    between atoms: O_8  and  C_9
REMARK    4  A    between atoms: C_9  and  C_10
REMARK                            x       y       z     vdW  Elec       q    Type
REMARK                         _______ _______ _______ _____ _____    ______ ____
ROOT
ATOM      1  C   UNL     1       5.845   4.892  16.875  0.00  0.00    +0.000 A 
ATOM      2  C   UNL     1       4.884   3.903  16.670  0.00  0.00    +0.000 A 
ATOM      3  C   UNL     1       3.588   4.076  17.158  0.00  0.00    +0.000 A 
ATOM      4  C   UNL     1       3.237   5.232  17.861  0.00  0.00    +0.000 A 
ATOM      5  C   UNL     1       4.209   6.211  18.086  0.00  0.00    +0.000 A 
ATOM      6  C   UNL     1       5.513   6.041  17.600  0.00  0.00    +0.000 A 
ENDROOT
BRANCH   1   8
ATOM      7  N   UNL     1       7.449   5.189  15.075  0.00  0.00    +0.000 N 
ATOM      8  C   UNL     1       7.220   4.724  16.342  0.00  0.00    +0.000 C 
ATOM      9  O   UNL     1       8.114   4.218  17.006  0.00  0.00    +0.000 OA
ATOM     10  H   UNL     1       8.402   5.148  14.740  0.00  0.00    +0.000 HD
ATOM     11  H   UNL     1       6.813   5.818  14.604  0.00  0.00    +0.000 HD
ENDBRANCH   1   8
BRANCH   4  12
ATOM     12  O   UNL     1       1.983   5.485  18.368  0.00  0.00    +0.000 OA
BRANCH  12  13
ATOM     13  C   UNL     1       1.967   5.867  19.744  0.00  0.00    +0.000 C 
BRANCH  13  14
ATOM     14  C   UNL     1       1.403   4.779  20.648  0.00  0.00    +0.000 C 
ATOM     15  C   UNL     1       2.451   4.045  21.471  0.00  0.00    +0.000 C 
ATOM     16  C   UNL     1       1.840   2.669  21.591  0.00  0.00    +0.000 C 
ATOM     17  C   UNL     1       1.204   2.487  20.233  0.00  0.00    +0.000 C 
ATOM     18  O   UNL     1       0.758   3.785  19.820  0.00  0.00    +0.000 OA
ENDBRANCH  13  14
ENDBRANCH  12  13
ENDBRANCH   4  12
TORSDOF 4
ENDMDL
MODEL 7
REMARK VINA RESULT:      -6.6      1.639      2.297
REMARK  Name = 
REMARK  4 active torsions:
REMARK  status: ('A' for Active; 'I' for Inactive)
REMARK    1  A    between atoms: C_2  and  C_4
REMARK    2  A    between atoms: C_7  and  O_8
REMARK    3  A    between atoms: O_8  and  C_9
REMARK    4  A    between atoms: C_9  and  C_10
REMARK                            x       y       z     vdW  Elec       q    Type
REMARK                         _______ _______ _______ _____ _____    ______ ____
ROOT
ATOM      1  C   UNL     1       5.437   5.006  16.004  0.00  0.00    +0.000 A 
ATOM      2  C   UNL     1       4.621   3.996  16.511  0.00  0.00    +0.000 A 
ATOM      3  C   UNL     1       3.585   4.309  17.392  0.00  0.00    +0.000 A 
ATOM      4  C   UNL     1       3.356   5.631  17.784  0.00  0.00    +0.000 A 
ATOM      5  C   UNL     1       4.191   6.639  17.295  0.00  0.00    +0.000 A 
ATOM      6  C   UNL     1       5.234   6.329  16.410  0.00  0.00    +0.000 A 
ENDROOT
BRANCH   1   8
ATOM      7  N   UNL     1       7.639   5.482  15.095  0.00  0.00    +0.000 N 
ATOM      8  C   UNL     1       6.528   4.683  15.051  0.00  0.00    +0.000 C 
ATOM      9  O   UNL     1       6.454   3.737  14.280  0.00  0.00    +0.000 OA
ATOM     10  H   UNL     1       8.415   5.217  14.504  0.00  0.00    +0.000 HD
ATOM     11  H   UNL     1       7.831   6.103  15.870  0.00  0.00    +0.000 HD
ENDBRANCH   1   8
BRANCH   4  12
ATOM     12  O   UNL     1       2.354   6.027  18.642  0.00  0.00    +0.000 OA
BRANCH  12  13
ATOM     13  C   UNL     1       2.664   5.870  20.026  0.00  0.00    +0.000 C 
BRANCH  13  14
ATOM     14  C   UNL     1       1.723   4.901  20.731  0.00  0.00    +0.000 C 
ATOM     15  C   UNL     1       2.427   3.812  21.526  0.00  0.00    +0.000 C 
ATOM     16  C   UNL     1       1.449   2.667  21.414  0.00  0.00    +0.000 C 
ATOM     17  C   UNL     1       0.942   2.823  19.999  0.00  0.00    +0.000 C 
ATOM     18  O   UNL     1       0.923   4.231  19.730  0.00  0.00    +0.000 OA
ENDBRANCH  13  14
ENDBRANCH  12  13
ENDBRANCH   4  12
TORSDOF 4
ENDMDL
MODEL 8
REMARK VINA RESULT:      -6.6      1.972      2.757
REMARK  Name = 
REMARK  4 active torsions:
REMARK  status: ('A' for Active; 'I' for Inactive)
REMARK    1  A    between atoms: C_2  and  C_4
REMARK    2  A    between atoms: C_7  and  O_8
REMARK    3  A    between atoms: O_8  and  C_9
REMARK    4  A    between atoms: C_9  and  C_10
REMARK                            x       y       z     vdW  Elec       q    Type
REMARK                         _______ _______ _______ _____ _____    ______ ____
ROOT
ATOM      1  C   UNL     1       6.347   4.459  15.590  0.00  0.00    +0.000 A 
ATOM      2  C   UNL     1       5.004   4.129  15.759  0.00  0.00    +0.000 A 
ATOM      3  C   UNL     1       4.468   4.011  17.043  0.00  0.00    +0.000 A 
ATOM      4  C   UNL     1       5.267   4.214  18.171  0.00  0.00    +0.000 A 
ATOM      5  C   UNL     1       6.620   4.520  18.000  0.00  0.00    +0.000 A 
ATOM      6  C   UNL     1       7.163   4.637  16.712  0.00  0.00    +0.000 A 
ENDROOT
BRANCH   1   8
ATOM      7  N   UNL     1       6.487   3.715  13.282  0.00  0.00    +0.000 N 
ATOM      8  C   UNL     1       6.919   4.605  14.228  0.00  0.00    +0.000 C 
ATOM      9  O   UNL     1       7.718   5.489  13.953  0.00  0.00    +0.000 OA
ATOM     10  H   UNL     1       6.813   3.861  12.336  0.00  0.00    +0.000 HD
ATOM     11  H   UNL     1       5.663   3.142  13.410  0.00  0.00    +0.000 HD
ENDBRANCH   1   8
BRANCH   4  12
ATOM     12  O   UNL     1       4.819   4.125  19.470  0.00  0.00    +0.000 OA
BRANCH  12  13
ATOM     13  C   UNL     1       4.370   2.825  19.853  0.00  0.00    +0.000 C 
BRANCH  13  14
ATOM     14  C   UNL     1       2.989   2.849  20.497  0.00  0.00    +0.000 C 
ATOM     15  C   UNL     1       1.867   2.376  19.586  0.00  0.00    +0.000 C 
ATOM     16  C   UNL     1       0.700   3.194  20.084  0.00  0.00    +0.000 C 
ATOM     17  C   UNL     1       1.356   4.518  20.400  0.00  0.00    +0.000 C 
ATOM     18  O   UNL     1       2.678   4.213  20.861  0.00  0.00    +0.000 OA
ENDBRANCH  13  14
ENDBRANCH  12  13
ENDBRANCH   4  12
TORSDOF 4
ENDMDL
MODEL 9
REMARK VINA RESULT:      -6.6      1.942      2.705
REMARK  Name = 
REMARK  4 active torsions:
REMARK  status: ('A' for Active; 'I' for Inactive)
REMARK    1  A    between atoms: C_2  and  C_4
REMARK    2  A    between atoms: C_7  and  O_8
REMARK    3  A    between atoms: O_8  and  C_9
REMARK    4  A    between atoms: C_9  and  C_10
REMARK                            x       y       z     vdW  Elec       q    Type
REMARK                         _______ _______ _______ _____ _____    ______ ____
ROOT
ATOM      1  C   UNL     1       6.422   5.001  15.751  0.00  0.00    +0.000 A 
ATOM      2  C   UNL     1       7.059   4.468  16.870  0.00  0.00    +0.000 A 
ATOM      3  C   UNL     1       6.524   4.670  18.143  0.00  0.00    +0.000 A 
ATOM      4  C   UNL     1       5.352   5.412  18.315  0.00  0.00    +0.000 A 
ATOM      5  C   UNL     1       4.728   5.966  17.195  0.00  0.00    +0.000 A 
ATOM      6  C   UNL     1       5.263   5.768  15.914  0.00  0.00    +0.000 A 
ENDROOT
BRANCH   1   8
ATOM      7  N   UNL     1       6.448   3.729  13.682  0.00  0.00    +0.000 N 
ATOM      8  C   UNL     1       6.975   4.774  14.392  0.00  0.00    +0.000 C 
ATOM      9  O   UNL     1       7.840   5.495  13.917  0.00  0.00    +0.000 OA
ATOM     10  H   UNL     1       6.765   3.620  12.728  0.00  0.00    +0.000 HD
ATOM     11  H   UNL     1       5.581   3.277  13.942  0.00  0.00    +0.000 HD
ENDBRANCH   1   8
BRANCH   4  12
ATOM     12  O   UNL     1       4.754   5.652  19.532  0.00  0.00    +0.000 OA
BRANCH  12  13
ATOM     13  C   UNL     1       3.332   5.529  19.526  0.00  0.00    +0.000 C 
BRANCH  13  14
ATOM     14  C   UNL     1       2.869   4.078  19.470  0.00  0.00    +0.000 C 
ATOM     15  C   UNL     1       1.843   3.791  18.385  0.00  0.00    +0.000 C 
ATOM     16  C   UNL     1       1.035   2.680  19.011  0.00  0.00    +0.000 C 
ATOM     17  C   UNL     1       0.992   3.101  20.462  0.00  0.00    +0.000 C 
ATOM     18  O   UNL     1       2.240   3.750  20.730  0.00  0.00    +0.000 OA
ENDBRANCH  13  14
ENDBRANCH  12  13
ENDBRANCH   4  12
TORSDOF 4
ENDMDL
