MODEL 1
REMARK VINA RESULT:      -8.0      0.000      0.000
REMARK  Name = 
REMARK  2 active torsions:
REMARK  status: ('A' for Active; 'I' for Inactive)
REMARK    1  A    between atoms: C_4  and  C_5
REMARK    2  A    between atoms: C_5  and  C_6
REMARK                            x       y       z     vdW  Elec       q    Type
REMARK                         _______ _______ _______ _____ _____    ______ ____
ROOT
ATOM      1  O   UNL     1       1.167   3.591  21.220  0.00  0.00    +0.000 OA
ATOM      2  C   UNL     1       1.925   4.299  20.569  0.00  0.00    +0.000 A 
ATOM      3  C   UNL     1       3.260   3.850  20.179  0.00  0.00    +0.000 A 
ATOM      4  C   UNL     1       4.019   4.685  19.452  0.00  0.00    +0.000 A 
ATOM      5  N   UNL     1       3.643   5.973  19.120  0.00  0.00    +0.000 NA
ATOM      6  C   UNL     1       2.485   6.393  19.528  0.00  0.00    +0.000 A 
ATOM      7  N   UNL     1       2.029   7.691  19.392  0.00  0.00    +0.000 N 
ATOM      8  C   UNL     1       1.741   8.418  20.633  0.00  0.00    +0.000 C 
ATOM      9  C   UNL     1       0.248   8.714  20.703  0.00  0.00    +0.000 C 
ATOM     10  C   UNL     1      -0.171   9.903  19.846  0.00  0.00    +0.000 C 
ATOM     11  C   UNL     1       0.232   9.815  18.372  0.00  0.00    +0.000 C 
ATOM     12  C   UNL     1       1.748   9.858  18.141  0.00  0.00    +0.000 C 
ATOM     13  C   UNL     1       2.466   8.503  18.252  0.00  0.00    +0.000 C 
ATOM     14  N   UNL     1       1.616   5.563  20.182  0.00  0.00    +0.000 N 
ATOM     15  H   UNL     1       0.702   5.901  20.420  0.00  0.00    +0.000 HD
ENDROOT
BRANCH   4  16
ATOM     16  C   UNL     1       5.409   4.254  19.033  0.00  0.00    +0.000 C 
BRANCH  16  17
ATOM     17  C   UNL     1       5.692   4.535  17.583  0.00  0.00    +0.000 A 
ATOM     18  C   UNL     1       4.905   3.981  16.574  0.00  0.00    +0.000 A 
ATOM     19  F   UNL     1       3.837   3.232  16.890  0.00  0.00    +0.000 F 
ATOM     20  C   UNL     1       5.199   4.188  15.229  0.00  0.00    +0.000 A 
ATOM     21  C   UNL     1       6.299   4.964  14.866  0.00  0.00    +0.000 A 
ATOM     22  C   UNL     1       7.093   5.536  15.860  0.00  0.00    +0.000 A 
ATOM     23  C   UNL     1       6.785   5.316  17.198  0.00  0.00    +0.000 A 
ATOM     24  F   UNL     1       7.566   5.873  18.138  0.00  0.00    +0.000 F 
ENDBRANCH  16  17
ENDBRANCH   4  16
TORSDOF 2
ENDMDL
MODEL 2
REMARK VINA RESULT:      -8.0      0.064      1.719
REMARK  Name = 
REMARK  2 active torsions:
REMARK  status: ('A' for Active; 'I' for Inactive)
REMARK    1  A    between atoms: C_4  and  C_5
REMARK    2  A    between atoms: C_5  and  C_6
REMARK                            x       y       z     vdW  Elec       q    Type
REMARK                         _______ _______ _______ _____ _____    ______ ____
ROOT
ATOM      1  O   UNL     1       1.133   3.580  21.159  0.00  0.00    +0.000 OA
ATOM      2  C   UNL     1       1.907   4.291  20.531  0.00  0.00    +0.000 A 
ATOM      3  C   UNL     1       3.252   3.843  20.174  0.00  0.00    +0.000 A 
ATOM      4  C   UNL     1       4.030   4.680  19.470  0.00  0.00    +0.000 A 
ATOM      5  N   UNL     1       3.663   5.970  19.134  0.00  0.00    +0.000 NA
ATOM      6  C   UNL     1       2.494   6.388  19.512  0.00  0.00    +0.000 A 
ATOM      7  N   UNL     1       2.042   7.687  19.369  0.00  0.00    +0.000 N 
ATOM      8  C   UNL     1       1.722   8.410  20.605  0.00  0.00    +0.000 C 
ATOM      9  C   UNL     1       0.228   8.705  20.637  0.00  0.00    +0.000 C 
ATOM     10  C   UNL     1      -0.168   9.898  19.774  0.00  0.00    +0.000 C 
ATOM     11  C   UNL     1       0.273   9.815  18.310  0.00  0.00    +0.000 C 
ATOM     12  C   UNL     1       1.794   9.859  18.120  0.00  0.00    +0.000 C 
ATOM     13  C   UNL     1       2.510   8.504  18.244  0.00  0.00    +0.000 C 
ATOM     14  N   UNL     1       1.609   5.556  20.140  0.00  0.00    +0.000 N 
ATOM     15  H   UNL     1       0.688   5.894  20.356  0.00  0.00    +0.000 HD
ENDROOT
BRANCH   4  16
ATOM     16  C   UNL     1       5.430   4.251  19.087  0.00  0.00    +0.000 C 
BRANCH  16  17
ATOM     17  C   UNL     1       5.735   4.494  17.635  0.00  0.00    +0.000 A 
ATOM     18  C   UNL     1       6.792   5.316  17.247  0.00  0.00    +0.000 A 
ATOM     19  F   UNL     1       7.596   5.859  18.173  0.00  0.00    +0.000 F 
ATOM     20  C   UNL     1       7.041   5.592  15.905  0.00  0.00    +0.000 A 
ATOM     21  C   UNL     1       6.226   5.042  14.916  0.00  0.00    +0.000 A 
ATOM     22  C   UNL     1       5.170   4.208  15.282  0.00  0.00    +0.000 A 
ATOM     23  C   UNL     1       4.936   3.945  16.628  0.00  0.00    +0.000 A 
ATOM     24  F   UNL     1       3.910   3.143  16.957  0.00  0.00    +0.000 F 
ENDBRANCH  16  17
ENDBRANCH   4  16
TORSDOF 2
ENDMDL
MODEL 3
REMARK VINA RESULT:      -8.0      1.092      1.384
REMARK  Name = 
REMARK  2 active torsions:
REMARK  status: ('A' for Active; 'I' for Inactive)
REMARK    1  A    between atoms: C_4  and  C_5
REMARK    2  A    between atoms: C_5  and  C_6
REMARK                            x       y       z     vdW  Elec       q    Type
REMARK                         _______ _______ _______ _____ _____    ______ ____
ROOT
ATOM      1  O   UNL     1       1.143   3.298  21.540  0.00  0.00    +0.000 OA
ATOM      2  C   UNL     1       1.852   4.012  20.843  0.00  0.00    +0.000 A 
ATOM      3  C   UNL     1       3.138   3.552  20.322  0.00  0.00    +0.000 A 
ATOM      4  C   UNL     1       3.844   4.394  19.551  0.00  0.00    +0.000 A 
ATOM      5  N   UNL     1       3.464   5.698  19.289  0.00  0.00    +0.000 NA
ATOM      6  C   UNL     1       2.356   6.125  19.811  0.00  0.00    +0.000 A 
ATOM      7  N   UNL     1       1.914   7.433  19.752  0.00  0.00    +0.000 N 
ATOM      8  C   UNL     1       1.753   8.130  21.033  0.00  0.00    +0.000 C 
ATOM      9  C   UNL     1       0.279   8.448  21.246  0.00  0.00    +0.000 C 
ATOM     10  C   UNL     1      -0.193   9.668  20.462  0.00  0.00    +0.000 C 
ATOM     11  C   UNL     1       0.074   9.615  18.956  0.00  0.00    +0.000 C 
ATOM     12  C   UNL     1       1.563   9.639  18.590  0.00  0.00    +0.000 C 
ATOM     13  C   UNL     1       2.263   8.271  18.599  0.00  0.00    +0.000 C 
ATOM     14  N   UNL     1       1.534   5.291  20.519  0.00  0.00    +0.000 N 
ATOM     15  H   UNL     1       0.651   5.638  20.848  0.00  0.00    +0.000 HD
ENDROOT
BRANCH   4  16
ATOM     16  C   UNL     1       5.182   3.953  18.997  0.00  0.00    +0.000 C 
BRANCH  16  17
ATOM     17  C   UNL     1       5.924   5.068  18.314  0.00  0.00    +0.000 A 
ATOM     18  C   UNL     1       5.622   5.439  17.004  0.00  0.00    +0.000 A 
ATOM     19  F   UNL     1       4.615   4.840  16.352  0.00  0.00    +0.000 F 
ATOM     20  C   UNL     1       6.347   6.430  16.346  0.00  0.00    +0.000 A 
ATOM     21  C   UNL     1       7.399   7.074  16.996  0.00  0.00    +0.000 A 
ATOM     22  C   UNL     1       7.710   6.725  18.310  0.00  0.00    +0.000 A 
ATOM     23  C   UNL     1       6.976   5.732  18.951  0.00  0.00    +0.000 A 
ATOM     24  F   UNL     1       7.297   5.409  20.214  0.00  0.00    +0.000 F 
ENDBRANCH  16  17
ENDBRANCH   4  16
TORSDOF 2
ENDMDL
MODEL 4
REMARK VINA RESULT:      -7.9      2.798      4.225
REMARK  Name = 
REMARK  2 active torsions:
REMARK  status: ('A' for Active; 'I' for Inactive)
REMARK    1  A    between atoms: C_4  and  C_5
REMARK    2  A    between atoms: C_5  and  C_6
REMARK                            x       y       z     vdW  Elec       q    Type
REMARK                         _______ _______ _______ _____ _____    ______ ____
ROOT
ATOM      1  O   UNL     1       2.590   8.708  17.139  0.00  0.00    +0.000 OA
ATOM      2  C   UNL     1       2.271   8.354  18.267  0.00  0.00    +0.000 A 
ATOM      3  C   UNL     1       2.633   7.042  18.799  0.00  0.00    +0.000 A 
ATOM      4  C   UNL     1       2.257   6.743  20.052  0.00  0.00    +0.000 A 
ATOM      5  N   UNL     1       1.477   7.571  20.838  0.00  0.00    +0.000 NA
ATOM      6  C   UNL     1       1.099   8.706  20.337  0.00  0.00    +0.000 A 
ATOM      7  N   UNL     1       0.212   9.576  20.946  0.00  0.00    +0.000 N 
ATOM      8  C   UNL     1      -1.036   9.850  20.226  0.00  0.00    +0.000 C 
ATOM      9  C   UNL     1      -1.065  11.317  19.820  0.00  0.00    +0.000 C 
ATOM     10  C   UNL     1      -1.456  12.250  20.960  0.00  0.00    +0.000 C 
ATOM     11  C   UNL     1      -0.605  12.120  22.226  0.00  0.00    +0.000 C 
ATOM     12  C   UNL     1      -0.758  10.770  22.938  0.00  0.00    +0.000 C 
ATOM     13  C   UNL     1       0.144   9.644  22.410  0.00  0.00    +0.000 C 
ATOM     14  N   UNL     1       1.532   9.122  19.108  0.00  0.00    +0.000 N 
ATOM     15  H   UNL     1       1.275  10.037  18.783  0.00  0.00    +0.000 HD
ENDROOT
BRANCH   4  16
ATOM     16  C   UNL     1       2.612   5.391  20.634  0.00  0.00    +0.000 C 
BRANCH  16  17
ATOM     17  C   UNL     1       2.533   4.283  19.621  0.00  0.00    +0.000 A 
ATOM     18  C   UNL     1       1.346   3.585  19.406  0.00  0.00    +0.000 A 
ATOM     19  F   UNL     1       0.231   3.937  20.065  0.00  0.00    +0.000 F 
ATOM     20  C   UNL     1       1.283   2.518  18.513  0.00  0.00    +0.000 A 
ATOM     21  C   UNL     1       2.423   2.128  17.811  0.00  0.00    +0.000 A 
ATOM     22  C   UNL     1       3.618   2.820  18.003  0.00  0.00    +0.000 A 
ATOM     23  C   UNL     1       3.661   3.882  18.901  0.00  0.00    +0.000 A 
ATOM     24  F   UNL     1       4.824   4.531  19.073  0.00  0.00    +0.000 F 
ENDBRANCH  16  17
ENDBRANCH   4  16
TORSDOF 2
ENDMDL
MODEL 5
REMARK VINA RESULT:      -7.9      1.043      1.978
REMARK  Name = 
REMARK  2 active torsions:
REMARK  status: ('A' for Active; 'I' for Inactive)
REMARK    1  A    between atoms: C_4  and  C_5
REMARK    2  A    between atoms: C_5  and  C_6
REMARK                            x       y       z     vdW  Elec       q    Type
REMARK                         _______ _______ _______ _____ _____    ______ ____
ROOT
ATOM      1  O   UNL     1       1.076   3.310  21.556  0.00  0.00    +0.000 OA
ATOM      2  C   UNL     1       1.795   3.998  20.844  0.00  0.00    +0.000 A 
ATOM      3  C   UNL     1       3.062   3.501  20.312  0.00  0.00    +0.000 A 
ATOM      4  C   UNL     1       3.781   4.317  19.526  0.00  0.00    +0.000 A 
ATOM      5  N   UNL     1       3.432   5.627  19.256  0.00  0.00    +0.000 NA
ATOM      6  C   UNL     1       2.342   6.088  19.787  0.00  0.00    +0.000 A 
ATOM      7  N   UNL     1       1.933   7.407  19.720  0.00  0.00    +0.000 N 
ATOM      8  C   UNL     1       1.805   8.120  20.996  0.00  0.00    +0.000 C 
ATOM      9  C   UNL     1       0.342   8.478  21.223  0.00  0.00    +0.000 C 
ATOM     10  C   UNL     1      -0.107   9.702  20.434  0.00  0.00    +0.000 C 
ATOM     11  C   UNL     1       0.141   9.629  18.925  0.00  0.00    +0.000 C 
ATOM     12  C   UNL     1       1.626   9.611  18.542  0.00  0.00    +0.000 C 
ATOM     13  C   UNL     1       2.290   8.224  18.555  0.00  0.00    +0.000 C 
ATOM     14  N   UNL     1       1.507   5.282  20.511  0.00  0.00    +0.000 N 
ATOM     15  H   UNL     1       0.637   5.655  20.847  0.00  0.00    +0.000 HD
ENDROOT
BRANCH   4  16
ATOM     16  C   UNL     1       5.101   3.836  18.960  0.00  0.00    +0.000 C 
BRANCH  16  17
ATOM     17  C   UNL     1       5.858   4.922  18.248  0.00  0.00    +0.000 A 
ATOM     18  C   UNL     1       6.868   5.638  18.890  0.00  0.00    +0.000 A 
ATOM     19  F   UNL     1       7.221   5.322  20.145  0.00  0.00    +0.000 F 
ATOM     20  C   UNL     1       7.531   6.685  18.255  0.00  0.00    +0.000 A 
ATOM     21  C   UNL     1       7.191   7.037  16.950  0.00  0.00    +0.000 A 
ATOM     22  C   UNL     1       6.191   6.327  16.286  0.00  0.00    +0.000 A 
ATOM     23  C   UNL     1       5.538   5.285  16.937  0.00  0.00    +0.000 A 
ATOM     24  F   UNL     1       4.575   4.618  16.280  0.00  0.00    +0.000 F 
ENDBRANCH  16  17
ENDBRANCH   4  16
TORSDOF 2
ENDMDL
MODEL 6
REMARK VINA RESULT:      -7.9      1.702      2.282
REMARK  Name = 
REMARK  2 active torsions:
REMARK  status: ('A' for Active; 'I' for Inactive)
REMARK    1  A    between atoms: C_4  and  C_5
REMARK    2  A    between atoms: C_5  and  C_6
REMARK                            x       y       z     vdW  Elec       q    Type
REMARK                         _______ _______ _______ _____ _____    ______ ____
ROOT
ATOM      1  O   UNL     1       1.776   3.880  21.624  0.00  0.00    +0.000 OA
ATOM      2  C   UNL     1       2.085   4.705  20.774  0.00  0.00    +0.000 A 
ATOM      3  C   UNL     1       3.032   4.397  19.705  0.00  0.00    +0.000 A 
ATOM      4  C   UNL     1       3.302   5.355  18.805  0.00  0.00    +0.000 A 
ATOM      5  N   UNL     1       2.799   6.641  18.878  0.00  0.00    +0.000 NA
ATOM      6  C   UNL     1       2.013   6.931  19.868  0.00  0.00    +0.000 A 
ATOM      7  N   UNL     1       1.543   8.200  20.150  0.00  0.00    +0.000 N 
ATOM      8  C   UNL     1       1.929   8.771  21.445  0.00  0.00    +0.000 C 
ATOM      9  C   UNL     1       0.684   8.949  22.303  0.00  0.00    +0.000 C 
ATOM     10  C   UNL     1      -0.126  10.189  21.939  0.00  0.00    +0.000 C 
ATOM     11  C   UNL     1      -0.539  10.285  20.468  0.00  0.00    +0.000 C 
ATOM     12  C   UNL     1       0.641  10.461  19.504  0.00  0.00    +0.000 C 
ATOM     13  C   UNL     1       1.324   9.157  19.060  0.00  0.00    +0.000 C 
ATOM     14  N   UNL     1       1.612   5.977  20.762  0.00  0.00    +0.000 N 
ATOM     15  H   UNL     1       0.948   6.222  21.475  0.00  0.00    +0.000 HD
ENDROOT
BRANCH   4  16
ATOM     16  C   UNL     1       4.281   5.072  17.685  0.00  0.00    +0.000 C 
BRANCH  16  17
ATOM     17  C   UNL     1       5.610   5.744  17.891  0.00  0.00    +0.000 A 
ATOM     18  C   UNL     1       6.471   5.344  18.912  0.00  0.00    +0.000 A 
ATOM     19  F   UNL     1       6.147   4.303  19.693  0.00  0.00    +0.000 F 
ATOM     20  C   UNL     1       7.675   6.003  19.145  0.00  0.00    +0.000 A 
ATOM     21  C   UNL     1       8.043   7.087  18.350  0.00  0.00    +0.000 A 
ATOM     22  C   UNL     1       7.202   7.497  17.316  0.00  0.00    +0.000 A 
ATOM     23  C   UNL     1       6.002   6.827  17.099  0.00  0.00    +0.000 A 
ATOM     24  F   UNL     1       5.205   7.243  16.102  0.00  0.00    +0.000 F 
ENDBRANCH  16  17
ENDBRANCH   4  16
TORSDOF 2
ENDMDL
MODEL 7
REMARK VINA RESULT:      -7.8      2.807      4.480
REMARK  Name = 
REMARK  2 active torsions:
REMARK  status: ('A' for Active; 'I' for Inactive)
REMARK    1  A    between atoms: C_4  and  C_5
REMARK    2  A    between atoms: C_5  and  C_6
REMARK                            x       y       z     vdW  Elec       q    Type
REMARK                         _______ _______ _______ _____ _____    ______ ____
ROOT
ATOM      1  O   UNL     1       2.640   8.593  17.142  0.00  0.00    +0.000 OA
ATOM      2  C   UNL     1       2.300   8.282  18.277  0.00  0.00    +0.000 A 
ATOM      3  C   UNL     1       2.627   6.979  18.852  0.00  0.00    +0.000 A 
ATOM      4  C   UNL     1       2.231   6.727  20.109  0.00  0.00    +0.000 A 
ATOM      5  N   UNL     1       1.462   7.596  20.861  0.00  0.00    +0.000 NA
ATOM      6  C   UNL     1       1.114   8.723  20.321  0.00  0.00    +0.000 A 
ATOM      7  N   UNL     1       0.241   9.630  20.892  0.00  0.00    +0.000 N 
ATOM      8  C   UNL     1      -0.993   9.910  20.150  0.00  0.00    +0.000 C 
ATOM      9  C   UNL     1      -0.985  11.364  19.699  0.00  0.00    +0.000 C 
ATOM     10  C   UNL     1      -1.368  12.340  20.806  0.00  0.00    +0.000 C 
ATOM     11  C   UNL     1      -0.534  12.229  22.085  0.00  0.00    +0.000 C 
ATOM     12  C   UNL     1      -0.725  10.906  22.836  0.00  0.00    +0.000 C 
ATOM     13  C   UNL     1       0.158   9.744  22.353  0.00  0.00    +0.000 C 
ATOM     14  N   UNL     1       1.570   9.091  19.085  0.00  0.00    +0.000 N 
ATOM     15  H   UNL     1       1.337  10.001  18.729  0.00  0.00    +0.000 HD
ENDROOT
BRANCH   4  16
ATOM     16  C   UNL     1       2.549   5.386  20.736  0.00  0.00    +0.000 C 
BRANCH  16  17
ATOM     17  C   UNL     1       2.531   4.260  19.741  0.00  0.00    +0.000 A 
ATOM     18  C   UNL     1       3.686   3.883  19.057  0.00  0.00    +0.000 A 
ATOM     19  F   UNL     1       4.853   4.487  19.326  0.00  0.00    +0.000 F 
ATOM     20  C   UNL     1       3.661   2.881  18.090  0.00  0.00    +0.000 A 
ATOM     21  C   UNL     1       2.466   2.231  17.788  0.00  0.00    +0.000 A 
ATOM     22  C   UNL     1       1.301   2.585  18.469  0.00  0.00    +0.000 A 
ATOM     23  C   UNL     1       1.344   3.590  19.430  0.00  0.00    +0.000 A 
ATOM     24  F   UNL     1       0.210   3.918  20.069  0.00  0.00    +0.000 F 
ENDBRANCH  16  17
ENDBRANCH   4  16
TORSDOF 2
ENDMDL
MODEL 8
REMARK VINA RESULT:      -7.8      1.705      2.231
REMARK  Name = 
REMARK  2 active torsions:
REMARK  status: ('A' for Active; 'I' for Inactive)
REMARK    1  A    between atoms: C_4  and  C_5
REMARK    2  A    between atoms: C_5  and  C_6
REMARK                            x       y       z     vdW  Elec       q    Type
REMARK                         _______ _______ _______ _____ _____    ______ ____
ROOT
ATOM      1  O   UNL     1       1.508   3.816  21.491  0.00  0.00    +0.000 OA
ATOM      2  C   UNL     1       1.893   4.649  20.680  0.00  0.00    +0.000 A 
ATOM      3  C   UNL     1       2.887   4.331  19.656  0.00  0.00    +0.000 A 
ATOM      4  C   UNL     1       3.240   5.300  18.797  0.00  0.00    +0.000 A 
ATOM      5  N   UNL     1       2.779   6.601  18.875  0.00  0.00    +0.000 NA
ATOM      6  C   UNL     1       1.950   6.897  19.828  0.00  0.00    +0.000 A 
ATOM      7  N   UNL     1       1.509   8.175  20.115  0.00  0.00    +0.000 N 
ATOM      8  C   UNL     1       1.843   8.701  21.443  0.00  0.00    +0.000 C 
ATOM      9  C   UNL     1       0.559   8.905  22.236  0.00  0.00    +0.000 C 
ATOM     10  C   UNL     1      -0.185  10.181  21.859  0.00  0.00    +0.000 C 
ATOM     11  C   UNL     1      -0.512  10.327  20.371  0.00  0.00    +0.000 C 
ATOM     12  C   UNL     1       0.725  10.481  19.478  0.00  0.00    +0.000 C 
ATOM     13  C   UNL     1       1.386   9.165  19.039  0.00  0.00    +0.000 C 
ATOM     14  N   UNL     1       1.466   5.937  20.674  0.00  0.00    +0.000 N 
ATOM     15  H   UNL     1       0.772   6.190  21.355  0.00  0.00    +0.000 HD
ENDROOT
BRANCH   4  16
ATOM     16  C   UNL     1       4.269   5.007  17.726  0.00  0.00    +0.000 C 
BRANCH  16  17
ATOM     17  C   UNL     1       5.552   5.762  17.931  0.00  0.00    +0.000 A 
ATOM     18  C   UNL     1       5.911   6.817  17.093  0.00  0.00    +0.000 A 
ATOM     19  F   UNL     1       5.079   7.214  16.119  0.00  0.00    +0.000 F 
ATOM     20  C   UNL     1       7.127   7.479  17.242  0.00  0.00    +0.000 A 
ATOM     21  C   UNL     1       8.015   7.094  18.245  0.00  0.00    +0.000 A 
ATOM     22  C   UNL     1       7.670   6.048  19.101  0.00  0.00    +0.000 A 
ATOM     23  C   UNL     1       6.452   5.397  18.936  0.00  0.00    +0.000 A 
ATOM     24  F   UNL     1       6.144   4.389  19.769  0.00  0.00    +0.000 F 
ENDBRANCH  16  17
ENDBRANCH   4  16
TORSDOF 2
ENDMDL
MODEL 9
REMARK VINA RESULT:      -7.7      2.571      4.473
REMARK  Name = 
REMARK  2 active torsions:
REMARK  status: ('A' for Active; 'I' for Inactive)
REMARK    1  A    between atoms: C_4  and  C_5
REMARK    2  A    between atoms: C_5  and  C_6
REMARK                            x       y       z     vdW  Elec       q    Type
REMARK                         _______ _______ _______ _____ _____    ______ ____
ROOT
ATOM      1  O   UNL     1       5.667   7.119  15.789  0.00  0.00    +0.000 OA
ATOM      2  C   UNL     1       4.861   6.666  16.592  0.00  0.00    +0.000 A 
ATOM      3  C   UNL     1       4.681   5.228  16.780  0.00  0.00    +0.000 A 
ATOM      4  C   UNL     1       3.788   4.817  17.695  0.00  0.00    +0.000 A 
ATOM      5  N   UNL     1       2.972   5.674  18.410  0.00  0.00    +0.000 NA
ATOM      6  C   UNL     1       3.086   6.948  18.189  0.00  0.00    +0.000 A 
ATOM      7  N   UNL     1       2.253   7.914  18.723  0.00  0.00    +0.000 N 
ATOM      8  C   UNL     1       1.482   8.716  17.768  0.00  0.00    +0.000 C 
ATOM      9  C   UNL     1       1.945  10.165  17.844  0.00  0.00    +0.000 C 
ATOM     10  C   UNL     1       1.361  10.921  19.032  0.00  0.00    +0.000 C 
ATOM     11  C   UNL     1       1.596  10.269  20.397  0.00  0.00    +0.000 C 
ATOM     12  C   UNL     1       0.877   8.926  20.573  0.00  0.00    +0.000 C 
ATOM     13  C   UNL     1       1.635   7.701  20.037  0.00  0.00    +0.000 C 
ATOM     14  N   UNL     1       4.046   7.443  17.350  0.00  0.00    +0.000 N 
ATOM     15  H   UNL     1       4.151   8.437  17.258  0.00  0.00    +0.000 HD
ENDROOT
BRANCH   4  16
ATOM     16  C   UNL     1       3.573   3.335  17.914  0.00  0.00    +0.000 C 
BRANCH  16  17
ATOM     17  C   UNL     1       2.804   3.039  19.171  0.00  0.00    +0.000 A 
ATOM     18  C   UNL     1       1.413   3.142  19.207  0.00  0.00    +0.000 A 
ATOM     19  F   UNL     1       0.734   3.452  18.093  0.00  0.00    +0.000 F 
ATOM     20  C   UNL     1       0.701   2.928  20.385  0.00  0.00    +0.000 A 
ATOM     21  C   UNL     1       1.377   2.602  21.560  0.00  0.00    +0.000 A 
ATOM     22  C   UNL     1       2.766   2.484  21.543  0.00  0.00    +0.000 A 
ATOM     23  C   UNL     1       3.461   2.703  20.357  0.00  0.00    +0.000 A 
ATOM     24  F   UNL     1       4.799   2.588  20.365  0.00  0.00    +0.000 F 
ENDBRANCH  16  17
ENDBRANCH   4  16
TORSDOF 2
ENDMDL
