MODEL 1
REMARK VINA RESULT:      -7.2      0.000      0.000
REMARK  Name = 
REMARK  7 active torsions:
REMARK  status: ('A' for Active; 'I' for Inactive)
REMARK    1  A    between atoms: C_1  and  C_2
REMARK    2  A    between atoms: C_2  and  C_21
REMARK    3  A    between atoms: N_3  and  O_4
REMARK    4  A    between atoms: O_4  and  C_5
REMARK    5  A    between atoms: C_5  and  C_7
REMARK    6  A    between atoms: C_8  and  C_9
REMARK    7  A    between atoms: C_19  and  C_20
REMARK                            x       y       z     vdW  Elec       q    Type
REMARK                         _______ _______ _______ _____ _____    ______ ____
ROOT
ATOM      1  C   UNL     1       3.233   4.293  19.412  0.00  0.00    +0.000 A 
ATOM      2  C   UNL     1       4.496   3.788  18.971  0.00  0.00    +0.000 A 
ATOM      3  N   UNL     1       4.901   2.810  19.800  0.00  0.00    +0.000 NA
ATOM      4  O   UNL     1       3.907   2.635  20.735  0.00  0.00    +0.000 OA
ATOM      5  C   UNL     1       2.918   3.533  20.519  0.00  0.00    +0.000 A 
ATOM      6  C   UNL     1       1.767   3.488  21.443  0.00  0.00    +0.000 C 
ENDROOT
BRANCH   2   7
ATOM      7  C   UNL     1       5.340   4.218  17.843  0.00  0.00    +0.000 A 
ATOM      8  C   UNL     1       5.006   3.900  16.508  0.00  0.00    +0.000 A 
ATOM      9 CL   UNL     1       3.494   3.181  16.044  0.00  0.00    +0.000 Cl
ATOM     10  C   UNL     1       5.854   4.239  15.442  0.00  0.00    +0.000 A 
ATOM     11  C   UNL     1       7.008   4.978  15.667  0.00  0.00    +0.000 A 
ATOM     12  C   UNL     1       7.321   5.373  16.963  0.00  0.00    +0.000 A 
ATOM     13  C   UNL     1       6.512   4.982  18.044  0.00  0.00    +0.000 A 
ATOM     14 CL   UNL     1       7.074   5.492  19.604  0.00  0.00    +0.000 Cl
ENDBRANCH   2   7
BRANCH   1  15
ATOM     15  C   UNL     1       2.393   5.323  18.854  0.00  0.00    +0.000 C 
ATOM     16  O   UNL     1       1.380   5.085  18.207  0.00  0.00    +0.000 OA
BRANCH  15  17
ATOM     17  O   UNL     1       2.889   6.583  19.117  0.00  0.00    +0.000 OA
BRANCH  17  20
ATOM     18  C   UNL     1       1.714   8.976  18.446  0.00  0.00    +0.000 C 
ATOM     19  C   UNL     1       1.614   8.326  19.809  0.00  0.00    +0.000 C 
ATOM     20  N   UNL     1       2.117   7.168  20.127  0.00  0.00    +0.000 NA
BRANCH  19  21
ATOM     21  C   UNL     1       0.905   9.066  20.836  0.00  0.00    +0.000 A 
ATOM     22  N   UNL     1       0.947   8.758  22.122  0.00  0.00    +0.000 NA
ATOM     23  C   UNL     1       0.146   9.635  22.836  0.00  0.00    +0.000 A 
ATOM     24  C   UNL     1      -0.508  10.591  22.089  0.00  0.00    +0.000 A 
ATOM     25  S   UNL     1      -0.110  10.403  20.438  0.00  0.00    +0.000 S 
ENDBRANCH  19  21
ENDBRANCH  17  20
ENDBRANCH  15  17
ENDBRANCH   1  15
TORSDOF 5
ENDMDL
MODEL 2
REMARK VINA RESULT:      -7.2      0.907      1.009
REMARK  Name = 
REMARK  7 active torsions:
REMARK  status: ('A' for Active; 'I' for Inactive)
REMARK    1  A    between atoms: C_1  and  C_2
REMARK    2  A    between atoms: C_2  and  C_21
REMARK    3  A    between atoms: N_3  and  O_4
REMARK    4  A    between atoms: O_4  and  C_5
REMARK    5  A    between atoms: C_5  and  C_7
REMARK    6  A    between atoms: C_8  and  C_9
REMARK    7  A    between atoms: C_19  and  C_20
REMARK                            x       y       z     vdW  Elec       q    Type
REMARK                         _______ _______ _______ _____ _____    ______ ____
ROOT
ATOM      1  C   UNL     1       3.288   4.061  19.723  0.00  0.00    +0.000 A 
ATOM      2  C   UNL     1       4.510   3.647  19.109  0.00  0.00    +0.000 A 
ATOM      3  N   UNL     1       5.028   2.612  19.794  0.00  0.00    +0.000 NA
ATOM      4  O   UNL     1       4.144   2.315  20.805  0.00  0.00    +0.000 OA
ATOM      5  C   UNL     1       3.114   3.191  20.779  0.00  0.00    +0.000 A 
ATOM      6  C   UNL     1       2.068   3.018  21.809  0.00  0.00    +0.000 C 
ENDROOT
BRANCH   2   7
ATOM      7  C   UNL     1       5.218   4.209  17.946  0.00  0.00    +0.000 A 
ATOM      8  C   UNL     1       4.764   3.986  16.627  0.00  0.00    +0.000 A 
ATOM      9 CL   UNL     1       3.245   3.234  16.251  0.00  0.00    +0.000 Cl
ATOM     10  C   UNL     1       5.485   4.454  15.517  0.00  0.00    +0.000 A 
ATOM     11  C   UNL     1       6.624   5.229  15.693  0.00  0.00    +0.000 A 
ATOM     12  C   UNL     1       7.050   5.530  16.981  0.00  0.00    +0.000 A 
ATOM     13  C   UNL     1       6.371   5.012  18.098  0.00  0.00    +0.000 A 
ATOM     14 CL   UNL     1       7.066   5.419  19.635  0.00  0.00    +0.000 Cl
ENDBRANCH   2   7
BRANCH   1  15
ATOM     15  C   UNL     1       2.366   5.106  19.356  0.00  0.00    +0.000 C 
ATOM     16  O   UNL     1       1.219   4.889  18.984  0.00  0.00    +0.000 OA
BRANCH  15  17
ATOM     17  O   UNL     1       2.946   6.355  19.450  0.00  0.00    +0.000 OA
BRANCH  17  20
ATOM     18  C   UNL     1       2.218   8.590  18.026  0.00  0.00    +0.000 C 
ATOM     19  C   UNL     1       1.770   8.293  19.441  0.00  0.00    +0.000 C 
ATOM     20  N   UNL     1       2.059   7.214  20.108  0.00  0.00    +0.000 NA
BRANCH  19  21
ATOM     21  C   UNL     1       0.958   9.303  20.095  0.00  0.00    +0.000 A 
ATOM     22  N   UNL     1       0.808  10.533  19.633  0.00  0.00    +0.000 NA
ATOM     23  C   UNL     1      -0.002  11.257  20.494  0.00  0.00    +0.000 A 
ATOM     24  C   UNL     1      -0.447  10.579  21.607  0.00  0.00    +0.000 A 
ATOM     25  S   UNL     1       0.152   8.978  21.585  0.00  0.00    +0.000 S 
ENDBRANCH  19  21
ENDBRANCH  17  20
ENDBRANCH  15  17
ENDBRANCH   1  15
TORSDOF 5
ENDMDL
MODEL 3
REMARK VINA RESULT:      -7.0      1.963      4.022
REMARK  Name = 
REMARK  7 active torsions:
REMARK  status: ('A' for Active; 'I' for Inactive)
REMARK    1  A    between atoms: C_1  and  C_2
REMARK    2  A    between atoms: C_2  and  C_21
REMARK    3  A    between atoms: N_3  and  O_4
REMARK    4  A    between atoms: O_4  and  C_5
REMARK    5  A    between atoms: C_5  and  C_7
REMARK    6  A    between atoms: C_8  and  C_9
REMARK    7  A    between atoms: C_19  and  C_20
REMARK                            x       y       z     vdW  Elec       q    Type
REMARK                         _______ _______ _______ _____ _____    ______ ____
ROOT
ATOM      1  C   UNL     1       4.817   4.615  17.614  0.00  0.00    +0.000 A 
ATOM      2  C   UNL     1       4.013   3.493  17.985  0.00  0.00    +0.000 A 
ATOM      3  N   UNL     1       4.205   2.495  17.104  0.00  0.00    +0.000 NA
ATOM      4  O   UNL     1       5.152   2.925  16.204  0.00  0.00    +0.000 OA
ATOM      5  C   UNL     1       5.505   4.199  16.493  0.00  0.00    +0.000 A 
ATOM      6  C   UNL     1       6.516   4.823  15.615  0.00  0.00    +0.000 C 
ENDROOT
BRANCH   2   7
ATOM      7  C   UNL     1       3.054   3.347  19.093  0.00  0.00    +0.000 A 
ATOM      8  C   UNL     1       1.754   3.893  19.020  0.00  0.00    +0.000 A 
ATOM      9 CL   UNL     1       1.085   4.586  17.575  0.00  0.00    +0.000 Cl
ATOM     10  C   UNL     1       0.870   3.824  20.109  0.00  0.00    +0.000 A 
ATOM     11  C   UNL     1       1.224   3.133  21.260  0.00  0.00    +0.000 A 
ATOM     12  C   UNL     1       2.468   2.518  21.329  0.00  0.00    +0.000 A 
ATOM     13  C   UNL     1       3.384   2.638  20.270  0.00  0.00    +0.000 A 
ATOM     14 CL   UNL     1       4.920   1.875  20.536  0.00  0.00    +0.000 Cl
ENDBRANCH   2   7
BRANCH   1  15
ATOM     15  C   UNL     1       4.970   5.903  18.243  0.00  0.00    +0.000 C 
ATOM     16  O   UNL     1       5.873   6.163  19.029  0.00  0.00    +0.000 OA
BRANCH  15  17
ATOM     17  O   UNL     1       3.968   6.775  17.870  0.00  0.00    +0.000 OA
BRANCH  17  20
ATOM     18  C   UNL     1       2.053   8.709  17.487  0.00  0.00    +0.000 C 
ATOM     19  C   UNL     1       2.306   8.004  18.802  0.00  0.00    +0.000 C 
ATOM     20  N   UNL     1       3.170   7.048  18.986  0.00  0.00    +0.000 NA
BRANCH  19  21
ATOM     21  C   UNL     1       1.522   8.443  19.941  0.00  0.00    +0.000 A 
ATOM     22  N   UNL     1       1.316   7.702  21.018  0.00  0.00    +0.000 NA
ATOM     23  C   UNL     1       0.509   8.391  21.909  0.00  0.00    +0.000 A 
ATOM     24  C   UNL     1       0.096   9.640  21.498  0.00  0.00    +0.000 A 
ATOM     25  S   UNL     1       0.740   9.980  19.952  0.00  0.00    +0.000 S 
ENDBRANCH  19  21
ENDBRANCH  17  20
ENDBRANCH  15  17
ENDBRANCH   1  15
TORSDOF 5
ENDMDL
MODEL 4
REMARK VINA RESULT:      -6.9      1.283      2.340
REMARK  Name = 
REMARK  7 active torsions:
REMARK  status: ('A' for Active; 'I' for Inactive)
REMARK    1  A    between atoms: C_1  and  C_2
REMARK    2  A    between atoms: C_2  and  C_21
REMARK    3  A    between atoms: N_3  and  O_4
REMARK    4  A    between atoms: O_4  and  C_5
REMARK    5  A    between atoms: C_5  and  C_7
REMARK    6  A    between atoms: C_8  and  C_9
REMARK    7  A    between atoms: C_19  and  C_20
REMARK                            x       y       z     vdW  Elec       q    Type
REMARK                         _______ _______ _______ _____ _____    ______ ____
ROOT
ATOM      1  C   UNL     1       3.275   4.054  19.923  0.00  0.00    +0.000 A 
ATOM      2  C   UNL     1       4.455   3.722  19.189  0.00  0.00    +0.000 A 
ATOM      3  N   UNL     1       5.016   2.620  19.717  0.00  0.00    +0.000 NA
ATOM      4  O   UNL     1       4.199   2.201  20.741  0.00  0.00    +0.000 OA
ATOM      5  C   UNL     1       3.168   3.067  20.881  0.00  0.00    +0.000 A 
ATOM      6  C   UNL     1       2.191   2.769  21.948  0.00  0.00    +0.000 C 
ENDROOT
BRANCH   2   7
ATOM      7  C   UNL     1       5.087   4.420  18.055  0.00  0.00    +0.000 A 
ATOM      8  C   UNL     1       6.209   5.257  18.238  0.00  0.00    +0.000 A 
ATOM      9 CL   UNL     1       7.078   5.381  19.737  0.00  0.00    +0.000 Cl
ATOM     10  C   UNL     1       6.759   5.985  17.171  0.00  0.00    +0.000 A 
ATOM     11  C   UNL     1       6.264   5.830  15.883  0.00  0.00    +0.000 A 
ATOM     12  C   UNL     1       5.210   4.951  15.661  0.00  0.00    +0.000 A 
ATOM     13  C   UNL     1       4.611   4.268  16.734  0.00  0.00    +0.000 A 
ATOM     14 CL   UNL     1       3.262   3.264  16.304  0.00  0.00    +0.000 Cl
ENDBRANCH   2   7
BRANCH   1  15
ATOM     15  C   UNL     1       2.330   5.126  19.737  0.00  0.00    +0.000 C 
ATOM     16  O   UNL     1       1.128   4.944  19.590  0.00  0.00    +0.000 OA
BRANCH  15  17
ATOM     17  O   UNL     1       2.953   6.357  19.720  0.00  0.00    +0.000 OA
BRANCH  17  20
ATOM     18  C   UNL     1       2.678   8.279  17.774  0.00  0.00    +0.000 C 
ATOM     19  C   UNL     1       1.926   8.277  19.087  0.00  0.00    +0.000 C 
ATOM     20  N   UNL     1       2.003   7.346  19.994  0.00  0.00    +0.000 NA
BRANCH  19  21
ATOM     21  C   UNL     1       1.058   9.411  19.345  0.00  0.00    +0.000 A 
ATOM     22  N   UNL     1       0.554  10.179  18.393  0.00  0.00    +0.000 NA
ATOM     23  C   UNL     1      -0.208  11.186  18.963  0.00  0.00    +0.000 A 
ATOM     24  C   UNL     1      -0.265  11.187  20.339  0.00  0.00    +0.000 A 
ATOM     25  S   UNL     1       0.653   9.883  20.954  0.00  0.00    +0.000 S 
ENDBRANCH  19  21
ENDBRANCH  17  20
ENDBRANCH  15  17
ENDBRANCH   1  15
TORSDOF 5
ENDMDL
MODEL 5
REMARK VINA RESULT:      -6.9      1.208      1.527
REMARK  Name = 
REMARK  7 active torsions:
REMARK  status: ('A' for Active; 'I' for Inactive)
REMARK    1  A    between atoms: C_1  and  C_2
REMARK    2  A    between atoms: C_2  and  C_21
REMARK    3  A    between atoms: N_3  and  O_4
REMARK    4  A    between atoms: O_4  and  C_5
REMARK    5  A    between atoms: C_5  and  C_7
REMARK    6  A    between atoms: C_8  and  C_9
REMARK    7  A    between atoms: C_19  and  C_20
REMARK                            x       y       z     vdW  Elec       q    Type
REMARK                         _______ _______ _______ _____ _____    ______ ____
ROOT
ATOM      1  C   UNL     1       3.263   4.429  19.548  0.00  0.00    +0.000 A 
ATOM      2  C   UNL     1       4.438   3.840  18.988  0.00  0.00    +0.000 A 
ATOM      3  N   UNL     1       4.777   2.751  19.700  0.00  0.00    +0.000 NA
ATOM      4  O   UNL     1       3.820   2.592  20.675  0.00  0.00    +0.000 OA
ATOM      5  C   UNL     1       2.925   3.604  20.601  0.00  0.00    +0.000 A 
ATOM      6  C   UNL     1       1.825   3.592  21.587  0.00  0.00    +0.000 C 
ENDROOT
BRANCH   2   7
ATOM      7  C   UNL     1       5.265   4.285  17.852  0.00  0.00    +0.000 A 
ATOM      8  C   UNL     1       4.904   3.993  16.519  0.00  0.00    +0.000 A 
ATOM      9 CL   UNL     1       3.380   3.291  16.070  0.00  0.00    +0.000 Cl
ATOM     10  C   UNL     1       5.735   4.345  15.443  0.00  0.00    +0.000 A 
ATOM     11  C   UNL     1       6.897   5.074  15.660  0.00  0.00    +0.000 A 
ATOM     12  C   UNL     1       7.236   5.443  16.957  0.00  0.00    +0.000 A 
ATOM     13  C   UNL     1       6.445   5.038  18.046  0.00  0.00    +0.000 A 
ATOM     14 CL   UNL     1       7.038   5.517  19.604  0.00  0.00    +0.000 Cl
ENDBRANCH   2   7
BRANCH   1  15
ATOM     15  C   UNL     1       2.512   5.589  19.137  0.00  0.00    +0.000 C 
ATOM     16  O   UNL     1       1.945   5.671  18.054  0.00  0.00    +0.000 OA
BRANCH  15  17
ATOM     17  O   UNL     1       2.543   6.582  20.094  0.00  0.00    +0.000 OA
BRANCH  17  20
ATOM     18  C   UNL     1       1.148   8.195  21.828  0.00  0.00    +0.000 C 
ATOM     19  C   UNL     1       1.341   8.486  20.355  0.00  0.00    +0.000 C 
ATOM     20  N   UNL     1       2.044   7.762  19.533  0.00  0.00    +0.000 NA
BRANCH  19  21
ATOM     21  C   UNL     1       0.678   9.666  19.830  0.00  0.00    +0.000 A 
ATOM     22  N   UNL     1      -0.482  10.115  20.280  0.00  0.00    +0.000 NA
ATOM     23  C   UNL     1      -0.858  11.236  19.558  0.00  0.00    +0.000 A 
ATOM     24  C   UNL     1       0.008  11.621  18.558  0.00  0.00    +0.000 A 
ATOM     25  S   UNL     1       1.346  10.558  18.514  0.00  0.00    +0.000 S 
ENDBRANCH  19  21
ENDBRANCH  17  20
ENDBRANCH  15  17
ENDBRANCH   1  15
TORSDOF 5
ENDMDL
MODEL 6
REMARK VINA RESULT:      -6.9      0.309      1.866
REMARK  Name = 
REMARK  7 active torsions:
REMARK  status: ('A' for Active; 'I' for Inactive)
REMARK    1  A    between atoms: C_1  and  C_2
REMARK    2  A    between atoms: C_2  and  C_21
REMARK    3  A    between atoms: N_3  and  O_4
REMARK    4  A    between atoms: O_4  and  C_5
REMARK    5  A    between atoms: C_5  and  C_7
REMARK    6  A    between atoms: C_8  and  C_9
REMARK    7  A    between atoms: C_19  and  C_20
REMARK                            x       y       z     vdW  Elec       q    Type
REMARK                         _______ _______ _______ _____ _____    ______ ____
ROOT
ATOM      1  C   UNL     1       3.244   4.403  19.327  0.00  0.00    +0.000 A 
ATOM      2  C   UNL     1       4.526   3.926  18.915  0.00  0.00    +0.000 A 
ATOM      3  N   UNL     1       4.924   2.941  19.739  0.00  0.00    +0.000 NA
ATOM      4  O   UNL     1       3.907   2.734  20.642  0.00  0.00    +0.000 OA
ATOM      5  C   UNL     1       2.910   3.619  20.413  0.00  0.00    +0.000 A 
ATOM      6  C   UNL     1       1.734   3.540  21.303  0.00  0.00    +0.000 C 
ENDROOT
BRANCH   2   7
ATOM      7  C   UNL     1       5.395   4.388  17.819  0.00  0.00    +0.000 A 
ATOM      8  C   UNL     1       6.547   5.166  18.068  0.00  0.00    +0.000 A 
ATOM      9 CL   UNL     1       7.172   5.470  19.660  0.00  0.00    +0.000 Cl
ATOM     10  C   UNL     1       7.327   5.674  17.017  0.00  0.00    +0.000 A 
ATOM     11  C   UNL     1       7.034   5.347  15.700  0.00  0.00    +0.000 A 
ATOM     12  C   UNL     1       5.951   4.518  15.430  0.00  0.00    +0.000 A 
ATOM     13  C   UNL     1       5.125   4.058  16.471  0.00  0.00    +0.000 A 
ATOM     14 CL   UNL     1       3.775   3.092  15.967  0.00  0.00    +0.000 Cl
ENDBRANCH   2   7
BRANCH   1  15
ATOM     15  C   UNL     1       2.403   5.428  18.763  0.00  0.00    +0.000 C 
ATOM     16  O   UNL     1       1.391   5.185  18.116  0.00  0.00    +0.000 OA
BRANCH  15  17
ATOM     17  O   UNL     1       2.896   6.691  19.019  0.00  0.00    +0.000 OA
BRANCH  17  20
ATOM     18  C   UNL     1       1.713   9.064  18.296  0.00  0.00    +0.000 C 
ATOM     19  C   UNL     1       1.604   8.436  19.669  0.00  0.00    +0.000 C 
ATOM     20  N   UNL     1       2.111   7.287  20.011  0.00  0.00    +0.000 NA
BRANCH  19  21
ATOM     21  C   UNL     1       0.879   9.190  20.677  0.00  0.00    +0.000 A 
ATOM     22  N   UNL     1       0.386   8.650  21.779  0.00  0.00    +0.000 NA
ATOM     23  C   UNL     1      -0.270   9.623  22.518  0.00  0.00    +0.000 A 
ATOM     24  C   UNL     1      -0.283  10.885  21.967  0.00  0.00    +0.000 A 
ATOM     25  S   UNL     1       0.558  10.872  20.479  0.00  0.00    +0.000 S 
ENDBRANCH  19  21
ENDBRANCH  17  20
ENDBRANCH  15  17
ENDBRANCH   1  15
TORSDOF 5
ENDMDL
MODEL 7
REMARK VINA RESULT:      -6.8      1.971      4.281
REMARK  Name = 
REMARK  7 active torsions:
REMARK  status: ('A' for Active; 'I' for Inactive)
REMARK    1  A    between atoms: C_1  and  C_2
REMARK    2  A    between atoms: C_2  and  C_21
REMARK    3  A    between atoms: N_3  and  O_4
REMARK    4  A    between atoms: O_4  and  C_5
REMARK    5  A    between atoms: C_5  and  C_7
REMARK    6  A    between atoms: C_8  and  C_9
REMARK    7  A    between atoms: C_19  and  C_20
REMARK                            x       y       z     vdW  Elec       q    Type
REMARK                         _______ _______ _______ _____ _____    ______ ____
ROOT
ATOM      1  C   UNL     1       4.853   4.496  17.692  0.00  0.00    +0.000 A 
ATOM      2  C   UNL     1       3.990   3.404  18.017  0.00  0.00    +0.000 A 
ATOM      3  N   UNL     1       4.142   2.427  17.106  0.00  0.00    +0.000 NA
ATOM      4  O   UNL     1       5.120   2.839  16.230  0.00  0.00    +0.000 OA
ATOM      5  C   UNL     1       5.533   4.084  16.565  0.00  0.00    +0.000 A 
ATOM      6  C   UNL     1       6.583   4.685  15.718  0.00  0.00    +0.000 C 
ENDROOT
BRANCH   2   7
ATOM      7  C   UNL     1       3.012   3.269  19.110  0.00  0.00    +0.000 A 
ATOM      8  C   UNL     1       3.333   2.594  20.308  0.00  0.00    +0.000 A 
ATOM      9 CL   UNL     1       4.936   2.055  20.705  0.00  0.00    +0.000 Cl
ATOM     10  C   UNL     1       2.374   2.395  21.314  0.00  0.00    +0.000 A 
ATOM     11  C   UNL     1       1.102   2.939  21.193  0.00  0.00    +0.000 A 
ATOM     12  C   UNL     1       0.784   3.676  20.058  0.00  0.00    +0.000 A 
ATOM     13  C   UNL     1       1.716   3.825  19.017  0.00  0.00    +0.000 A 
ATOM     14 CL   UNL     1       1.144   4.711  17.639  0.00  0.00    +0.000 Cl
ENDBRANCH   2   7
BRANCH   1  15
ATOM     15  C   UNL     1       5.062   5.753  18.365  0.00  0.00    +0.000 C 
ATOM     16  O   UNL     1       5.933   5.926  19.210  0.00  0.00    +0.000 OA
BRANCH  15  17
ATOM     17  O   UNL     1       4.150   6.707  17.960  0.00  0.00    +0.000 OA
BRANCH  17  20
ATOM     18  C   UNL     1       2.291   8.671  17.472  0.00  0.00    +0.000 C 
ATOM     19  C   UNL     1       2.435   7.937  18.788  0.00  0.00    +0.000 C 
ATOM     20  N   UNL     1       3.273   6.967  19.018  0.00  0.00    +0.000 NA
BRANCH  19  21
ATOM     21  C   UNL     1       1.570   8.364  19.872  0.00  0.00    +0.000 A 
ATOM     22  N   UNL     1       1.380   7.660  20.976  0.00  0.00    +0.000 NA
ATOM     23  C   UNL     1       0.482   8.322  21.799  0.00  0.00    +0.000 A 
ATOM     24  C   UNL     1      -0.013   9.511  21.310  0.00  0.00    +0.000 A 
ATOM     25  S   UNL     1       0.666   9.829  19.774  0.00  0.00    +0.000 S 
ENDBRANCH  19  21
ENDBRANCH  17  20
ENDBRANCH  15  17
ENDBRANCH   1  15
TORSDOF 5
ENDMDL
MODEL 8
REMARK VINA RESULT:      -6.7      1.220      2.417
REMARK  Name = 
REMARK  7 active torsions:
REMARK  status: ('A' for Active; 'I' for Inactive)
REMARK    1  A    between atoms: C_1  and  C_2
REMARK    2  A    between atoms: C_2  and  C_21
REMARK    3  A    between atoms: N_3  and  O_4
REMARK    4  A    between atoms: O_4  and  C_5
REMARK    5  A    between atoms: C_5  and  C_7
REMARK    6  A    between atoms: C_8  and  C_9
REMARK    7  A    between atoms: C_19  and  C_20
REMARK                            x       y       z     vdW  Elec       q    Type
REMARK                         _______ _______ _______ _____ _____    ______ ____
ROOT
ATOM      1  C   UNL     1       3.229   4.342  19.637  0.00  0.00    +0.000 A 
ATOM      2  C   UNL     1       4.462   3.895  19.067  0.00  0.00    +0.000 A 
ATOM      3  N   UNL     1       4.907   2.824  19.746  0.00  0.00    +0.000 NA
ATOM      4  O   UNL     1       3.967   2.535  20.708  0.00  0.00    +0.000 OA
ATOM      5  C   UNL     1       2.973   3.452  20.659  0.00  0.00    +0.000 A 
ATOM      6  C   UNL     1       1.875   3.294  21.636  0.00  0.00    +0.000 C 
ENDROOT
BRANCH   2   7
ATOM      7  C   UNL     1       5.244   4.460  17.953  0.00  0.00    +0.000 A 
ATOM      8  C   UNL     1       6.387   5.256  18.184  0.00  0.00    +0.000 A 
ATOM      9 CL   UNL     1       7.106   5.469  19.750  0.00  0.00    +0.000 Cl
ATOM     10  C   UNL     1       7.082   5.860  17.124  0.00  0.00    +0.000 A 
ATOM     11  C   UNL     1       6.712   5.615  15.808  0.00  0.00    +0.000 A 
ATOM     12  C   UNL     1       5.638   4.772  15.550  0.00  0.00    +0.000 A 
ATOM     13  C   UNL     1       4.896   4.215  16.606  0.00  0.00    +0.000 A 
ATOM     14 CL   UNL     1       3.543   3.243  16.121  0.00  0.00    +0.000 Cl
ENDBRANCH   2   7
BRANCH   1  15
ATOM     15  C   UNL     1       2.366   5.431  19.258  0.00  0.00    +0.000 C 
ATOM     16  O   UNL     1       1.943   5.587  18.118  0.00  0.00    +0.000 OA
BRANCH  15  17
ATOM     17  O   UNL     1       2.108   6.272  20.321  0.00  0.00    +0.000 OA
BRANCH  17  20
ATOM     18  C   UNL     1       0.461   7.989  21.696  0.00  0.00    +0.000 C 
ATOM     19  C   UNL     1       1.287   8.378  20.489  0.00  0.00    +0.000 C 
ATOM     20  N   UNL     1       2.113   7.593  19.860  0.00  0.00    +0.000 NA
BRANCH  19  21
ATOM     21  C   UNL     1       1.130   9.736  19.999  0.00  0.00    +0.000 A 
ATOM     22  N   UNL     1       0.706  10.740  20.750  0.00  0.00    +0.000 NA
ATOM     23  C   UNL     1       0.640  11.894  19.986  0.00  0.00    +0.000 A 
ATOM     24  C   UNL     1       0.998  11.757  18.663  0.00  0.00    +0.000 A 
ATOM     25  S   UNL     1       1.444  10.136  18.352  0.00  0.00    +0.000 S 
ENDBRANCH  19  21
ENDBRANCH  17  20
ENDBRANCH  15  17
ENDBRANCH   1  15
TORSDOF 5
ENDMDL
MODEL 9
REMARK VINA RESULT:      -6.7      1.234      2.427
REMARK  Name = 
REMARK  7 active torsions:
REMARK  status: ('A' for Active; 'I' for Inactive)
REMARK    1  A    between atoms: C_1  and  C_2
REMARK    2  A    between atoms: C_2  and  C_21
REMARK    3  A    between atoms: N_3  and  O_4
REMARK    4  A    between atoms: O_4  and  C_5
REMARK    5  A    between atoms: C_5  and  C_7
REMARK    6  A    between atoms: C_8  and  C_9
REMARK    7  A    between atoms: C_19  and  C_20
REMARK                            x       y       z     vdW  Elec       q    Type
REMARK                         _______ _______ _______ _____ _____    ______ ____
ROOT
ATOM      1  C   UNL     1       3.297   4.543  19.508  0.00  0.00    +0.000 A 
ATOM      2  C   UNL     1       4.517   4.023  18.978  0.00  0.00    +0.000 A 
ATOM      3  N   UNL     1       4.894   2.948  19.693  0.00  0.00    +0.000 NA
ATOM      4  O   UNL     1       3.920   2.731  20.639  0.00  0.00    +0.000 OA
ATOM      5  C   UNL     1       2.974   3.694  20.545  0.00  0.00    +0.000 A 
ATOM      6  C   UNL     1       1.848   3.615  21.500  0.00  0.00    +0.000 C 
ENDROOT
BRANCH   2   7
ATOM      7  C   UNL     1       5.351   4.519  17.869  0.00  0.00    +0.000 A 
ATOM      8  C   UNL     1       6.517   5.279  18.106  0.00  0.00    +0.000 A 
ATOM      9 CL   UNL     1       7.200   5.519  19.685  0.00  0.00    +0.000 Cl
ATOM     10  C   UNL     1       7.264   5.820  17.047  0.00  0.00    +0.000 A 
ATOM     11  C   UNL     1       6.921   5.545  15.730  0.00  0.00    +0.000 A 
ATOM     12  C   UNL     1       5.823   4.734  15.469  0.00  0.00    +0.000 A 
ATOM     13  C   UNL     1       5.031   4.242  16.521  0.00  0.00    +0.000 A 
ATOM     14 CL   UNL     1       3.656   3.305  16.029  0.00  0.00    +0.000 Cl
ENDBRANCH   2   7
BRANCH   1  15
ATOM     15  C   UNL     1       2.497   5.664  19.082  0.00  0.00    +0.000 C 
ATOM     16  O   UNL     1       1.842   5.667  18.047  0.00  0.00    +0.000 OA
BRANCH  15  17
ATOM     17  O   UNL     1       2.590   6.721  19.964  0.00  0.00    +0.000 OA
BRANCH  17  20
ATOM     18  C   UNL     1       1.430   8.417  21.791  0.00  0.00    +0.000 C 
ATOM     19  C   UNL     1       1.343   8.587  20.289  0.00  0.00    +0.000 C 
ATOM     20  N   UNL     1       1.932   7.826  19.412  0.00  0.00    +0.000 NA
BRANCH  19  21
ATOM     21  C   UNL     1       0.530   9.686  19.802  0.00  0.00    +0.000 A 
ATOM     22  N   UNL     1       0.382   9.975  18.520  0.00  0.00    +0.000 NA
ATOM     23  C   UNL     1      -0.430  11.090  18.386  0.00  0.00    +0.000 A 
ATOM     24  C   UNL     1      -0.878  11.649  19.563  0.00  0.00    +0.000 A 
ATOM     25  S   UNL     1      -0.279  10.753  20.890  0.00  0.00    +0.000 S 
ENDBRANCH  19  21
ENDBRANCH  17  20
ENDBRANCH  15  17
ENDBRANCH   1  15
TORSDOF 5
ENDMDL
