MODEL 1
REMARK VINA RESULT:      -9.0      0.000      0.000
REMARK  Name = 
REMARK  7 active torsions:
REMARK  status: ('A' for Active; 'I' for Inactive)
REMARK    1  A    between atoms: C_1  and  O_2
REMARK    2  A    between atoms: O_2  and  C_3
REMARK    3  A    between atoms: C_6  and  C_7
REMARK    4  A    between atoms: C_9  and  C_10
REMARK    5  A    between atoms: C_10  and  O_12
REMARK    6  A    between atoms: O_12  and  C_13
REMARK    7  A    between atoms: C_13  and  C_14
REMARK                            x       y       z     vdW  Elec       q    Type
REMARK                         _______ _______ _______ _____ _____    ______ ____
ROOT
ATOM      1  C   UNL     1       2.781   6.448  18.861  0.00  0.00    +0.000 A 
ATOM      2  C   UNL     1       4.084   6.199  19.243  0.00  0.00    +0.000 A 
ATOM      3  C   UNL     1       4.632   4.962  18.956  0.00  0.00    +0.000 A 
ATOM      4  C   UNL     1       3.794   3.878  18.734  0.00  0.00    +0.000 A 
ATOM      5  C   UNL     1       4.213   2.535  18.897  0.00  0.00    +0.000 A 
ATOM      6  C   UNL     1       3.340   1.484  18.670  0.00  0.00    +0.000 A 
ATOM      7  C   UNL     1       2.063   1.768  18.209  0.00  0.00    +0.000 A 
ATOM      8  C   UNL     1       1.645   3.098  18.060  0.00  0.00    +0.000 A 
ATOM      9  C   UNL     1       2.464   4.177  18.391  0.00  0.00    +0.000 A 
ATOM     10  N   UNL     1       1.998   5.447  18.378  0.00  0.00    +0.000 NA
ENDROOT
BRANCH   1  14
ATOM     11  C   UNL     1       0.773  10.251  19.109  0.00  0.00    +0.000 A 
ATOM     12  C   UNL     1       0.837   9.419  20.217  0.00  0.00    +0.000 A 
ATOM     13  C   UNL     1       1.575   8.238  20.163  0.00  0.00    +0.000 A 
ATOM     14  C   UNL     1       2.216   7.812  18.979  0.00  0.00    +0.000 A 
ATOM     15  C   UNL     1       2.219   8.712  17.905  0.00  0.00    +0.000 A 
ATOM     16  C   UNL     1       1.498   9.917  17.965  0.00  0.00    +0.000 A 
BRANCH  11  18
ATOM     17  C   UNL     1      -0.589  11.526  20.563  0.00  0.00    +0.000 C 
ATOM     18  O   UNL     1      -0.049  11.330  19.266  0.00  0.00    +0.000 OA
ENDBRANCH  11  18
ENDBRANCH   1  14
BRANCH   3  19
ATOM     19  C   UNL     1       6.054   4.930  18.476  0.00  0.00    +0.000 C 
ATOM     20  O   UNL     1       7.018   4.956  19.218  0.00  0.00    +0.000 OA
BRANCH  19  21
ATOM     21  O   UNL     1       6.077   4.656  17.152  0.00  0.00    +0.000 OA
BRANCH  21  22
ATOM     22  C   UNL     1       7.092   5.324  16.393  0.00  0.00    +0.000 C 
BRANCH  22  23
ATOM     23  C   UNL     1       6.996   4.920  14.937  0.00  0.00    +0.000 A 
ATOM     24  C   UNL     1       6.081   3.950  14.519  0.00  0.00    +0.000 A 
ATOM     25  C   UNL     1       6.054   3.577  13.177  0.00  0.00    +0.000 A 
ATOM     26  C   UNL     1       6.940   4.166  12.284  0.00  0.00    +0.000 A 
ATOM     27  C   UNL     1       7.817   5.120  12.779  0.00  0.00    +0.000 A 
ATOM     28  N   UNL     1       7.861   5.510  14.072  0.00  0.00    +0.000 NA
ENDBRANCH  22  23
ENDBRANCH  21  22
ENDBRANCH  19  21
ENDBRANCH   3  19
TORSDOF 6
ENDMDL
MODEL 2
REMARK VINA RESULT:      -8.9      0.616      1.096
REMARK  Name = 
REMARK  7 active torsions:
REMARK  status: ('A' for Active; 'I' for Inactive)
REMARK    1  A    between atoms: C_1  and  O_2
REMARK    2  A    between atoms: O_2  and  C_3
REMARK    3  A    between atoms: C_6  and  C_7
REMARK    4  A    between atoms: C_9  and  C_10
REMARK    5  A    between atoms: C_10  and  O_12
REMARK    6  A    between atoms: O_12  and  C_13
REMARK    7  A    between atoms: C_13  and  C_14
REMARK                            x       y       z     vdW  Elec       q    Type
REMARK                         _______ _______ _______ _____ _____    ______ ____
ROOT
ATOM      1  C   UNL     1       2.784   6.486  18.798  0.00  0.00    +0.000 A 
ATOM      2  C   UNL     1       3.989   6.271  19.437  0.00  0.00    +0.000 A 
ATOM      3  C   UNL     1       4.648   5.075  19.220  0.00  0.00    +0.000 A 
ATOM      4  C   UNL     1       3.934   3.971  18.776  0.00  0.00    +0.000 A 
ATOM      5  C   UNL     1       4.377   2.639  18.965  0.00  0.00    +0.000 A 
ATOM      6  C   UNL     1       3.628   1.567  18.511  0.00  0.00    +0.000 A 
ATOM      7  C   UNL     1       2.464   1.822  17.800  0.00  0.00    +0.000 A 
ATOM      8  C   UNL     1       2.019   3.140  17.625  0.00  0.00    +0.000 A 
ATOM      9  C   UNL     1       2.692   4.232  18.171  0.00  0.00    +0.000 A 
ATOM     10  N   UNL     1       2.174   5.481  18.114  0.00  0.00    +0.000 NA
ENDROOT
BRANCH   1  14
ATOM     11  C   UNL     1       1.266  10.508  19.066  0.00  0.00    +0.000 A 
ATOM     12  C   UNL     1       1.835  10.051  17.887  0.00  0.00    +0.000 A 
ATOM     13  C   UNL     1       2.231   8.720  17.771  0.00  0.00    +0.000 A 
ATOM     14  C   UNL     1       2.137   7.817  18.852  0.00  0.00    +0.000 A 
ATOM     15  C   UNL     1       1.472   8.273  19.998  0.00  0.00    +0.000 A 
ATOM     16  C   UNL     1       1.048   9.608  20.109  0.00  0.00    +0.000 A 
BRANCH  11  18
ATOM     17  C   UNL     1       0.663  12.412  20.334  0.00  0.00    +0.000 C 
ATOM     18  O   UNL     1       1.002  11.847  19.078  0.00  0.00    +0.000 OA
ENDBRANCH  11  18
ENDBRANCH   1  14
BRANCH   3  19
ATOM     19  C   UNL     1       6.139   5.127  19.054  0.00  0.00    +0.000 C 
ATOM     20  O   UNL     1       6.911   5.390  19.957  0.00  0.00    +0.000 OA
BRANCH  19  21
ATOM     21  O   UNL     1       6.475   4.637  17.839  0.00  0.00    +0.000 OA
BRANCH  21  22
ATOM     22  C   UNL     1       6.963   5.596  16.893  0.00  0.00    +0.000 C 
BRANCH  22  23
ATOM     23  C   UNL     1       6.770   5.073  15.484  0.00  0.00    +0.000 A 
ATOM     24  C   UNL     1       5.710   4.217  15.175  0.00  0.00    +0.000 A 
ATOM     25  C   UNL     1       5.593   3.725  13.876  0.00  0.00    +0.000 A 
ATOM     26  C   UNL     1       6.532   4.087  12.919  0.00  0.00    +0.000 A 
ATOM     27  C   UNL     1       7.553   4.941  13.307  0.00  0.00    +0.000 A 
ATOM     28  N   UNL     1       7.690   5.442  14.556  0.00  0.00    +0.000 NA
ENDBRANCH  22  23
ENDBRANCH  21  22
ENDBRANCH  19  21
ENDBRANCH   3  19
TORSDOF 6
ENDMDL
MODEL 3
REMARK VINA RESULT:      -8.7      2.199      3.073
REMARK  Name = 
REMARK  7 active torsions:
REMARK  status: ('A' for Active; 'I' for Inactive)
REMARK    1  A    between atoms: C_1  and  O_2
REMARK    2  A    between atoms: O_2  and  C_3
REMARK    3  A    between atoms: C_6  and  C_7
REMARK    4  A    between atoms: C_9  and  C_10
REMARK    5  A    between atoms: C_10  and  O_12
REMARK    6  A    between atoms: O_12  and  C_13
REMARK    7  A    between atoms: C_13  and  C_14
REMARK                            x       y       z     vdW  Elec       q    Type
REMARK                         _______ _______ _______ _____ _____    ______ ____
ROOT
ATOM      1  C   UNL     1       2.382   6.651  19.274  0.00  0.00    +0.000 A 
ATOM      2  C   UNL     1       3.220   6.108  18.321  0.00  0.00    +0.000 A 
ATOM      3  C   UNL     1       3.414   4.739  18.315  0.00  0.00    +0.000 A 
ATOM      4  C   UNL     1       3.172   4.008  19.470  0.00  0.00    +0.000 A 
ATOM      5  C   UNL     1       3.757   2.743  19.719  0.00  0.00    +0.000 A 
ATOM      6  C   UNL     1       3.492   2.052  20.889  0.00  0.00    +0.000 A 
ATOM      7  C   UNL     1       2.581   2.590  21.787  0.00  0.00    +0.000 A 
ATOM      8  C   UNL     1       2.011   3.849  21.546  0.00  0.00    +0.000 A 
ATOM      9  C   UNL     1       2.349   4.618  20.433  0.00  0.00    +0.000 A 
ATOM     10  N   UNL     1       1.900   5.886  20.289  0.00  0.00    +0.000 NA
ENDROOT
BRANCH   1  14
ATOM     11  C   UNL     1       0.894  10.682  18.963  0.00  0.00    +0.000 A 
ATOM     12  C   UNL     1       0.767   9.977  20.151  0.00  0.00    +0.000 A 
ATOM     13  C   UNL     1       1.339   8.713  20.280  0.00  0.00    +0.000 A 
ATOM     14  C   UNL     1       1.999   8.080  19.204  0.00  0.00    +0.000 A 
ATOM     15  C   UNL     1       2.200   8.847  18.049  0.00  0.00    +0.000 A 
ATOM     16  C   UNL     1       1.647  10.133  17.925  0.00  0.00    +0.000 A 
BRANCH  11  18
ATOM     17  C   UNL     1       0.937  13.012  19.369  0.00  0.00    +0.000 C 
ATOM     18  O   UNL     1       0.217  11.867  18.940  0.00  0.00    +0.000 OA
ENDBRANCH  11  18
ENDBRANCH   1  14
BRANCH   3  19
ATOM     19  C   UNL     1       3.455   4.052  16.981  0.00  0.00    +0.000 C 
ATOM     20  O   UNL     1       2.555   3.356  16.550  0.00  0.00    +0.000 OA
BRANCH  19  21
ATOM     21  O   UNL     1       4.520   4.499  16.277  0.00  0.00    +0.000 OA
BRANCH  21  22
ATOM     22  C   UNL     1       5.795   3.985  16.681  0.00  0.00    +0.000 C 
BRANCH  22  23
ATOM     23  C   UNL     1       6.587   5.068  17.384  0.00  0.00    +0.000 A 
ATOM     24  C   UNL     1       6.775   6.320  16.792  0.00  0.00    +0.000 A 
ATOM     25  C   UNL     1       7.545   7.273  17.454  0.00  0.00    +0.000 A 
ATOM     26  C   UNL     1       8.116   6.963  18.681  0.00  0.00    +0.000 A 
ATOM     27  C   UNL     1       7.881   5.698  19.201  0.00  0.00    +0.000 A 
ATOM     28  N   UNL     1       7.131   4.754  18.588  0.00  0.00    +0.000 NA
ENDBRANCH  22  23
ENDBRANCH  21  22
ENDBRANCH  19  21
ENDBRANCH   3  19
TORSDOF 6
ENDMDL
MODEL 4
REMARK VINA RESULT:      -8.6      2.211      3.272
REMARK  Name = 
REMARK  7 active torsions:
REMARK  status: ('A' for Active; 'I' for Inactive)
REMARK    1  A    between atoms: C_1  and  O_2
REMARK    2  A    between atoms: O_2  and  C_3
REMARK    3  A    between atoms: C_6  and  C_7
REMARK    4  A    between atoms: C_9  and  C_10
REMARK    5  A    between atoms: C_10  and  O_12
REMARK    6  A    between atoms: O_12  and  C_13
REMARK    7  A    between atoms: C_13  and  C_14
REMARK                            x       y       z     vdW  Elec       q    Type
REMARK                         _______ _______ _______ _____ _____    ______ ____
ROOT
ATOM      1  C   UNL     1       2.280   6.685  19.142  0.00  0.00    +0.000 A 
ATOM      2  C   UNL     1       3.152   6.156  18.211  0.00  0.00    +0.000 A 
ATOM      3  C   UNL     1       3.405   4.797  18.241  0.00  0.00    +0.000 A 
ATOM      4  C   UNL     1       3.182   4.085  19.411  0.00  0.00    +0.000 A 
ATOM      5  C   UNL     1       3.820   2.854  19.697  0.00  0.00    +0.000 A 
ATOM      6  C   UNL     1       3.573   2.180  20.882  0.00  0.00    +0.000 A 
ATOM      7  C   UNL     1       2.630   2.700  21.757  0.00  0.00    +0.000 A 
ATOM      8  C   UNL     1       2.008   3.926  21.479  0.00  0.00    +0.000 A 
ATOM      9  C   UNL     1       2.323   4.682  20.351  0.00  0.00    +0.000 A 
ATOM     10  N   UNL     1       1.821   5.925  20.171  0.00  0.00    +0.000 NA
ENDROOT
BRANCH   1  14
ATOM     11  C   UNL     1       1.367  10.891  18.948  0.00  0.00    +0.000 A 
ATOM     12  C   UNL     1       1.927  10.244  17.856  0.00  0.00    +0.000 A 
ATOM     13  C   UNL     1       2.125   8.865  17.885  0.00  0.00    +0.000 A 
ATOM     14  C   UNL     1       1.837   8.094  19.033  0.00  0.00    +0.000 A 
ATOM     15  C   UNL     1       1.184   8.750  20.084  0.00  0.00    +0.000 A 
ATOM     16  C   UNL     1       0.958  10.137  20.047  0.00  0.00    +0.000 A 
BRANCH  11  18
ATOM     17  C   UNL     1       2.512  12.905  18.468  0.00  0.00    +0.000 C 
ATOM     18  O   UNL     1       1.305  12.249  18.822  0.00  0.00    +0.000 OA
ENDBRANCH  11  18
ENDBRANCH   1  14
BRANCH   3  19
ATOM     19  C   UNL     1       3.490   4.080  16.924  0.00  0.00    +0.000 C 
ATOM     20  O   UNL     1       2.633   3.323  16.510  0.00  0.00    +0.000 OA
BRANCH  19  21
ATOM     21  O   UNL     1       4.530   4.570  16.211  0.00  0.00    +0.000 OA
BRANCH  21  22
ATOM     22  C   UNL     1       5.822   4.057  16.559  0.00  0.00    +0.000 C 
BRANCH  22  23
ATOM     23  C   UNL     1       6.603   5.106  17.323  0.00  0.00    +0.000 A 
ATOM     24  C   UNL     1       6.800   6.383  16.792  0.00  0.00    +0.000 A 
ATOM     25  C   UNL     1       7.560   7.304  17.509  0.00  0.00    +0.000 A 
ATOM     26  C   UNL     1       8.113   6.937  18.729  0.00  0.00    +0.000 A 
ATOM     27  C   UNL     1       7.870   5.650  19.186  0.00  0.00    +0.000 A 
ATOM     28  N   UNL     1       7.130   4.736  18.519  0.00  0.00    +0.000 NA
ENDBRANCH  22  23
ENDBRANCH  21  22
ENDBRANCH  19  21
ENDBRANCH   3  19
TORSDOF 6
ENDMDL
MODEL 5
REMARK VINA RESULT:      -8.6      1.242      1.524
REMARK  Name = 
REMARK  7 active torsions:
REMARK  status: ('A' for Active; 'I' for Inactive)
REMARK    1  A    between atoms: C_1  and  O_2
REMARK    2  A    between atoms: O_2  and  C_3
REMARK    3  A    between atoms: C_6  and  C_7
REMARK    4  A    between atoms: C_9  and  C_10
REMARK    5  A    between atoms: C_10  and  O_12
REMARK    6  A    between atoms: O_12  and  C_13
REMARK    7  A    between atoms: C_13  and  C_14
REMARK                            x       y       z     vdW  Elec       q    Type
REMARK                         _______ _______ _______ _____ _____    ______ ____
ROOT
ATOM      1  C   UNL     1       2.571   7.105  18.430  0.00  0.00    +0.000 A 
ATOM      2  C   UNL     1       3.881   7.156  18.000  0.00  0.00    +0.000 A 
ATOM      3  C   UNL     1       4.393   6.070  17.313  0.00  0.00    +0.000 A 
ATOM      4  C   UNL     1       3.798   4.826  17.458  0.00  0.00    +0.000 A 
ATOM      5  C   UNL     1       4.478   3.611  17.201  0.00  0.00    +0.000 A 
ATOM      6  C   UNL     1       3.845   2.390  17.366  0.00  0.00    +0.000 A 
ATOM      7  C   UNL     1       2.504   2.379  17.719  0.00  0.00    +0.000 A 
ATOM      8  C   UNL     1       1.834   3.582  17.987  0.00  0.00    +0.000 A 
ATOM      9  C   UNL     1       2.477   4.818  17.941  0.00  0.00    +0.000 A 
ATOM     10  N   UNL     1       1.856   5.952  18.339  0.00  0.00    +0.000 NA
ENDROOT
BRANCH   1  14
ATOM     11  C   UNL     1       0.335  10.413  20.049  0.00  0.00    +0.000 A 
ATOM     12  C   UNL     1       0.767   9.387  20.876  0.00  0.00    +0.000 A 
ATOM     13  C   UNL     1       1.576   8.372  20.369  0.00  0.00    +0.000 A 
ATOM     14  C   UNL     1       1.925   8.310  19.002  0.00  0.00    +0.000 A 
ATOM     15  C   UNL     1       1.561   9.405  18.208  0.00  0.00    +0.000 A 
ATOM     16  C   UNL     1       0.767  10.443  18.723  0.00  0.00    +0.000 A 
BRANCH  11  18
ATOM     17  C   UNL     1      -0.692  11.149  22.049  0.00  0.00    +0.000 C 
ATOM     18  O   UNL     1      -0.518  11.294  20.648  0.00  0.00    +0.000 OA
ENDBRANCH  11  18
ENDBRANCH   1  14
BRANCH   3  19
ATOM     19  C   UNL     1       5.276   6.353  16.132  0.00  0.00    +0.000 C 
ATOM     20  O   UNL     1       4.882   6.864  15.100  0.00  0.00    +0.000 OA
BRANCH  19  21
ATOM     21  O   UNL     1       6.569   6.157  16.478  0.00  0.00    +0.000 OA
BRANCH  21  22
ATOM     22  C   UNL     1       7.123   4.883  16.124  0.00  0.00    +0.000 C 
BRANCH  22  23
ATOM     23  C   UNL     1       7.085   4.706  14.620  0.00  0.00    +0.000 A 
ATOM     24  C   UNL     1       6.284   3.724  14.032  0.00  0.00    +0.000 A 
ATOM     25  C   UNL     1       6.312   3.567  12.648  0.00  0.00    +0.000 A 
ATOM     26  C   UNL     1       7.136   4.380  11.881  0.00  0.00    +0.000 A 
ATOM     27  C   UNL     1       7.900   5.331  12.542  0.00  0.00    +0.000 A 
ATOM     28  N   UNL     1       7.890   5.514  13.882  0.00  0.00    +0.000 NA
ENDBRANCH  22  23
ENDBRANCH  21  22
ENDBRANCH  19  21
ENDBRANCH   3  19
TORSDOF 6
ENDMDL
MODEL 6
REMARK VINA RESULT:      -8.6      2.426      6.677
REMARK  Name = 
REMARK  7 active torsions:
REMARK  status: ('A' for Active; 'I' for Inactive)
REMARK    1  A    between atoms: C_1  and  O_2
REMARK    2  A    between atoms: O_2  and  C_3
REMARK    3  A    between atoms: C_6  and  C_7
REMARK    4  A    between atoms: C_9  and  C_10
REMARK    5  A    between atoms: C_10  and  O_12
REMARK    6  A    between atoms: O_12  and  C_13
REMARK    7  A    between atoms: C_13  and  C_14
REMARK                            x       y       z     vdW  Elec       q    Type
REMARK                         _______ _______ _______ _____ _____    ______ ____
ROOT
ATOM      1  C   UNL     1       3.868   6.345  18.204  0.00  0.00    +0.000 A 
ATOM      2  C   UNL     1       3.745   5.679  19.407  0.00  0.00    +0.000 A 
ATOM      3  C   UNL     1       2.679   5.993  20.230  0.00  0.00    +0.000 A 
ATOM      4  C   UNL     1       2.045   7.220  20.091  0.00  0.00    +0.000 A 
ATOM      5  C   UNL     1       1.295   7.822  21.130  0.00  0.00    +0.000 A 
ATOM      6  C   UNL     1       0.684   9.052  20.949  0.00  0.00    +0.000 A 
ATOM      7  C   UNL     1       0.760   9.654  19.701  0.00  0.00    +0.000 A 
ATOM      8  C   UNL     1       1.514   9.063  18.676  0.00  0.00    +0.000 A 
ATOM      9  C   UNL     1       2.234   7.884  18.866  0.00  0.00    +0.000 A 
ATOM     10  N   UNL     1       3.068   7.405  17.915  0.00  0.00    +0.000 NA
ENDROOT
BRANCH   1  14
ATOM     11  C   UNL     1       6.527   4.842  15.166  0.00  0.00    +0.000 A 
ATOM     12  C   UNL     1       5.695   5.920  14.899  0.00  0.00    +0.000 A 
ATOM     13  C   UNL     1       4.912   6.468  15.914  0.00  0.00    +0.000 A 
ATOM     14  C   UNL     1       4.881   5.915  17.213  0.00  0.00    +0.000 A 
ATOM     15  C   UNL     1       5.798   4.892  17.484  0.00  0.00    +0.000 A 
ATOM     16  C   UNL     1       6.608   4.354  16.470  0.00  0.00    +0.000 A 
BRANCH  11  18
ATOM     17  C   UNL     1       6.362   3.736  13.082  0.00  0.00    +0.000 C 
ATOM     18  O   UNL     1       7.174   4.349  14.070  0.00  0.00    +0.000 OA
ENDBRANCH  11  18
ENDBRANCH   1  14
BRANCH   3  19
ATOM     19  C   UNL     1       1.986   4.858  20.927  0.00  0.00    +0.000 C 
ATOM     20  O   UNL     1       2.377   4.362  21.966  0.00  0.00    +0.000 OA
BRANCH  19  21
ATOM     21  O   UNL     1       0.784   4.640  20.345  0.00  0.00    +0.000 OA
BRANCH  21  22
ATOM     22  C   UNL     1       0.525   3.291  19.935  0.00  0.00    +0.000 C 
BRANCH  22  23
ATOM     23  C   UNL     1       1.606   2.828  18.980  0.00  0.00    +0.000 A 
ATOM     24  C   UNL     1       2.551   1.876  19.371  0.00  0.00    +0.000 A 
ATOM     25  C   UNL     1       3.553   1.509  18.475  0.00  0.00    +0.000 A 
ATOM     26  C   UNL     1       3.599   2.098  17.218  0.00  0.00    +0.000 A 
ATOM     27  C   UNL     1       2.624   3.034  16.908  0.00  0.00    +0.000 A 
ATOM     28  N   UNL     1       1.634   3.405  17.751  0.00  0.00    +0.000 NA
ENDBRANCH  22  23
ENDBRANCH  21  22
ENDBRANCH  19  21
ENDBRANCH   3  19
TORSDOF 6
ENDMDL
MODEL 7
REMARK VINA RESULT:      -8.5      1.760      4.855
REMARK  Name = 
REMARK  7 active torsions:
REMARK  status: ('A' for Active; 'I' for Inactive)
REMARK    1  A    between atoms: C_1  and  O_2
REMARK    2  A    between atoms: O_2  and  C_3
REMARK    3  A    between atoms: C_6  and  C_7
REMARK    4  A    between atoms: C_9  and  C_10
REMARK    5  A    between atoms: C_10  and  O_12
REMARK    6  A    between atoms: O_12  and  C_13
REMARK    7  A    between atoms: C_13  and  C_14
REMARK                            x       y       z     vdW  Elec       q    Type
REMARK                         _______ _______ _______ _____ _____    ______ ____
ROOT
ATOM      1  C   UNL     1       3.482   6.710  17.955  0.00  0.00    +0.000 A 
ATOM      2  C   UNL     1       3.725   5.533  18.633  0.00  0.00    +0.000 A 
ATOM      3  C   UNL     1       4.757   4.721  18.200  0.00  0.00    +0.000 A 
ATOM      4  C   UNL     1       5.214   4.832  16.895  0.00  0.00    +0.000 A 
ATOM      5  C   UNL     1       5.899   3.789  16.226  0.00  0.00    +0.000 A 
ATOM      6  C   UNL     1       6.331   3.942  14.920  0.00  0.00    +0.000 A 
ATOM      7  C   UNL     1       6.144   5.167  14.297  0.00  0.00    +0.000 A 
ATOM      8  C   UNL     1       5.453   6.196  14.954  0.00  0.00    +0.000 A 
ATOM      9  C   UNL     1       4.906   6.030  16.226  0.00  0.00    +0.000 A 
ATOM     10  N   UNL     1       4.123   6.981  16.787  0.00  0.00    +0.000 NA
ENDROOT
BRANCH   1  14
ATOM     11  C   UNL     1       0.991   9.807  19.615  0.00  0.00    +0.000 A 
ATOM     12  C   UNL     1       1.393   9.866  18.289  0.00  0.00    +0.000 A 
ATOM     13  C   UNL     1       2.112   8.813  17.728  0.00  0.00    +0.000 A 
ATOM     14  C   UNL     1       2.515   7.695  18.491  0.00  0.00    +0.000 A 
ATOM     15  C   UNL     1       2.016   7.611  19.797  0.00  0.00    +0.000 A 
ATOM     16  C   UNL     1       1.268   8.660  20.358  0.00  0.00    +0.000 A 
BRANCH  11  18
ATOM     17  C   UNL     1       1.146  12.124  20.069  0.00  0.00    +0.000 C 
ATOM     18  O   UNL     1       0.369  10.937  20.062  0.00  0.00    +0.000 OA
ENDBRANCH  11  18
ENDBRANCH   1  14
BRANCH   3  19
ATOM     19  C   UNL     1       5.616   4.077  19.250  0.00  0.00    +0.000 C 
ATOM     20  O   UNL     1       6.310   4.699  20.031  0.00  0.00    +0.000 OA
BRANCH  19  21
ATOM     21  O   UNL     1       5.329   2.756  19.318  0.00  0.00    +0.000 OA
BRANCH  21  22
ATOM     22  C   UNL     1       4.525   2.350  20.433  0.00  0.00    +0.000 C 
BRANCH  22  23
ATOM     23  C   UNL     1       3.063   2.615  20.136  0.00  0.00    +0.000 A 
ATOM     24  C   UNL     1       2.282   3.380  21.005  0.00  0.00    +0.000 A 
ATOM     25  C   UNL     1       0.931   3.564  20.716  0.00  0.00    +0.000 A 
ATOM     26  C   UNL     1       0.387   2.980  19.580  0.00  0.00    +0.000 A 
ATOM     27  C   UNL     1       1.231   2.235  18.770  0.00  0.00    +0.000 A 
ATOM     28  N   UNL     1       2.546   2.045  19.017  0.00  0.00    +0.000 NA
ENDBRANCH  22  23
ENDBRANCH  21  22
ENDBRANCH  19  21
ENDBRANCH   3  19
TORSDOF 6
ENDMDL
MODEL 8
REMARK VINA RESULT:      -8.5      1.444      1.703
REMARK  Name = 
REMARK  7 active torsions:
REMARK  status: ('A' for Active; 'I' for Inactive)
REMARK    1  A    between atoms: C_1  and  O_2
REMARK    2  A    between atoms: O_2  and  C_3
REMARK    3  A    between atoms: C_6  and  C_7
REMARK    4  A    between atoms: C_9  and  C_10
REMARK    5  A    between atoms: C_10  and  O_12
REMARK    6  A    between atoms: O_12  and  C_13
REMARK    7  A    between atoms: C_13  and  C_14
REMARK                            x       y       z     vdW  Elec       q    Type
REMARK                         _______ _______ _______ _____ _____    ______ ____
ROOT
ATOM      1  C   UNL     1       2.406   6.857  19.388  0.00  0.00    +0.000 A 
ATOM      2  C   UNL     1       3.451   6.513  18.555  0.00  0.00    +0.000 A 
ATOM      3  C   UNL     1       3.818   5.182  18.469  0.00  0.00    +0.000 A 
ATOM      4  C   UNL     1       3.486   4.313  19.499  0.00  0.00    +0.000 A 
ATOM      5  C   UNL     1       4.181   3.104  19.741  0.00  0.00    +0.000 A 
ATOM      6  C   UNL     1       3.819   2.269  20.785  0.00  0.00    +0.000 A 
ATOM      7  C   UNL     1       2.712   2.606  21.552  0.00  0.00    +0.000 A 
ATOM      8  C   UNL     1       2.033   3.811  21.320  0.00  0.00    +0.000 A 
ATOM      9  C   UNL     1       2.445   4.724  20.351  0.00  0.00    +0.000 A 
ATOM     10  N   UNL     1       1.867   5.942  20.237  0.00  0.00    +0.000 NA
ENDROOT
BRANCH   1  14
ATOM     11  C   UNL     1       0.454  10.694  19.248  0.00  0.00    +0.000 A 
ATOM     12  C   UNL     1       0.470   9.959  20.424  0.00  0.00    +0.000 A 
ATOM     13  C   UNL     1       1.189   8.767  20.494  0.00  0.00    +0.000 A 
ATOM     14  C   UNL     1       1.860   8.233  19.372  0.00  0.00    +0.000 A 
ATOM     15  C   UNL     1       1.911   9.039  18.226  0.00  0.00    +0.000 A 
ATOM     16  C   UNL     1       1.208  10.254  18.161  0.00  0.00    +0.000 A 
BRANCH  11  18
ATOM     17  C   UNL     1       0.045  12.898  18.490  0.00  0.00    +0.000 C 
ATOM     18  O   UNL     1      -0.354  11.794  19.287  0.00  0.00    +0.000 OA
ENDBRANCH  11  18
ENDBRANCH   1  14
BRANCH   3  19
ATOM     19  C   UNL     1       4.164   4.646  17.110  0.00  0.00    +0.000 C 
ATOM     20  O   UNL     1       3.468   3.860  16.496  0.00  0.00    +0.000 OA
BRANCH  19  21
ATOM     21  O   UNL     1       5.222   5.327  16.613  0.00  0.00    +0.000 OA
BRANCH  21  22
ATOM     22  C   UNL     1       6.392   4.547  16.338  0.00  0.00    +0.000 C 
BRANCH  22  23
ATOM     23  C   UNL     1       6.661   4.532  14.847  0.00  0.00    +0.000 A 
ATOM     24  C   UNL     1       5.951   3.680  13.997  0.00  0.00    +0.000 A 
ATOM     25  C   UNL     1       6.259   3.669  12.638  0.00  0.00    +0.000 A 
ATOM     26  C   UNL     1       7.267   4.494  12.156  0.00  0.00    +0.000 A 
ATOM     27  C   UNL     1       7.923   5.309  13.065  0.00  0.00    +0.000 A 
ATOM     28  N   UNL     1       7.642   5.351  14.387  0.00  0.00    +0.000 NA
ENDBRANCH  22  23
ENDBRANCH  21  22
ENDBRANCH  19  21
ENDBRANCH   3  19
TORSDOF 6
ENDMDL
MODEL 9
REMARK VINA RESULT:      -8.5      1.233      1.744
REMARK  Name = 
REMARK  7 active torsions:
REMARK  status: ('A' for Active; 'I' for Inactive)
REMARK    1  A    between atoms: C_1  and  O_2
REMARK    2  A    between atoms: O_2  and  C_3
REMARK    3  A    between atoms: C_6  and  C_7
REMARK    4  A    between atoms: C_9  and  C_10
REMARK    5  A    between atoms: C_10  and  O_12
REMARK    6  A    between atoms: O_12  and  C_13
REMARK    7  A    between atoms: C_13  and  C_14
REMARK                            x       y       z     vdW  Elec       q    Type
REMARK                         _______ _______ _______ _____ _____    ______ ____
ROOT
ATOM      1  C   UNL     1       2.443   7.174  18.383  0.00  0.00    +0.000 A 
ATOM      2  C   UNL     1       3.779   7.193  18.036  0.00  0.00    +0.000 A 
ATOM      3  C   UNL     1       4.315   6.084  17.408  0.00  0.00    +0.000 A 
ATOM      4  C   UNL     1       3.690   4.852  17.543  0.00  0.00    +0.000 A 
ATOM      5  C   UNL     1       4.364   3.622  17.357  0.00  0.00    +0.000 A 
ATOM      6  C   UNL     1       3.702   2.415  17.509  0.00  0.00    +0.000 A 
ATOM      7  C   UNL     1       2.341   2.433  17.778  0.00  0.00    +0.000 A 
ATOM      8  C   UNL     1       1.676   3.653  17.975  0.00  0.00    +0.000 A 
ATOM      9  C   UNL     1       2.342   4.877  17.942  0.00  0.00    +0.000 A 
ATOM     10  N   UNL     1       1.716   6.030  18.274  0.00  0.00    +0.000 NA
ENDROOT
BRANCH   1  14
ATOM     11  C   UNL     1       0.901  10.896  19.908  0.00  0.00    +0.000 A 
ATOM     12  C   UNL     1       1.200  10.760  18.560  0.00  0.00    +0.000 A 
ATOM     13  C   UNL     1       1.600   9.526  18.052  0.00  0.00    +0.000 A 
ATOM     14  C   UNL     1       1.784   8.401  18.886  0.00  0.00    +0.000 A 
ATOM     15  C   UNL     1       1.384   8.535  20.222  0.00  0.00    +0.000 A 
ATOM     16  C   UNL     1       0.955   9.772  20.731  0.00  0.00    +0.000 A 
BRANCH  11  18
ATOM     17  C   UNL     1       0.075  13.024  19.285  0.00  0.00    +0.000 C 
ATOM     18  O   UNL     1       0.604  12.173  20.289  0.00  0.00    +0.000 OA
ENDBRANCH  11  18
ENDBRANCH   1  14
BRANCH   3  19
ATOM     19  C   UNL     1       5.274   6.325  16.278  0.00  0.00    +0.000 C 
ATOM     20  O   UNL     1       4.964   6.858  15.230  0.00  0.00    +0.000 OA
BRANCH  19  21
ATOM     21  O   UNL     1       6.534   6.061  16.693  0.00  0.00    +0.000 OA
BRANCH  21  22
ATOM     22  C   UNL     1       7.070   4.794  16.294  0.00  0.00    +0.000 C 
BRANCH  22  23
ATOM     23  C   UNL     1       7.049   4.680  14.783  0.00  0.00    +0.000 A 
ATOM     24  C   UNL     1       6.190   3.783  14.142  0.00  0.00    +0.000 A 
ATOM     25  C   UNL     1       6.233   3.680  12.753  0.00  0.00    +0.000 A 
ATOM     26  C   UNL     1       7.129   4.460  12.035  0.00  0.00    +0.000 A 
ATOM     27  C   UNL     1       7.947   5.325  12.746  0.00  0.00    +0.000 A 
ATOM     28  N   UNL     1       7.924   5.455  14.092  0.00  0.00    +0.000 NA
ENDBRANCH  22  23
ENDBRANCH  21  22
ENDBRANCH  19  21
ENDBRANCH   3  19
TORSDOF 6
ENDMDL
