MODEL 1
REMARK VINA RESULT:      -6.8      0.000      0.000
REMARK  Name = 
REMARK  8 active torsions:
REMARK  status: ('A' for Active; 'I' for Inactive)
REMARK    1  A    between atoms: C_1  and  C_2
REMARK    2  A    between atoms: C_6  and  C_7
REMARK    3  A    between atoms: C_10  and  N_11
REMARK    4  A    between atoms: N_11  and  C_12
REMARK    5  A    between atoms: C_12  and  C_13
REMARK    6  A    between atoms: C_13  and  N_14
REMARK    7  A    between atoms: C_13  and  C_15
REMARK    8  A    between atoms: C_15  and  S_16
REMARK                            x       y       z     vdW  Elec       q    Type
REMARK                         _______ _______ _______ _____ _____    ______ ____
ROOT
ATOM      1  C   UNL     1       5.518   4.888  15.732  0.00  0.00    +0.000 A 
ATOM      2  C   UNL     1       5.376   6.200  16.212  0.00  0.00    +0.000 A 
ATOM      3  C   UNL     1       4.865   6.466  17.491  0.00  0.00    +0.000 A 
ATOM      4  C   UNL     1       4.468   5.429  18.332  0.00  0.00    +0.000 A 
ATOM      5  C   UNL     1       4.609   4.120  17.867  0.00  0.00    +0.000 A 
ATOM      6  C   UNL     1       5.121   3.852  16.592  0.00  0.00    +0.000 A 
ENDROOT
BRANCH   1  12
ATOM      7  C   UNL     1       5.417   2.277  11.430  0.00  0.00    +0.000 C 
ATOM      8  C   UNL     1       6.047   3.341  12.279  0.00  0.00    +0.000 A 
ATOM      9  C   UNL     1       7.187   4.023  11.851  0.00  0.00    +0.000 A 
ATOM     10  C   UNL     1       7.771   4.986  12.668  0.00  0.00    +0.000 A 
ATOM     11  C   UNL     1       7.228   5.268  13.924  0.00  0.00    +0.000 A 
ATOM     12  C   UNL     1       6.078   4.605  14.392  0.00  0.00    +0.000 A 
ATOM     13  C   UNL     1       5.498   3.647  13.534  0.00  0.00    +0.000 A 
ENDBRANCH   1  12
BRANCH   4  14
ATOM     14  N   UNL     1       3.936   5.609  19.610  0.00  0.00    +0.000 N 
ATOM     15  H   UNL     1       3.327   6.427  19.606  0.00  0.00    +0.000 HD
BRANCH  14  16
ATOM     16  C   UNL     1       3.369   4.469  20.337  0.00  0.00    +0.000 C 
BRANCH  16  17
ATOM     17  C   UNL     1       1.980   4.845  20.926  0.00  0.00    +0.000 C 
BRANCH  17  18
ATOM     18  N   UNL     1       1.756   6.304  20.827  0.00  0.00    +0.000 NA
ATOM     19  H   UNL     1       0.970   6.441  20.182  0.00  0.00    +0.000 HD
ATOM     20  H   UNL     1       2.540   6.721  20.322  0.00  0.00    +0.000 HD
ENDBRANCH  17  18
BRANCH  17  21
ATOM     21  C   UNL     1       0.867   4.035  20.222  0.00  0.00    +0.000 C 
BRANCH  21  22
ATOM     22  S   UNL     1       1.452   2.526  19.382  0.00  0.00    +0.000 S 
ATOM     23  H   UNL     1       0.243   2.036  19.078  0.00  0.00    +0.000 HD
ENDBRANCH  21  22
ENDBRANCH  17  21
ENDBRANCH  16  17
ENDBRANCH  14  16
ENDBRANCH   4  14
TORSDOF 7
ENDMDL
MODEL 2
REMARK VINA RESULT:      -6.7      0.971      1.533
REMARK  Name = 
REMARK  8 active torsions:
REMARK  status: ('A' for Active; 'I' for Inactive)
REMARK    1  A    between atoms: C_1  and  C_2
REMARK    2  A    between atoms: C_6  and  C_7
REMARK    3  A    between atoms: C_10  and  N_11
REMARK    4  A    between atoms: N_11  and  C_12
REMARK    5  A    between atoms: C_12  and  C_13
REMARK    6  A    between atoms: C_13  and  N_14
REMARK    7  A    between atoms: C_13  and  C_15
REMARK    8  A    between atoms: C_15  and  S_16
REMARK                            x       y       z     vdW  Elec       q    Type
REMARK                         _______ _______ _______ _____ _____    ______ ____
ROOT
ATOM      1  C   UNL     1       5.449   4.887  15.821  0.00  0.00    +0.000 A 
ATOM      2  C   UNL     1       5.028   3.852  16.671  0.00  0.00    +0.000 A 
ATOM      3  C   UNL     1       4.470   4.114  17.931  0.00  0.00    +0.000 A 
ATOM      4  C   UNL     1       4.321   5.420  18.390  0.00  0.00    +0.000 A 
ATOM      5  C   UNL     1       4.731   6.458  17.550  0.00  0.00    +0.000 A 
ATOM      6  C   UNL     1       5.287   6.199  16.292  0.00  0.00    +0.000 A 
ENDROOT
BRANCH   1  12
ATOM      7  C   UNL     1       5.294   2.405  11.445  0.00  0.00    +0.000 C 
ATOM      8  C   UNL     1       5.962   3.412  12.335  0.00  0.00    +0.000 A 
ATOM      9  C   UNL     1       7.143   4.047  11.946  0.00  0.00    +0.000 A 
ATOM     10  C   UNL     1       7.760   4.955  12.800  0.00  0.00    +0.000 A 
ATOM     11  C   UNL     1       7.208   5.229  14.054  0.00  0.00    +0.000 A 
ATOM     12  C   UNL     1       6.018   4.613  14.483  0.00  0.00    +0.000 A 
ATOM     13  C   UNL     1       5.406   3.711  13.589  0.00  0.00    +0.000 A 
ENDBRANCH   1  12
BRANCH   4  14
ATOM     14  N   UNL     1       3.791   5.765  19.635  0.00  0.00    +0.000 N 
ATOM     15  H   UNL     1       4.427   6.409  20.101  0.00  0.00    +0.000 HD
BRANCH  14  16
ATOM     16  C   UNL     1       2.383   6.155  19.751  0.00  0.00    +0.000 C 
BRANCH  16  17
ATOM     17  C   UNL     1       1.546   4.980  20.331  0.00  0.00    +0.000 C 
BRANCH  17  18
ATOM     18  N   UNL     1       1.137   4.056  19.250  0.00  0.00    +0.000 NA
ATOM     19  H   UNL     1       1.972   3.875  18.682  0.00  0.00    +0.000 HD
ATOM     20  H   UNL     1       0.527   4.560  18.604  0.00  0.00    +0.000 HD
ENDBRANCH  17  18
BRANCH  17  21
ATOM     21  C   UNL     1       2.340   4.261  21.444  0.00  0.00    +0.000 C 
BRANCH  21  22
ATOM     22  S   UNL     1       1.993   2.476  21.583  0.00  0.00    +0.000 S 
ATOM     23  H   UNL     1       3.210   2.111  22.004  0.00  0.00    +0.000 HD
ENDBRANCH  21  22
ENDBRANCH  17  21
ENDBRANCH  16  17
ENDBRANCH  14  16
ENDBRANCH   4  14
TORSDOF 7
ENDMDL
MODEL 3
REMARK VINA RESULT:      -6.7      1.019      1.045
REMARK  Name = 
REMARK  8 active torsions:
REMARK  status: ('A' for Active; 'I' for Inactive)
REMARK    1  A    between atoms: C_1  and  C_2
REMARK    2  A    between atoms: C_6  and  C_7
REMARK    3  A    between atoms: C_10  and  N_11
REMARK    4  A    between atoms: N_11  and  C_12
REMARK    5  A    between atoms: C_12  and  C_13
REMARK    6  A    between atoms: C_13  and  N_14
REMARK    7  A    between atoms: C_13  and  C_15
REMARK    8  A    between atoms: C_15  and  S_16
REMARK                            x       y       z     vdW  Elec       q    Type
REMARK                         _______ _______ _______ _____ _____    ______ ____
ROOT
ATOM      1  C   UNL     1       5.393   4.839  15.868  0.00  0.00    +0.000 A 
ATOM      2  C   UNL     1       5.177   6.136  16.362  0.00  0.00    +0.000 A 
ATOM      3  C   UNL     1       4.636   6.359  17.637  0.00  0.00    +0.000 A 
ATOM      4  C   UNL     1       4.283   5.292  18.460  0.00  0.00    +0.000 A 
ATOM      5  C   UNL     1       4.498   3.998  17.981  0.00  0.00    +0.000 A 
ATOM      6  C   UNL     1       5.040   3.774  16.710  0.00  0.00    +0.000 A 
ENDROOT
BRANCH   1  12
ATOM      7  C   UNL     1       5.341   2.442  11.443  0.00  0.00    +0.000 C 
ATOM      8  C   UNL     1       5.978   3.443  12.361  0.00  0.00    +0.000 A 
ATOM      9  C   UNL     1       7.151   4.108  12.000  0.00  0.00    +0.000 A 
ATOM     10  C   UNL     1       7.740   5.011  12.879  0.00  0.00    +0.000 A 
ATOM     11  C   UNL     1       7.168   5.250  14.131  0.00  0.00    +0.000 A 
ATOM     12  C   UNL     1       5.984   4.603  14.532  0.00  0.00    +0.000 A 
ATOM     13  C   UNL     1       5.401   3.707  13.613  0.00  0.00    +0.000 A 
ENDBRANCH   1  12
BRANCH   4  14
ATOM     14  N   UNL     1       3.725   5.428  19.733  0.00  0.00    +0.000 N 
ATOM     15  H   UNL     1       3.733   6.412  19.998  0.00  0.00    +0.000 HD
BRANCH  14  16
ATOM     16  C   UNL     1       2.467   4.750  20.059  0.00  0.00    +0.000 C 
BRANCH  16  17
ATOM     17  C   UNL     1       2.754   3.391  20.756  0.00  0.00    +0.000 C 
BRANCH  17  18
ATOM     18  N   UNL     1       2.176   3.377  22.118  0.00  0.00    +0.000 NA
ATOM     19  H   UNL     1       2.809   2.820  22.704  0.00  0.00    +0.000 HD
ATOM     20  H   UNL     1       1.324   2.814  22.105  0.00  0.00    +0.000 HD
ENDBRANCH  17  18
BRANCH  17  21
ATOM     21  C   UNL     1       2.227   2.226  19.887  0.00  0.00    +0.000 C 
BRANCH  21  22
ATOM     22  S   UNL     1       0.885   2.689  18.742  0.00  0.00    +0.000 S 
ATOM     23  H   UNL     1       0.165   1.568  18.882  0.00  0.00    +0.000 HD
ENDBRANCH  21  22
ENDBRANCH  17  21
ENDBRANCH  16  17
ENDBRANCH  14  16
ENDBRANCH   4  14
TORSDOF 7
ENDMDL
MODEL 4
REMARK VINA RESULT:      -6.7      0.981      1.084
REMARK  Name = 
REMARK  8 active torsions:
REMARK  status: ('A' for Active; 'I' for Inactive)
REMARK    1  A    between atoms: C_1  and  C_2
REMARK    2  A    between atoms: C_6  and  C_7
REMARK    3  A    between atoms: C_10  and  N_11
REMARK    4  A    between atoms: N_11  and  C_12
REMARK    5  A    between atoms: C_12  and  C_13
REMARK    6  A    between atoms: C_13  and  N_14
REMARK    7  A    between atoms: C_13  and  C_15
REMARK    8  A    between atoms: C_15  and  S_16
REMARK                            x       y       z     vdW  Elec       q    Type
REMARK                         _______ _______ _______ _____ _____    ______ ____
ROOT
ATOM      1  C   UNL     1       5.379   4.968  15.859  0.00  0.00    +0.000 A 
ATOM      2  C   UNL     1       5.024   6.277  16.223  0.00  0.00    +0.000 A 
ATOM      3  C   UNL     1       4.485   6.571  17.484  0.00  0.00    +0.000 A 
ATOM      4  C   UNL     1       4.272   5.565  18.424  0.00  0.00    +0.000 A 
ATOM      5  C   UNL     1       4.627   4.259  18.074  0.00  0.00    +0.000 A 
ATOM      6  C   UNL     1       5.167   3.964  16.817  0.00  0.00    +0.000 A 
ENDROOT
BRANCH   1  12
ATOM      7  C   UNL     1       5.248   2.429  11.515  0.00  0.00    +0.000 C 
ATOM      8  C   UNL     1       5.925   3.429  12.405  0.00  0.00    +0.000 A 
ATOM      9  C   UNL     1       7.130   4.026  12.033  0.00  0.00    +0.000 A 
ATOM     10  C   UNL     1       7.754   4.929  12.888  0.00  0.00    +0.000 A 
ATOM     11  C   UNL     1       7.184   5.237  14.126  0.00  0.00    +0.000 A 
ATOM     12  C   UNL     1       5.968   4.660  14.537  0.00  0.00    +0.000 A 
ATOM     13  C   UNL     1       5.351   3.761  13.643  0.00  0.00    +0.000 A 
ENDBRANCH   1  12
BRANCH   4  14
ATOM     14  N   UNL     1       3.726   5.770  19.692  0.00  0.00    +0.000 N 
ATOM     15  H   UNL     1       4.338   6.390  20.222  0.00  0.00    +0.000 HD
BRANCH  14  16
ATOM     16  C   UNL     1       2.304   6.097  19.835  0.00  0.00    +0.000 C 
BRANCH  16  17
ATOM     17  C   UNL     1       1.521   4.865  20.370  0.00  0.00    +0.000 C 
BRANCH  17  18
ATOM     18  N   UNL     1       1.187   3.946  19.260  0.00  0.00    +0.000 NA
ATOM     19  H   UNL     1       2.076   3.592  18.889  0.00  0.00    +0.000 HD
ATOM     20  H   UNL     1       0.819   4.495  18.482  0.00  0.00    +0.000 HD
ENDBRANCH  17  18
BRANCH  17  21
ATOM     21  C   UNL     1       2.330   4.164  21.485  0.00  0.00    +0.000 C 
BRANCH  21  22
ATOM     22  S   UNL     1       2.773   2.433  21.118  0.00  0.00    +0.000 S 
ATOM     23  H   UNL     1       1.841   1.865  21.895  0.00  0.00    +0.000 HD
ENDBRANCH  21  22
ENDBRANCH  17  21
ENDBRANCH  16  17
ENDBRANCH  14  16
ENDBRANCH   4  14
TORSDOF 7
ENDMDL
MODEL 5
REMARK VINA RESULT:      -6.6      0.813      1.374
REMARK  Name = 
REMARK  8 active torsions:
REMARK  status: ('A' for Active; 'I' for Inactive)
REMARK    1  A    between atoms: C_1  and  C_2
REMARK    2  A    between atoms: C_6  and  C_7
REMARK    3  A    between atoms: C_10  and  N_11
REMARK    4  A    between atoms: N_11  and  C_12
REMARK    5  A    between atoms: C_12  and  C_13
REMARK    6  A    between atoms: C_13  and  N_14
REMARK    7  A    between atoms: C_13  and  C_15
REMARK    8  A    between atoms: C_15  and  S_16
REMARK                            x       y       z     vdW  Elec       q    Type
REMARK                         _______ _______ _______ _____ _____    ______ ____
ROOT
ATOM      1  C   UNL     1       5.454   4.863  15.951  0.00  0.00    +0.000 A 
ATOM      2  C   UNL     1       5.172   3.807  16.832  0.00  0.00    +0.000 A 
ATOM      3  C   UNL     1       4.636   4.036  18.108  0.00  0.00    +0.000 A 
ATOM      4  C   UNL     1       4.372   5.329  18.552  0.00  0.00    +0.000 A 
ATOM      5  C   UNL     1       4.645   6.387  17.682  0.00  0.00    +0.000 A 
ATOM      6  C   UNL     1       5.177   6.161  16.407  0.00  0.00    +0.000 A 
ENDROOT
BRANCH   1  12
ATOM      7  C   UNL     1       5.202   2.511  11.508  0.00  0.00    +0.000 C 
ATOM      8  C   UNL     1       5.896   3.484  12.416  0.00  0.00    +0.000 A 
ATOM      9  C   UNL     1       7.077   4.117  12.026  0.00  0.00    +0.000 A 
ATOM     10  C   UNL     1       7.717   4.994  12.895  0.00  0.00    +0.000 A 
ATOM     11  C   UNL     1       7.189   5.238  14.166  0.00  0.00    +0.000 A 
ATOM     12  C   UNL     1       5.999   4.622  14.596  0.00  0.00    +0.000 A 
ATOM     13  C   UNL     1       5.363   3.752  13.687  0.00  0.00    +0.000 A 
ENDBRANCH   1  12
BRANCH   4  14
ATOM     14  N   UNL     1       3.856   5.643  19.811  0.00  0.00    +0.000 N 
ATOM     15  H   UNL     1       4.169   6.575  20.077  0.00  0.00    +0.000 HD
BRANCH  14  16
ATOM     16  C   UNL     1       2.440   5.400  20.105  0.00  0.00    +0.000 C 
BRANCH  16  17
ATOM     17  C   UNL     1       2.225   3.918  20.521  0.00  0.00    +0.000 C 
BRANCH  17  18
ATOM     18  N   UNL     1       2.293   3.779  21.992  0.00  0.00    +0.000 NA
ATOM     19  H   UNL     1       2.803   4.598  22.344  0.00  0.00    +0.000 HD
ATOM     20  H   UNL     1       2.922   3.006  22.218  0.00  0.00    +0.000 HD
ENDBRANCH  17  18
BRANCH  17  21
ATOM     21  C   UNL     1       0.888   3.394  19.947  0.00  0.00    +0.000 C 
BRANCH  21  22
ATOM     22  S   UNL     1       1.072   2.180  18.599  0.00  0.00    +0.000 S 
ATOM     23  H   UNL     1      -0.165   1.673  18.674  0.00  0.00    +0.000 HD
ENDBRANCH  21  22
ENDBRANCH  17  21
ENDBRANCH  16  17
ENDBRANCH  14  16
ENDBRANCH   4  14
TORSDOF 7
ENDMDL
MODEL 6
REMARK VINA RESULT:      -6.5      4.994      6.726
REMARK  Name = 
REMARK  8 active torsions:
REMARK  status: ('A' for Active; 'I' for Inactive)
REMARK    1  A    between atoms: C_1  and  C_2
REMARK    2  A    between atoms: C_6  and  C_7
REMARK    3  A    between atoms: C_10  and  N_11
REMARK    4  A    between atoms: N_11  and  C_12
REMARK    5  A    between atoms: C_12  and  C_13
REMARK    6  A    between atoms: C_13  and  N_14
REMARK    7  A    between atoms: C_13  and  C_15
REMARK    8  A    between atoms: C_15  and  S_16
REMARK                            x       y       z     vdW  Elec       q    Type
REMARK                         _______ _______ _______ _____ _____    ______ ____
ROOT
ATOM      1  C   UNL     1       2.363   7.479  18.879  0.00  0.00    +0.000 A 
ATOM      2  C   UNL     1       1.818   7.854  20.118  0.00  0.00    +0.000 A 
ATOM      3  C   UNL     1       1.077   9.034  20.270  0.00  0.00    +0.000 A 
ATOM      4  C   UNL     1       0.861   9.888  19.190  0.00  0.00    +0.000 A 
ATOM      5  C   UNL     1       1.394   9.522  17.952  0.00  0.00    +0.000 A 
ATOM      6  C   UNL     1       2.133   8.343  17.798  0.00  0.00    +0.000 A 
ENDROOT
BRANCH   1  12
ATOM      7  C   UNL     1       5.131   4.411  16.005  0.00  0.00    +0.000 C 
ATOM      8  C   UNL     1       4.483   4.706  17.326  0.00  0.00    +0.000 A 
ATOM      9  C   UNL     1       4.538   3.789  18.377  0.00  0.00    +0.000 A 
ATOM     10  C   UNL     1       3.905   4.073  19.583  0.00  0.00    +0.000 A 
ATOM     11  C   UNL     1       3.204   5.270  19.746  0.00  0.00    +0.000 A 
ATOM     12  C   UNL     1       3.127   6.222  18.713  0.00  0.00    +0.000 A 
ATOM     13  C   UNL     1       3.793   5.915  17.508  0.00  0.00    +0.000 A 
ENDBRANCH   1  12
BRANCH   4  14
ATOM     14  N   UNL     1       0.150  11.087  19.261  0.00  0.00    +0.000 N 
ATOM     15  H   UNL     1       0.480  11.714  18.528  0.00  0.00    +0.000 HD
BRANCH  14  16
ATOM     16  C   UNL     1      -1.310  11.068  19.393  0.00  0.00    +0.000 C 
BRANCH  16  17
ATOM     17  C   UNL     1      -1.975  11.516  18.061  0.00  0.00    +0.000 C 
BRANCH  17  18
ATOM     18  N   UNL     1      -1.154  12.552  17.397  0.00  0.00    +0.000 NA
ATOM     19  H   UNL     1      -0.183  12.221  17.417  0.00  0.00    +0.000 HD
ATOM     20  H   UNL     1      -1.124  13.378  17.998  0.00  0.00    +0.000 HD
ENDBRANCH  17  18
BRANCH  17  21
ATOM     21  C   UNL     1      -2.218  10.292  17.149  0.00  0.00    +0.000 C 
BRANCH  21  22
ATOM     22  S   UNL     1      -2.940  10.695  15.525  0.00  0.00    +0.000 S 
ATOM     23  H   UNL     1      -4.153  10.176  15.758  0.00  0.00    +0.000 HD
ENDBRANCH  21  22
ENDBRANCH  17  21
ENDBRANCH  16  17
ENDBRANCH  14  16
ENDBRANCH   4  14
TORSDOF 7
ENDMDL
MODEL 7
REMARK VINA RESULT:      -6.5      4.981      6.542
REMARK  Name = 
REMARK  8 active torsions:
REMARK  status: ('A' for Active; 'I' for Inactive)
REMARK    1  A    between atoms: C_1  and  C_2
REMARK    2  A    between atoms: C_6  and  C_7
REMARK    3  A    between atoms: C_10  and  N_11
REMARK    4  A    between atoms: N_11  and  C_12
REMARK    5  A    between atoms: C_12  and  C_13
REMARK    6  A    between atoms: C_13  and  N_14
REMARK    7  A    between atoms: C_13  and  C_15
REMARK    8  A    between atoms: C_15  and  S_16
REMARK                            x       y       z     vdW  Elec       q    Type
REMARK                         _______ _______ _______ _____ _____    ______ ____
ROOT
ATOM      1  C   UNL     1       2.442   7.449  18.586  0.00  0.00    +0.000 A 
ATOM      2  C   UNL     1       1.914   7.690  19.865  0.00  0.00    +0.000 A 
ATOM      3  C   UNL     1       1.198   8.860  20.158  0.00  0.00    +0.000 A 
ATOM      4  C   UNL     1       0.992   9.835  19.186  0.00  0.00    +0.000 A 
ATOM      5  C   UNL     1       1.509   9.604  17.909  0.00  0.00    +0.000 A 
ATOM      6  C   UNL     1       2.222   8.437  17.614  0.00  0.00    +0.000 A 
ENDROOT
BRANCH   1  12
ATOM      7  C   UNL     1       2.443   2.504  17.651  0.00  0.00    +0.000 C 
ATOM      8  C   UNL     1       3.204   3.787  17.809  0.00  0.00    +0.000 A 
ATOM      9  C   UNL     1       4.597   3.815  17.722  0.00  0.00    +0.000 A 
ATOM     10  C   UNL     1       5.282   5.013  17.900  0.00  0.00    +0.000 A 
ATOM     11  C   UNL     1       4.583   6.190  18.177  0.00  0.00    +0.000 A 
ATOM     12  C   UNL     1       3.179   6.206  18.269  0.00  0.00    +0.000 A 
ATOM     13  C   UNL     1       2.511   4.981  18.067  0.00  0.00    +0.000 A 
ENDBRANCH   1  12
BRANCH   4  14
ATOM     14  N   UNL     1       0.307  11.032  19.400  0.00  0.00    +0.000 N 
ATOM     15  H   UNL     1       0.631  11.727  18.729  0.00  0.00    +0.000 HD
BRANCH  14  16
ATOM     16  C   UNL     1      -1.150  11.025  19.568  0.00  0.00    +0.000 C 
BRANCH  16  17
ATOM     17  C   UNL     1      -1.843  11.523  18.269  0.00  0.00    +0.000 C 
BRANCH  17  18
ATOM     18  N   UNL     1      -1.072  12.634  17.667  0.00  0.00    +0.000 NA
ATOM     19  H   UNL     1      -0.180  12.238  17.348  0.00  0.00    +0.000 HD
ATOM     20  H   UNL     1      -0.783  13.271  18.412  0.00  0.00    +0.000 HD
ENDBRANCH  17  18
BRANCH  17  21
ATOM     21  C   UNL     1      -2.037  10.348  17.285  0.00  0.00    +0.000 C 
BRANCH  21  22
ATOM     22  S   UNL     1      -2.934  10.784  15.759  0.00  0.00    +0.000 S 
ATOM     23  H   UNL     1      -2.695  12.101  15.807  0.00  0.00    +0.000 HD
ENDBRANCH  21  22
ENDBRANCH  17  21
ENDBRANCH  16  17
ENDBRANCH  14  16
ENDBRANCH   4  14
TORSDOF 7
ENDMDL
MODEL 8
REMARK VINA RESULT:      -6.5      4.969      6.656
REMARK  Name = 
REMARK  8 active torsions:
REMARK  status: ('A' for Active; 'I' for Inactive)
REMARK    1  A    between atoms: C_1  and  C_2
REMARK    2  A    between atoms: C_6  and  C_7
REMARK    3  A    between atoms: C_10  and  N_11
REMARK    4  A    between atoms: N_11  and  C_12
REMARK    5  A    between atoms: C_12  and  C_13
REMARK    6  A    between atoms: C_13  and  N_14
REMARK    7  A    between atoms: C_13  and  C_15
REMARK    8  A    between atoms: C_15  and  S_16
REMARK                            x       y       z     vdW  Elec       q    Type
REMARK                         _______ _______ _______ _____ _____    ______ ____
ROOT
ATOM      1  C   UNL     1       2.399   7.467  18.828  0.00  0.00    +0.000 A 
ATOM      2  C   UNL     1       2.240   8.363  17.758  0.00  0.00    +0.000 A 
ATOM      3  C   UNL     1       1.527   9.562  17.900  0.00  0.00    +0.000 A 
ATOM      4  C   UNL     1       0.939   9.905  19.115  0.00  0.00    +0.000 A 
ATOM      5  C   UNL     1       1.095   9.024  20.188  0.00  0.00    +0.000 A 
ATOM      6  C   UNL     1       1.808   7.828  20.049  0.00  0.00    +0.000 A 
ENDROOT
BRANCH   1  12
ATOM      7  C   UNL     1       5.171   4.352  16.009  0.00  0.00    +0.000 C 
ATOM      8  C   UNL     1       4.528   4.673  17.326  0.00  0.00    +0.000 A 
ATOM      9  C   UNL     1       4.594   3.781  18.398  0.00  0.00    +0.000 A 
ATOM     10  C   UNL     1       3.967   4.088  19.600  0.00  0.00    +0.000 A 
ATOM     11  C   UNL     1       3.258   5.284  19.740  0.00  0.00    +0.000 A 
ATOM     12  C   UNL     1       3.170   6.212  18.686  0.00  0.00    +0.000 A 
ATOM     13  C   UNL     1       3.831   5.882  17.485  0.00  0.00    +0.000 A 
ENDBRANCH   1  12
BRANCH   4  14
ATOM     14  N   UNL     1       0.201  11.069  19.334  0.00  0.00    +0.000 N 
ATOM     15  H   UNL     1       0.538  11.801  18.711  0.00  0.00    +0.000 HD
BRANCH  14  16
ATOM     16  C   UNL     1      -1.262  11.007  19.416  0.00  0.00    +0.000 C 
BRANCH  16  17
ATOM     17  C   UNL     1      -1.895  11.499  18.084  0.00  0.00    +0.000 C 
BRANCH  17  18
ATOM     18  N   UNL     1      -1.104  12.613  17.518  0.00  0.00    +0.000 NA
ATOM     19  H   UNL     1      -1.686  13.456  17.584  0.00  0.00    +0.000 HD
ATOM     20  H   UNL     1      -1.021  12.474  16.509  0.00  0.00    +0.000 HD
ENDBRANCH  17  18
BRANCH  17  21
ATOM     21  C   UNL     1      -2.035  10.320  17.094  0.00  0.00    +0.000 C 
BRANCH  21  22
ATOM     22  S   UNL     1      -2.957  10.721  15.573  0.00  0.00    +0.000 S 
ATOM     23  H   UNL     1      -4.183  10.633  16.105  0.00  0.00    +0.000 HD
ENDBRANCH  21  22
ENDBRANCH  17  21
ENDBRANCH  16  17
ENDBRANCH  14  16
ENDBRANCH   4  14
TORSDOF 7
ENDMDL
MODEL 9
REMARK VINA RESULT:      -6.4      4.577      6.097
REMARK  Name = 
REMARK  8 active torsions:
REMARK  status: ('A' for Active; 'I' for Inactive)
REMARK    1  A    between atoms: C_1  and  C_2
REMARK    2  A    between atoms: C_6  and  C_7
REMARK    3  A    between atoms: C_10  and  N_11
REMARK    4  A    between atoms: N_11  and  C_12
REMARK    5  A    between atoms: C_12  and  C_13
REMARK    6  A    between atoms: C_13  and  N_14
REMARK    7  A    between atoms: C_13  and  C_15
REMARK    8  A    between atoms: C_15  and  S_16
REMARK                            x       y       z     vdW  Elec       q    Type
REMARK                         _______ _______ _______ _____ _____    ______ ____
ROOT
ATOM      1  C   UNL     1       2.552   7.165  18.463  0.00  0.00    +0.000 A 
ATOM      2  C   UNL     1       2.178   7.165  19.817  0.00  0.00    +0.000 A 
ATOM      3  C   UNL     1       1.456   8.226  20.383  0.00  0.00    +0.000 A 
ATOM      4  C   UNL     1       1.091   9.331  19.617  0.00  0.00    +0.000 A 
ATOM      5  C   UNL     1       1.453   9.340  18.268  0.00  0.00    +0.000 A 
ATOM      6  C   UNL     1       2.171   8.281  17.701  0.00  0.00    +0.000 A 
ENDROOT
BRANCH   1  12
ATOM      7  C   UNL     1       3.166   2.215  17.797  0.00  0.00    +0.000 C 
ATOM      8  C   UNL     1       3.614   3.619  17.519  0.00  0.00    +0.000 A 
ATOM      9  C   UNL     1       4.752   3.875  16.753  0.00  0.00    +0.000 A 
ATOM     10  C   UNL     1       5.164   5.185  16.532  0.00  0.00    +0.000 A 
ATOM     11  C   UNL     1       4.448   6.251  17.084  0.00  0.00    +0.000 A 
ATOM     12  C   UNL     1       3.294   6.036  17.860  0.00  0.00    +0.000 A 
ATOM     13  C   UNL     1       2.891   4.699  18.052  0.00  0.00    +0.000 A 
ENDBRANCH   1  12
BRANCH   4  14
ATOM     14  N   UNL     1       0.388  10.433  20.107  0.00  0.00    +0.000 N 
ATOM     15  H   UNL     1      -0.608  10.295  19.940  0.00  0.00    +0.000 HD
BRANCH  14  16
ATOM     16  C   UNL     1       0.684  10.959  21.443  0.00  0.00    +0.000 C 
BRANCH  16  17
ATOM     17  C   UNL     1      -0.448  10.569  22.436  0.00  0.00    +0.000 C 
BRANCH  17  18
ATOM     18  N   UNL     1       0.104   9.789  23.565  0.00  0.00    +0.000 NA
ATOM     19  H   UNL     1      -0.467   8.940  23.647  0.00  0.00    +0.000 HD
ATOM     20  H   UNL     1      -0.101  10.284  24.435  0.00  0.00    +0.000 HD
ENDBRANCH  17  18
BRANCH  17  21
ATOM     21  C   UNL     1      -1.197  11.835  22.912  0.00  0.00    +0.000 C 
BRANCH  21  22
ATOM     22  S   UNL     1      -2.262  12.599  21.645  0.00  0.00    +0.000 S 
ATOM     23  H   UNL     1      -1.575  13.744  21.531  0.00  0.00    +0.000 HD
ENDBRANCH  21  22
ENDBRANCH  17  21
ENDBRANCH  16  17
ENDBRANCH  14  16
ENDBRANCH   4  14
TORSDOF 7
ENDMDL
