MODEL 1
REMARK VINA RESULT:      -7.1      0.000      0.000
REMARK  Name = 
REMARK  8 active torsions:
REMARK  status: ('A' for Active; 'I' for Inactive)
REMARK    1  A    between atoms: C_1  and  O_2
REMARK    2  A    between atoms: O_2  and  C_3
REMARK    3  A    between atoms: C_6  and  C_7
REMARK    4  A    between atoms: C_9  and  N_10
REMARK    5  A    between atoms: C_11  and  C_13
REMARK    6  A    between atoms: C_17  and  C_18
REMARK    7  A    between atoms: C_21  and  O_22
REMARK    8  A    between atoms: O_22  and  C_23
REMARK                            x       y       z     vdW  Elec       q    Type
REMARK                         _______ _______ _______ _____ _____    ______ ____
ROOT
ATOM      1  C   UNL     1       1.015  12.646  18.685  0.00  0.00    +0.000 A 
ATOM      2  C   UNL     1      -0.388  12.731  18.763  0.00  0.00    +0.000 A 
ATOM      3  C   UNL     1      -1.190  11.593  18.819  0.00  0.00    +0.000 A 
ATOM      4  C   UNL     1      -0.578  10.335  18.863  0.00  0.00    +0.000 A 
ATOM      5  C   UNL     1       0.819  10.191  18.815  0.00  0.00    +0.000 A 
ATOM      6  C   UNL     1       1.587  11.361  18.687  0.00  0.00    +0.000 A 
ENDROOT
BRANCH   1  10
ATOM      7  C   UNL     1       3.446  16.205  18.424  0.00  0.00    +0.000 A 
ATOM      8  C   UNL     1       4.000  14.955  18.160  0.00  0.00    +0.000 A 
ATOM      9  C   UNL     1       3.218  13.799  18.251  0.00  0.00    +0.000 A 
ATOM     10  C   UNL     1       1.860  13.862  18.611  0.00  0.00    +0.000 A 
ATOM     11  C   UNL     1       1.332  15.131  18.902  0.00  0.00    +0.000 A 
ATOM     12  C   UNL     1       2.115  16.288  18.817  0.00  0.00    +0.000 A 
BRANCH   7  14
ATOM     13  C   UNL     1       5.578  17.092  18.915  0.00  0.00    +0.000 C 
ATOM     14  O   UNL     1       4.301  17.265  18.302  0.00  0.00    +0.000 OA
ENDBRANCH   7  14
ENDBRANCH   1  10
BRANCH   5  15
ATOM     15  C   UNL     1       1.458   8.864  18.972  0.00  0.00    +0.000 A 
ATOM     16  C   UNL     1       1.413   8.153  20.182  0.00  0.00    +0.000 A 
ATOM     17  C   UNL     1       2.121   6.959  20.345  0.00  0.00    +0.000 A 
ATOM     18  C   UNL     1       2.863   6.422  19.294  0.00  0.00    +0.000 A 
ATOM     19  C   UNL     1       2.898   7.092  18.075  0.00  0.00    +0.000 A 
ATOM     20  C   UNL     1       2.205   8.298  17.922  0.00  0.00    +0.000 A 
BRANCH  18  21
ATOM     21  O   UNL     1       3.547   5.275  19.585  0.00  0.00    +0.000 OA
ATOM     22  C   UNL     1       4.057   4.560  18.466  0.00  0.00    +0.000 C 
ENDBRANCH  18  21
ENDBRANCH   5  15
BRANCH   3  23
ATOM     23  N   UNL     1      -2.600  11.626  18.868  0.00  0.00    +0.000 N 
ATOM     24  C   UNL     1      -3.489  11.470  17.810  0.00  0.00    +0.000 C 
ATOM     25  O   UNL     1      -3.173  11.225  16.645  0.00  0.00    +0.000 OA
ATOM     26  H   UNL     1      -3.014  11.713  19.791  0.00  0.00    +0.000 HD
BRANCH  24  27
ATOM     27  C   UNL     1      -4.960  11.613  18.195  0.00  0.00    +0.000 C 
ATOM     28 CL   UNL     1      -5.086  12.346  19.810  0.00  0.00    +0.000 Cl
ATOM     29 CL   UNL     1      -5.788  12.624  16.991  0.00  0.00    +0.000 Cl
ENDBRANCH  24  27
ENDBRANCH   3  23
TORSDOF 6
ENDMDL
MODEL 2
REMARK VINA RESULT:      -7.1      1.034      1.240
REMARK  Name = 
REMARK  8 active torsions:
REMARK  status: ('A' for Active; 'I' for Inactive)
REMARK    1  A    between atoms: C_1  and  O_2
REMARK    2  A    between atoms: O_2  and  C_3
REMARK    3  A    between atoms: C_6  and  C_7
REMARK    4  A    between atoms: C_9  and  N_10
REMARK    5  A    between atoms: C_11  and  C_13
REMARK    6  A    between atoms: C_17  and  C_18
REMARK    7  A    between atoms: C_21  and  O_22
REMARK    8  A    between atoms: O_22  and  C_23
REMARK                            x       y       z     vdW  Elec       q    Type
REMARK                         _______ _______ _______ _____ _____    ______ ____
ROOT
ATOM      1  C   UNL     1       1.081  12.934  18.593  0.00  0.00    +0.000 A 
ATOM      2  C   UNL     1      -0.317  13.080  18.509  0.00  0.00    +0.000 A 
ATOM      3  C   UNL     1      -1.170  11.979  18.498  0.00  0.00    +0.000 A 
ATOM      4  C   UNL     1      -0.625  10.697  18.637  0.00  0.00    +0.000 A 
ATOM      5  C   UNL     1       0.761  10.494  18.752  0.00  0.00    +0.000 A 
ATOM      6  C   UNL     1       1.591  11.626  18.687  0.00  0.00    +0.000 A 
ENDROOT
BRANCH   1  10
ATOM      7  C   UNL     1       3.676  16.384  18.542  0.00  0.00    +0.000 A 
ATOM      8  C   UNL     1       4.152  15.141  18.131  0.00  0.00    +0.000 A 
ATOM      9  C   UNL     1       3.316  14.020  18.153  0.00  0.00    +0.000 A 
ATOM     10  C   UNL     1       1.982  14.110  18.589  0.00  0.00    +0.000 A 
ATOM     11  C   UNL     1       1.536  15.368  19.028  0.00  0.00    +0.000 A 
ATOM     12  C   UNL     1       2.372  16.491  19.012  0.00  0.00    +0.000 A 
BRANCH   7  14
ATOM     13  C   UNL     1       5.775  17.219  19.228  0.00  0.00    +0.000 C 
ATOM     14  O   UNL     1       4.578  17.410  18.476  0.00  0.00    +0.000 OA
ENDBRANCH   7  14
ENDBRANCH   1  10
BRANCH   5  15
ATOM     15  C   UNL     1       1.319   9.145  19.008  0.00  0.00    +0.000 A 
ATOM     16  C   UNL     1       1.245   8.536  20.270  0.00  0.00    +0.000 A 
ATOM     17  C   UNL     1       1.879   7.316  20.522  0.00  0.00    +0.000 A 
ATOM     18  C   UNL     1       2.572   6.652  19.511  0.00  0.00    +0.000 A 
ATOM     19  C   UNL     1       2.634   7.221  18.243  0.00  0.00    +0.000 A 
ATOM     20  C   UNL     1       2.015   8.453  18.001  0.00  0.00    +0.000 A 
BRANCH  18  21
ATOM     21  O   UNL     1       3.188   5.491  19.887  0.00  0.00    +0.000 OA
ATOM     22  C   UNL     1       4.180   5.002  18.993  0.00  0.00    +0.000 C 
ENDBRANCH  18  21
ENDBRANCH   5  15
BRANCH   3  23
ATOM     23  N   UNL     1      -2.573  12.072  18.385  0.00  0.00    +0.000 N 
ATOM     24  C   UNL     1      -3.494  12.298  19.404  0.00  0.00    +0.000 C 
ATOM     25  O   UNL     1      -3.211  12.504  20.585  0.00  0.00    +0.000 OA
ATOM     26  H   UNL     1      -2.951  12.031  17.443  0.00  0.00    +0.000 HD
BRANCH  24  27
ATOM     27  C   UNL     1      -4.952  12.291  18.950  0.00  0.00    +0.000 C 
ATOM     28 CL   UNL     1      -5.192  11.019  17.731  0.00  0.00    +0.000 Cl
ATOM     29 CL   UNL     1      -6.003  12.007  20.355  0.00  0.00    +0.000 Cl
ENDBRANCH  24  27
ENDBRANCH   3  23
TORSDOF 6
ENDMDL
MODEL 3
REMARK VINA RESULT:      -7.0      3.005      6.382
REMARK  Name = 
REMARK  8 active torsions:
REMARK  status: ('A' for Active; 'I' for Inactive)
REMARK    1  A    between atoms: C_1  and  O_2
REMARK    2  A    between atoms: O_2  and  C_3
REMARK    3  A    between atoms: C_6  and  C_7
REMARK    4  A    between atoms: C_9  and  N_10
REMARK    5  A    between atoms: C_11  and  C_13
REMARK    6  A    between atoms: C_17  and  C_18
REMARK    7  A    between atoms: C_21  and  O_22
REMARK    8  A    between atoms: O_22  and  C_23
REMARK                            x       y       z     vdW  Elec       q    Type
REMARK                         _______ _______ _______ _____ _____    ______ ____
ROOT
ATOM      1  C   UNL     1      -1.211  11.663  18.460  0.00  0.00    +0.000 A 
ATOM      2  C   UNL     1      -0.445  12.840  18.363  0.00  0.00    +0.000 A 
ATOM      3  C   UNL     1       0.939  12.830  18.526  0.00  0.00    +0.000 A 
ATOM      4  C   UNL     1       1.588  11.607  18.729  0.00  0.00    +0.000 A 
ATOM      5  C   UNL     1       0.877  10.398  18.809  0.00  0.00    +0.000 A 
ATOM      6  C   UNL     1      -0.524  10.462  18.710  0.00  0.00    +0.000 A 
ENDROOT
BRANCH   1  10
ATOM      7  C   UNL     1      -5.508  11.687  18.032  0.00  0.00    +0.000 A 
ATOM      8  C   UNL     1      -4.700  11.250  16.985  0.00  0.00    +0.000 A 
ATOM      9  C   UNL     1      -3.307  11.248  17.117  0.00  0.00    +0.000 A 
ATOM     10  C   UNL     1      -2.684  11.685  18.300  0.00  0.00    +0.000 A 
ATOM     11  C   UNL     1      -3.520  12.150  19.330  0.00  0.00    +0.000 A 
ATOM     12  C   UNL     1      -4.913  12.158  19.197  0.00  0.00    +0.000 A 
BRANCH   7  14
ATOM     13  C   UNL     1      -7.601  12.742  18.313  0.00  0.00    +0.000 C 
ATOM     14  O   UNL     1      -6.854  11.644  17.794  0.00  0.00    +0.000 OA
ENDBRANCH   7  14
ENDBRANCH   1  10
BRANCH   5  15
ATOM     15  C   UNL     1       1.582   9.099  18.915  0.00  0.00    +0.000 A 
ATOM     16  C   UNL     1       2.301   8.551  17.841  0.00  0.00    +0.000 A 
ATOM     17  C   UNL     1       2.859   7.273  17.922  0.00  0.00    +0.000 A 
ATOM     18  C   UNL     1       2.750   6.521  19.092  0.00  0.00    +0.000 A 
ATOM     19  C   UNL     1       2.069   7.056  20.181  0.00  0.00    +0.000 A 
ATOM     20  C   UNL     1       1.493   8.327  20.088  0.00  0.00    +0.000 A 
BRANCH  18  21
ATOM     21  O   UNL     1       3.298   5.270  19.038  0.00  0.00    +0.000 OA
ATOM     22  C   UNL     1       4.699   5.200  19.276  0.00  0.00    +0.000 C 
ENDBRANCH  18  21
ENDBRANCH   5  15
BRANCH   3  23
ATOM     23  N   UNL     1       1.746  13.986  18.467  0.00  0.00    +0.000 N 
ATOM     24  C   UNL     1       1.782  15.042  19.371  0.00  0.00    +0.000 C 
ATOM     25  O   UNL     1       1.132  15.108  20.415  0.00  0.00    +0.000 OA
ATOM     26  H   UNL     1       2.421  14.022  17.710  0.00  0.00    +0.000 HD
BRANCH  24  27
ATOM     27  C   UNL     1       2.736  16.171  18.986  0.00  0.00    +0.000 C 
ATOM     28 CL   UNL     1       3.221  15.988  17.285  0.00  0.00    +0.000 Cl
ATOM     29 CL   UNL     1       1.928  17.734  19.233  0.00  0.00    +0.000 Cl
ENDBRANCH  24  27
ENDBRANCH   3  23
TORSDOF 6
ENDMDL
MODEL 4
REMARK VINA RESULT:      -7.0      0.959      7.094
REMARK  Name = 
REMARK  8 active torsions:
REMARK  status: ('A' for Active; 'I' for Inactive)
REMARK    1  A    between atoms: C_1  and  O_2
REMARK    2  A    between atoms: O_2  and  C_3
REMARK    3  A    between atoms: C_6  and  C_7
REMARK    4  A    between atoms: C_9  and  N_10
REMARK    5  A    between atoms: C_11  and  C_13
REMARK    6  A    between atoms: C_17  and  C_18
REMARK    7  A    between atoms: C_21  and  O_22
REMARK    8  A    between atoms: O_22  and  C_23
REMARK                            x       y       z     vdW  Elec       q    Type
REMARK                         _______ _______ _______ _____ _____    ______ ____
ROOT
ATOM      1  C   UNL     1       0.724  10.403  18.885  0.00  0.00    +0.000 A 
ATOM      2  C   UNL     1      -0.663  10.531  18.676  0.00  0.00    +0.000 A 
ATOM      3  C   UNL     1      -1.266  11.775  18.503  0.00  0.00    +0.000 A 
ATOM      4  C   UNL     1      -0.462  12.920  18.473  0.00  0.00    +0.000 A 
ATOM      5  C   UNL     1       0.930  12.849  18.650  0.00  0.00    +0.000 A 
ATOM      6  C   UNL     1       1.489  11.583  18.893  0.00  0.00    +0.000 A 
ENDROOT
BRANCH   1  10
ATOM      7  C   UNL     1       2.526   6.517  19.429  0.00  0.00    +0.000 A 
ATOM      8  C   UNL     1       1.891   7.152  20.493  0.00  0.00    +0.000 A 
ATOM      9  C   UNL     1       1.312   8.414  20.323  0.00  0.00    +0.000 A 
ATOM     10  C   UNL     1       1.355   9.077  19.083  0.00  0.00    +0.000 A 
ATOM     11  C   UNL     1       2.029   8.429  18.034  0.00  0.00    +0.000 A 
ATOM     12  C   UNL     1       2.614   7.169  18.203  0.00  0.00    +0.000 A 
BRANCH   7  14
ATOM     13  C   UNL     1       4.107   4.863  18.844  0.00  0.00    +0.000 C 
ATOM     14  O   UNL     1       3.053   5.286  19.708  0.00  0.00    +0.000 OA
ENDBRANCH   7  14
ENDBRANCH   1  10
BRANCH   5  15
ATOM     15  C   UNL     1       1.783  14.052  18.508  0.00  0.00    +0.000 A 
ATOM     16  C   UNL     1       3.112  13.976  18.063  0.00  0.00    +0.000 A 
ATOM     17  C   UNL     1       3.935  15.105  18.049  0.00  0.00    +0.000 A 
ATOM     18  C   UNL     1       3.444  16.350  18.441  0.00  0.00    +0.000 A 
ATOM     19  C   UNL     1       2.120  16.457  18.858  0.00  0.00    +0.000 A 
ATOM     20  C   UNL     1       1.306  15.320  18.891  0.00  0.00    +0.000 A 
BRANCH  18  21
ATOM     21  O   UNL     1       4.353  17.370  18.427  0.00  0.00    +0.000 OA
ATOM     22  C   UNL     1       5.585  17.107  19.089  0.00  0.00    +0.000 C 
ENDBRANCH  18  21
ENDBRANCH   5  15
BRANCH   3  23
ATOM     23  N   UNL     1      -2.653  11.957  18.320  0.00  0.00    +0.000 N 
ATOM     24  C   UNL     1      -3.606  12.248  19.291  0.00  0.00    +0.000 C 
ATOM     25  O   UNL     1      -3.370  12.444  20.484  0.00  0.00    +0.000 OA
ATOM     26  H   UNL     1      -2.986  11.934  17.361  0.00  0.00    +0.000 HD
BRANCH  24  27
ATOM     27  C   UNL     1      -5.038  12.331  18.766  0.00  0.00    +0.000 C 
ATOM     28 CL   UNL     1      -5.157  11.467  17.217  0.00  0.00    +0.000 Cl
ATOM     29 CL   UNL     1      -6.144  11.616  19.959  0.00  0.00    +0.000 Cl
ENDBRANCH  24  27
ENDBRANCH   3  23
TORSDOF 6
ENDMDL
MODEL 5
REMARK VINA RESULT:      -7.0      1.318      7.130
REMARK  Name = 
REMARK  8 active torsions:
REMARK  status: ('A' for Active; 'I' for Inactive)
REMARK    1  A    between atoms: C_1  and  O_2
REMARK    2  A    between atoms: O_2  and  C_3
REMARK    3  A    between atoms: C_6  and  C_7
REMARK    4  A    between atoms: C_9  and  N_10
REMARK    5  A    between atoms: C_11  and  C_13
REMARK    6  A    between atoms: C_17  and  C_18
REMARK    7  A    between atoms: C_21  and  O_22
REMARK    8  A    between atoms: O_22  and  C_23
REMARK                            x       y       z     vdW  Elec       q    Type
REMARK                         _______ _______ _______ _____ _____    ______ ____
ROOT
ATOM      1  C   UNL     1       0.372  10.403  18.663  0.00  0.00    +0.000 A 
ATOM      2  C   UNL     1      -0.954  10.309  18.195  0.00  0.00    +0.000 A 
ATOM      3  C   UNL     1      -1.737  11.442  17.983  0.00  0.00    +0.000 A 
ATOM      4  C   UNL     1      -1.170  12.706  18.181  0.00  0.00    +0.000 A 
ATOM      5  C   UNL     1       0.156  12.859  18.621  0.00  0.00    +0.000 A 
ATOM      6  C   UNL     1       0.889  11.690  18.892  0.00  0.00    +0.000 A 
ENDROOT
BRANCH   1  10
ATOM      7  C   UNL     1       2.733   6.848  19.321  0.00  0.00    +0.000 A 
ATOM      8  C   UNL     1       1.999   7.407  20.364  0.00  0.00    +0.000 A 
ATOM      9  C   UNL     1       1.238   8.562  20.157  0.00  0.00    +0.000 A 
ATOM     10  C   UNL     1       1.193   9.192  18.900  0.00  0.00    +0.000 A 
ATOM     11  C   UNL     1       1.967   8.627  17.872  0.00  0.00    +0.000 A 
ATOM     12  C   UNL     1       2.733   7.474  18.079  0.00  0.00    +0.000 A 
BRANCH   7  14
ATOM     13  C   UNL     1       4.618   5.501  18.867  0.00  0.00    +0.000 C 
ATOM     14  O   UNL     1       3.436   5.718  19.636  0.00  0.00    +0.000 OA
ENDBRANCH   7  14
ENDBRANCH   1  10
BRANCH   5  15
ATOM     15  C   UNL     1       0.780  14.199  18.722  0.00  0.00    +0.000 A 
ATOM     16  C   UNL     1       2.170  14.382  18.649  0.00  0.00    +0.000 A 
ATOM     17  C   UNL     1       2.746  15.637  18.864  0.00  0.00    +0.000 A 
ATOM     18  C   UNL     1       1.949  16.752  19.119  0.00  0.00    +0.000 A 
ATOM     19  C   UNL     1       0.566  16.602  19.166  0.00  0.00    +0.000 A 
ATOM     20  C   UNL     1      -0.005  15.340  18.972  0.00  0.00    +0.000 A 
BRANCH  18  21
ATOM     21  O   UNL     1       2.627  17.915  19.356  0.00  0.00    +0.000 OA
ATOM     22  C   UNL     1       2.517  18.434  20.677  0.00  0.00    +0.000 C 
ENDBRANCH  18  21
ENDBRANCH   5  15
BRANCH   3  23
ATOM     23  N   UNL     1      -3.077  11.399  17.544  0.00  0.00    +0.000 N 
ATOM     24  C   UNL     1      -4.219  11.717  18.273  0.00  0.00    +0.000 C 
ATOM     25  O   UNL     1      -4.231  12.142  19.429  0.00  0.00    +0.000 OA
ATOM     26  H   UNL     1      -3.221  11.168  16.566  0.00  0.00    +0.000 HD
BRANCH  24  27
ATOM     27  C   UNL     1      -5.529  11.514  17.514  0.00  0.00    +0.000 C 
ATOM     28 CL   UNL     1      -6.664  10.587  18.520  0.00  0.00    +0.000 Cl
ATOM     29 CL   UNL     1      -6.221  13.097  17.101  0.00  0.00    +0.000 Cl
ENDBRANCH  24  27
ENDBRANCH   3  23
TORSDOF 6
ENDMDL
MODEL 6
REMARK VINA RESULT:      -7.0      3.012      7.987
REMARK  Name = 
REMARK  8 active torsions:
REMARK  status: ('A' for Active; 'I' for Inactive)
REMARK    1  A    between atoms: C_1  and  O_2
REMARK    2  A    between atoms: O_2  and  C_3
REMARK    3  A    between atoms: C_6  and  C_7
REMARK    4  A    between atoms: C_9  and  N_10
REMARK    5  A    between atoms: C_11  and  C_13
REMARK    6  A    between atoms: C_17  and  C_18
REMARK    7  A    between atoms: C_21  and  O_22
REMARK    8  A    between atoms: O_22  and  C_23
REMARK                            x       y       z     vdW  Elec       q    Type
REMARK                         _______ _______ _______ _____ _____    ______ ____
ROOT
ATOM      1  C   UNL     1       0.803  10.401  18.722  0.00  0.00    +0.000 A 
ATOM      2  C   UNL     1       1.513  11.614  18.802  0.00  0.00    +0.000 A 
ATOM      3  C   UNL     1       0.891  12.842  18.594  0.00  0.00    +0.000 A 
ATOM      4  C   UNL     1      -0.489  12.873  18.361  0.00  0.00    +0.000 A 
ATOM      5  C   UNL     1      -1.253  11.695  18.297  0.00  0.00    +0.000 A 
ATOM      6  C   UNL     1      -0.574  10.473  18.442  0.00  0.00    +0.000 A 
ENDROOT
BRANCH   1  10
ATOM      7  C   UNL     1       2.728   6.578  19.293  0.00  0.00    +0.000 A 
ATOM      8  C   UNL     1       2.023   7.173  20.338  0.00  0.00    +0.000 A 
ATOM      9  C   UNL     1       1.405   8.414  20.159  0.00  0.00    +0.000 A 
ATOM     10  C   UNL     1       1.476   9.096  18.931  0.00  0.00    +0.000 A 
ATOM     11  C   UNL     1       2.218   8.490  17.903  0.00  0.00    +0.000 A 
ATOM     12  C   UNL     1       2.842   7.250  18.082  0.00  0.00    +0.000 A 
BRANCH   7  14
ATOM     13  C   UNL     1       2.586   4.578  20.540  0.00  0.00    +0.000 C 
ATOM     14  O   UNL     1       3.289   5.364  19.579  0.00  0.00    +0.000 OA
ENDBRANCH   7  14
ENDBRANCH   1  10
BRANCH   5  15
ATOM     15  C   UNL     1      -2.727  11.744  18.160  0.00  0.00    +0.000 A 
ATOM     16  C   UNL     1      -3.561  12.147  19.214  0.00  0.00    +0.000 A 
ATOM     17  C   UNL     1      -4.952  12.074  19.103  0.00  0.00    +0.000 A 
ATOM     18  C   UNL     1      -5.550  11.634  17.923  0.00  0.00    +0.000 A 
ATOM     19  C   UNL     1      -4.745  11.259  16.852  0.00  0.00    +0.000 A 
ATOM     20  C   UNL     1      -3.352  11.313  16.975  0.00  0.00    +0.000 A 
BRANCH  18  21
ATOM     21  O   UNL     1      -6.915  11.564  17.949  0.00  0.00    +0.000 OA
ATOM     22  C   UNL     1      -7.577  12.663  18.565  0.00  0.00    +0.000 C 
ENDBRANCH  18  21
ENDBRANCH   5  15
BRANCH   3  23
ATOM     23  N   UNL     1       1.565  14.082  18.633  0.00  0.00    +0.000 N 
ATOM     24  C   UNL     1       1.950  14.803  19.759  0.00  0.00    +0.000 C 
ATOM     25  O   UNL     1       1.799  14.436  20.925  0.00  0.00    +0.000 OA
ATOM     26  H   UNL     1       1.856  14.462  17.738  0.00  0.00    +0.000 HD
BRANCH  24  27
ATOM     27  C   UNL     1       2.619  16.141  19.453  0.00  0.00    +0.000 C 
ATOM     28 CL   UNL     1       2.810  16.325  17.695  0.00  0.00    +0.000 Cl
ATOM     29 CL   UNL     1       1.624  17.459  20.108  0.00  0.00    +0.000 Cl
ENDBRANCH  24  27
ENDBRANCH   3  23
TORSDOF 6
ENDMDL
MODEL 7
REMARK VINA RESULT:      -7.0      2.895      8.007
REMARK  Name = 
REMARK  8 active torsions:
REMARK  status: ('A' for Active; 'I' for Inactive)
REMARK    1  A    between atoms: C_1  and  O_2
REMARK    2  A    between atoms: O_2  and  C_3
REMARK    3  A    between atoms: C_6  and  C_7
REMARK    4  A    between atoms: C_9  and  N_10
REMARK    5  A    between atoms: C_11  and  C_13
REMARK    6  A    between atoms: C_17  and  C_18
REMARK    7  A    between atoms: C_21  and  O_22
REMARK    8  A    between atoms: O_22  and  C_23
REMARK                            x       y       z     vdW  Elec       q    Type
REMARK                         _______ _______ _______ _____ _____    ______ ____
ROOT
ATOM      1  C   UNL     1       0.720  10.415  18.677  0.00  0.00    +0.000 A 
ATOM      2  C   UNL     1       1.404  11.646  18.703  0.00  0.00    +0.000 A 
ATOM      3  C   UNL     1       0.746  12.854  18.478  0.00  0.00    +0.000 A 
ATOM      4  C   UNL     1      -0.640  12.846  18.283  0.00  0.00    +0.000 A 
ATOM      5  C   UNL     1      -1.376  11.650  18.273  0.00  0.00    +0.000 A 
ATOM      6  C   UNL     1      -0.665  10.449  18.433  0.00  0.00    +0.000 A 
ENDROOT
BRANCH   1  10
ATOM      7  C   UNL     1       2.752   6.656  19.297  0.00  0.00    +0.000 A 
ATOM      8  C   UNL     1       2.026   7.242  20.332  0.00  0.00    +0.000 A 
ATOM      9  C   UNL     1       1.373   8.464  20.138  0.00  0.00    +0.000 A 
ATOM     10  C   UNL     1       1.429   9.134  18.902  0.00  0.00    +0.000 A 
ATOM     11  C   UNL     1       2.192   8.537  17.884  0.00  0.00    +0.000 A 
ATOM     12  C   UNL     1       2.851   7.318  18.079  0.00  0.00    +0.000 A 
BRANCH   7  14
ATOM     13  C   UNL     1       3.757   4.684  18.476  0.00  0.00    +0.000 C 
ATOM     14  O   UNL     1       3.346   5.462  19.599  0.00  0.00    +0.000 OA
ENDBRANCH   7  14
ENDBRANCH   1  10
BRANCH   5  15
ATOM     15  C   UNL     1      -2.854  11.661  18.175  0.00  0.00    +0.000 A 
ATOM     16  C   UNL     1      -3.527  11.285  17.003  0.00  0.00    +0.000 A 
ATOM     17  C   UNL     1      -4.914  11.415  16.891  0.00  0.00    +0.000 A 
ATOM     18  C   UNL     1      -5.673  11.888  17.962  0.00  0.00    +0.000 A 
ATOM     19  C   UNL     1      -5.032  12.238  19.146  0.00  0.00    +0.000 A 
ATOM     20  C   UNL     1      -3.641  12.126  19.246  0.00  0.00    +0.000 A 
BRANCH  18  21
ATOM     21  O   UNL     1      -7.012  12.013  17.720  0.00  0.00    +0.000 OA
ATOM     22  C   UNL     1      -7.674  13.048  18.437  0.00  0.00    +0.000 C 
ENDBRANCH  18  21
ENDBRANCH   5  15
BRANCH   3  23
ATOM     23  N   UNL     1       1.391  14.109  18.465  0.00  0.00    +0.000 N 
ATOM     24  C   UNL     1       1.509  15.014  19.515  0.00  0.00    +0.000 C 
ATOM     25  O   UNL     1       1.099  14.830  20.662  0.00  0.00    +0.000 OA
ATOM     26  H   UNL     1       1.878  14.354  17.608  0.00  0.00    +0.000 HD
BRANCH  24  27
ATOM     27  C   UNL     1       2.228  16.312  19.153  0.00  0.00    +0.000 C 
ATOM     28 CL   UNL     1       3.403  16.001  17.856  0.00  0.00    +0.000 Cl
ATOM     29 CL   UNL     1       1.034  17.519  18.629  0.00  0.00    +0.000 Cl
ENDBRANCH  24  27
ENDBRANCH   3  23
TORSDOF 6
ENDMDL
MODEL 8
REMARK VINA RESULT:      -6.9      2.977      7.892
REMARK  Name = 
REMARK  8 active torsions:
REMARK  status: ('A' for Active; 'I' for Inactive)
REMARK    1  A    between atoms: C_1  and  O_2
REMARK    2  A    between atoms: O_2  and  C_3
REMARK    3  A    between atoms: C_6  and  C_7
REMARK    4  A    between atoms: C_9  and  N_10
REMARK    5  A    between atoms: C_11  and  C_13
REMARK    6  A    between atoms: C_17  and  C_18
REMARK    7  A    between atoms: C_21  and  O_22
REMARK    8  A    between atoms: O_22  and  C_23
REMARK                            x       y       z     vdW  Elec       q    Type
REMARK                         _______ _______ _______ _____ _____    ______ ____
ROOT
ATOM      1  C   UNL     1       0.764  10.319  18.803  0.00  0.00    +0.000 A 
ATOM      2  C   UNL     1       1.510  11.512  18.752  0.00  0.00    +0.000 A 
ATOM      3  C   UNL     1       0.899  12.750  18.566  0.00  0.00    +0.000 A 
ATOM      4  C   UNL     1      -0.497  12.814  18.492  0.00  0.00    +0.000 A 
ATOM      5  C   UNL     1      -1.293  11.658  18.563  0.00  0.00    +0.000 A 
ATOM      6  C   UNL     1      -0.634  10.423  18.679  0.00  0.00    +0.000 A 
ENDROOT
BRANCH   1  10
ATOM      7  C   UNL     1       2.718   6.510  19.370  0.00  0.00    +0.000 A 
ATOM      8  C   UNL     1       2.767   7.148  18.132  0.00  0.00    +0.000 A 
ATOM      9  C   UNL     1       2.129   8.378  17.943  0.00  0.00    +0.000 A 
ATOM     10  C   UNL     1       1.422   9.004  18.985  0.00  0.00    +0.000 A 
ATOM     11  C   UNL     1       1.361   8.325  20.215  0.00  0.00    +0.000 A 
ATOM     12  C   UNL     1       1.994   7.092  20.405  0.00  0.00    +0.000 A 
BRANCH   7  14
ATOM     13  C   UNL     1       4.798   5.394  19.323  0.00  0.00    +0.000 C 
ATOM     14  O   UNL     1       3.379   5.315  19.442  0.00  0.00    +0.000 OA
ENDBRANCH   7  14
ENDBRANCH   1  10
BRANCH   5  15
ATOM     15  C   UNL     1      -2.772  11.747  18.594  0.00  0.00    +0.000 A 
ATOM     16  C   UNL     1      -3.460  12.359  19.652  0.00  0.00    +0.000 A 
ATOM     17  C   UNL     1      -4.856  12.328  19.720  0.00  0.00    +0.000 A 
ATOM     18  C   UNL     1      -5.605  11.720  18.713  0.00  0.00    +0.000 A 
ATOM     19  C   UNL     1      -4.946  11.133  17.637  0.00  0.00    +0.000 A 
ATOM     20  C   UNL     1      -3.548  11.147  17.584  0.00  0.00    +0.000 A 
BRANCH  18  21
ATOM     21  O   UNL     1      -6.957  11.714  18.911  0.00  0.00    +0.000 OA
ATOM     22  C   UNL     1      -7.389  11.306  20.203  0.00  0.00    +0.000 C 
ENDBRANCH  18  21
ENDBRANCH   5  15
BRANCH   3  23
ATOM     23  N   UNL     1       1.605  13.969  18.479  0.00  0.00    +0.000 N 
ATOM     24  C   UNL     1       2.288  14.629  19.495  0.00  0.00    +0.000 C 
ATOM     25  O   UNL     1       2.426  14.214  20.646  0.00  0.00    +0.000 OA
ATOM     26  H   UNL     1       1.673  14.382  17.554  0.00  0.00    +0.000 HD
BRANCH  24  27
ATOM     27  C   UNL     1       2.906  15.963  19.078  0.00  0.00    +0.000 C 
ATOM     28 CL   UNL     1       3.546  15.834  17.425  0.00  0.00    +0.000 Cl
ATOM     29 CL   UNL     1       1.668  17.235  19.164  0.00  0.00    +0.000 Cl
ENDBRANCH  24  27
ENDBRANCH   3  23
TORSDOF 6
ENDMDL
MODEL 9
REMARK VINA RESULT:      -6.9      0.537      6.983
REMARK  Name = 
REMARK  8 active torsions:
REMARK  status: ('A' for Active; 'I' for Inactive)
REMARK    1  A    between atoms: C_1  and  O_2
REMARK    2  A    between atoms: O_2  and  C_3
REMARK    3  A    between atoms: C_6  and  C_7
REMARK    4  A    between atoms: C_9  and  N_10
REMARK    5  A    between atoms: C_11  and  C_13
REMARK    6  A    between atoms: C_17  and  C_18
REMARK    7  A    between atoms: C_21  and  O_22
REMARK    8  A    between atoms: O_22  and  C_23
REMARK                            x       y       z     vdW  Elec       q    Type
REMARK                         _______ _______ _______ _____ _____    ______ ____
ROOT
ATOM      1  C   UNL     1       1.196   9.961  18.725  0.00  0.00    +0.000 A 
ATOM      2  C   UNL     1      -0.212   9.998  18.739  0.00  0.00    +0.000 A 
ATOM      3  C   UNL     1      -0.912  11.202  18.780  0.00  0.00    +0.000 A 
ATOM      4  C   UNL     1      -0.197  12.404  18.742  0.00  0.00    +0.000 A 
ATOM      5  C   UNL     1       1.207  12.427  18.701  0.00  0.00    +0.000 A 
ATOM      6  C   UNL     1       1.877  11.191  18.733  0.00  0.00    +0.000 A 
ENDROOT
BRANCH   1  10
ATOM      7  C   UNL     1       3.313   6.199  18.602  0.00  0.00    +0.000 A 
ATOM      8  C   UNL     1       2.558   6.544  19.721  0.00  0.00    +0.000 A 
ATOM      9  C   UNL     1       1.877   7.765  19.768  0.00  0.00    +0.000 A 
ATOM     10  C   UNL     1       1.934   8.676  18.697  0.00  0.00    +0.000 A 
ATOM     11  C   UNL     1       2.727   8.318  17.593  0.00  0.00    +0.000 A 
ATOM     12  C   UNL     1       3.414   7.099  17.547  0.00  0.00    +0.000 A 
BRANCH   7  14
ATOM     13  C   UNL     1       5.234   4.989  19.252  0.00  0.00    +0.000 C 
ATOM     14  O   UNL     1       3.934   4.982  18.665  0.00  0.00    +0.000 OA
ENDBRANCH   7  14
ENDBRANCH   1  10
BRANCH   5  15
ATOM     15  C   UNL     1       1.949  13.700  18.552  0.00  0.00    +0.000 A 
ATOM     16  C   UNL     1       3.318  13.734  18.244  0.00  0.00    +0.000 A 
ATOM     17  C   UNL     1       4.025  14.940  18.224  0.00  0.00    +0.000 A 
ATOM     18  C   UNL     1       3.376  16.149  18.471  0.00  0.00    +0.000 A 
ATOM     19  C   UNL     1       2.013  16.145  18.748  0.00  0.00    +0.000 A 
ATOM     20  C   UNL     1       1.314  14.933  18.789  0.00  0.00    +0.000 A 
BRANCH  18  21
ATOM     21  O   UNL     1       4.179  17.255  18.467  0.00  0.00    +0.000 OA
ATOM     22  C   UNL     1       5.533  17.036  18.846  0.00  0.00    +0.000 C 
ENDBRANCH  18  21
ENDBRANCH   5  15
BRANCH   3  23
ATOM     23  N   UNL     1      -2.320  11.291  18.825  0.00  0.00    +0.000 N 
ATOM     24  C   UNL     1      -3.201  11.350  17.750  0.00  0.00    +0.000 C 
ATOM     25  O   UNL     1      -2.881  11.284  16.563  0.00  0.00    +0.000 OA
ATOM     26  H   UNL     1      -2.742  11.244  19.747  0.00  0.00    +0.000 HD
BRANCH  24  27
ATOM     27  C   UNL     1      -4.669  11.495  18.146  0.00  0.00    +0.000 C 
ATOM     28 CL   UNL     1      -4.787  12.325  19.713  0.00  0.00    +0.000 Cl
ATOM     29 CL   UNL     1      -5.527  12.418  16.892  0.00  0.00    +0.000 Cl
ENDBRANCH  24  27
ENDBRANCH   3  23
TORSDOF 6
ENDMDL
