MODEL 1
REMARK VINA RESULT:      -8.6      0.000      0.000
REMARK  Name = 
REMARK  6 active torsions:
REMARK  status: ('A' for Active; 'I' for Inactive)
REMARK    1  A    between atoms: C_1  and  S_2
REMARK    2  A    between atoms: S_2  and  C_5
REMARK    3  A    between atoms: C_8  and  C_9
REMARK    4  A    between atoms: C_10  and  C_11
REMARK    5  A    between atoms: C_18  and  C_19
REMARK    6  A    between atoms: C_22  and  C_23
REMARK                            x       y       z     vdW  Elec       q    Type
REMARK                         _______ _______ _______ _____ _____    ______ ____
ROOT
ATOM      1  C   UNL     1       2.484   7.525  18.760  0.00  0.00    +0.000 A 
ATOM      2  C   UNL     1       1.868   6.991  19.838  0.00  0.00    +0.000 A 
ATOM      3  C   UNL     1       0.961   7.805  20.617  0.00  0.00    +0.000 A 
ATOM      4  C   UNL     1       0.732   9.081  20.292  0.00  0.00    +0.000 A 
ATOM      5  O   UNL     1       1.339   9.661  19.161  0.00  0.00    +0.000 OA
ATOM      6  C   UNL     1       2.209   8.946  18.379  0.00  0.00    +0.000 A 
ATOM      7  O   UNL     1       2.741   9.459  17.400  0.00  0.00    +0.000 OA
ENDROOT
BRANCH   1  11
ATOM      8  C   UNL     1       5.259   5.174  16.520  0.00  0.00    +0.000 A 
ATOM      9  C   UNL     1       3.969   4.690  16.749  0.00  0.00    +0.000 A 
ATOM     10  C   UNL     1       3.052   5.477  17.449  0.00  0.00    +0.000 A 
ATOM     11  C   UNL     1       3.426   6.739  17.934  0.00  0.00    +0.000 A 
ATOM     12  C   UNL     1       4.722   7.217  17.689  0.00  0.00    +0.000 A 
ATOM     13  C   UNL     1       5.644   6.433  16.989  0.00  0.00    +0.000 A 
BRANCH   8  15
ATOM     14  C   UNL     1       6.611   4.847  14.096  0.00  0.00    +0.000 C 
ATOM     15  S   UNL     1       6.451   4.132  15.710  0.00  0.00    +0.000 S 
ATOM     16  O   UNL     1       5.850   2.819  15.561  0.00  0.00    +0.000 OA
ATOM     17  O   UNL     1       7.716   4.292  16.402  0.00  0.00    +0.000 OA
ENDBRANCH   8  15
ENDBRANCH   1  11
BRANCH   2  18
ATOM     18  C   UNL     1       2.109   5.594  20.264  0.00  0.00    +0.000 A 
ATOM     19  C   UNL     1       1.030   4.727  20.475  0.00  0.00    +0.000 A 
ATOM     20  C   UNL     1       1.257   3.397  20.829  0.00  0.00    +0.000 A 
ATOM     21  C   UNL     1       2.561   2.924  20.962  0.00  0.00    +0.000 A 
ATOM     22  C   UNL     1       3.641   3.779  20.742  0.00  0.00    +0.000 A 
ATOM     23  C   UNL     1       3.417   5.111  20.391  0.00  0.00    +0.000 A 
ENDBRANCH   2  18
BRANCH   4  24
ATOM     24  C   UNL     1      -0.155   9.968  21.070  0.00  0.00    +0.000 A 
ATOM     25  C   UNL     1      -0.351   9.771  22.447  0.00  0.00    +0.000 A 
ATOM     26  C   UNL     1      -1.182  10.615  23.188  0.00  0.00    +0.000 A 
ATOM     27  C   UNL     1      -1.833  11.690  22.574  0.00  0.00    +0.000 A 
ATOM     28  C   UNL     1      -1.637  11.898  21.201  0.00  0.00    +0.000 A 
ATOM     29  C   UNL     1      -0.805  11.049  20.459  0.00  0.00    +0.000 A 
BRANCH  27  30
ATOM     30  C   UNL     1      -2.717  12.618  23.370  0.00  0.00    +0.000 C 
ATOM     31  F   UNL     1      -3.514  11.973  24.268  0.00  0.00    +0.000 F 
ATOM     32  F   UNL     1      -2.003  13.526  24.093  0.00  0.00    +0.000 F 
ATOM     33  F   UNL     1      -3.557  13.344  22.582  0.00  0.00    +0.000 F 
ENDBRANCH  27  30
ENDBRANCH   4  24
TORSDOF 5
ENDMDL
MODEL 2
REMARK VINA RESULT:      -8.5      5.813     10.237
REMARK  Name = 
REMARK  6 active torsions:
REMARK  status: ('A' for Active; 'I' for Inactive)
REMARK    1  A    between atoms: C_1  and  S_2
REMARK    2  A    between atoms: S_2  and  C_5
REMARK    3  A    between atoms: C_8  and  C_9
REMARK    4  A    between atoms: C_10  and  C_11
REMARK    5  A    between atoms: C_18  and  C_19
REMARK    6  A    between atoms: C_22  and  C_23
REMARK                            x       y       z     vdW  Elec       q    Type
REMARK                         _______ _______ _______ _____ _____    ______ ____
ROOT
ATOM      1  C   UNL     1       0.071  10.220  21.536  0.00  0.00    +0.000 A 
ATOM      2  C   UNL     1      -0.030   9.840  20.242  0.00  0.00    +0.000 A 
ATOM      3  C   UNL     1       0.655   8.647  19.795  0.00  0.00    +0.000 A 
ATOM      4  C   UNL     1       1.395   7.923  20.639  0.00  0.00    +0.000 A 
ATOM      5  O   UNL     1       1.502   8.278  21.998  0.00  0.00    +0.000 OA
ATOM      6  C   UNL     1       0.878   9.396  22.488  0.00  0.00    +0.000 A 
ATOM      7  O   UNL     1       0.982   9.705  23.671  0.00  0.00    +0.000 OA
ENDROOT
BRANCH   1  11
ATOM      8  C   UNL     1      -1.788  13.712  23.147  0.00  0.00    +0.000 A 
ATOM      9  C   UNL     1      -0.581  13.828  22.455  0.00  0.00    +0.000 A 
ATOM     10  C   UNL     1       0.006  12.690  21.898  0.00  0.00    +0.000 A 
ATOM     11  C   UNL     1      -0.604  11.435  22.043  0.00  0.00    +0.000 A 
ATOM     12  C   UNL     1      -1.821  11.334  22.732  0.00  0.00    +0.000 A 
ATOM     13  C   UNL     1      -2.413  12.470  23.293  0.00  0.00    +0.000 A 
BRANCH   8  15
ATOM     14  C   UNL     1      -1.510  15.335  25.406  0.00  0.00    +0.000 C 
ATOM     15  S   UNL     1      -2.484  15.146  23.936  0.00  0.00    +0.000 S 
ATOM     16  O   UNL     1      -3.838  14.808  24.336  0.00  0.00    +0.000 OA
ATOM     17  O   UNL     1      -2.229  16.287  23.077  0.00  0.00    +0.000 OA
ENDBRANCH   8  15
ENDBRANCH   1  11
BRANCH   2  18
ATOM     18  C   UNL     1      -0.809  10.621  19.256  0.00  0.00    +0.000 A 
ATOM     19  C   UNL     1      -0.289  11.813  18.735  0.00  0.00    +0.000 A 
ATOM     20  C   UNL     1      -0.999  12.525  17.769  0.00  0.00    +0.000 A 
ATOM     21  C   UNL     1      -2.225  12.046  17.310  0.00  0.00    +0.000 A 
ATOM     22  C   UNL     1      -2.743  10.853  17.816  0.00  0.00    +0.000 A 
ATOM     23  C   UNL     1      -2.036  10.140  18.784  0.00  0.00    +0.000 A 
ENDBRANCH   2  18
BRANCH   4  24
ATOM     24  C   UNL     1       2.145   6.718  20.230  0.00  0.00    +0.000 A 
ATOM     25  C   UNL     1       3.133   6.783  19.235  0.00  0.00    +0.000 A 
ATOM     26  C   UNL     1       3.852   5.647  18.852  0.00  0.00    +0.000 A 
ATOM     27  C   UNL     1       3.608   4.413  19.465  0.00  0.00    +0.000 A 
ATOM     28  C   UNL     1       2.627   4.341  20.464  0.00  0.00    +0.000 A 
ATOM     29  C   UNL     1       1.907   5.481  20.844  0.00  0.00    +0.000 A 
BRANCH  27  30
ATOM     30  C   UNL     1       4.393   3.185  19.072  0.00  0.00    +0.000 C 
ATOM     31  F   UNL     1       3.765   2.415  18.139  0.00  0.00    +0.000 F 
ATOM     32  F   UNL     1       5.610   3.490  18.543  0.00  0.00    +0.000 F 
ATOM     33  F   UNL     1       4.638   2.362  20.129  0.00  0.00    +0.000 F 
ENDBRANCH  27  30
ENDBRANCH   4  24
TORSDOF 5
ENDMDL
MODEL 3
REMARK VINA RESULT:      -8.5      0.107      1.079
REMARK  Name = 
REMARK  6 active torsions:
REMARK  status: ('A' for Active; 'I' for Inactive)
REMARK    1  A    between atoms: C_1  and  S_2
REMARK    2  A    between atoms: S_2  and  C_5
REMARK    3  A    between atoms: C_8  and  C_9
REMARK    4  A    between atoms: C_10  and  C_11
REMARK    5  A    between atoms: C_18  and  C_19
REMARK    6  A    between atoms: C_22  and  C_23
REMARK                            x       y       z     vdW  Elec       q    Type
REMARK                         _______ _______ _______ _____ _____    ______ ____
ROOT
ATOM      1  C   UNL     1       2.542   7.520  18.696  0.00  0.00    +0.000 A 
ATOM      2  C   UNL     1       1.926   6.991  19.778  0.00  0.00    +0.000 A 
ATOM      3  C   UNL     1       1.019   7.809  20.552  0.00  0.00    +0.000 A 
ATOM      4  C   UNL     1       0.790   9.083  20.220  0.00  0.00    +0.000 A 
ATOM      5  O   UNL     1       1.398   9.657  19.085  0.00  0.00    +0.000 OA
ATOM      6  C   UNL     1       2.267   8.938  18.308  0.00  0.00    +0.000 A 
ATOM      7  O   UNL     1       2.800   9.446  17.326  0.00  0.00    +0.000 OA
ENDROOT
BRANCH   1  11
ATOM      8  C   UNL     1       5.323   5.162  16.469  0.00  0.00    +0.000 A 
ATOM      9  C   UNL     1       4.053   4.652  16.752  0.00  0.00    +0.000 A 
ATOM     10  C   UNL     1       3.134   5.439  17.448  0.00  0.00    +0.000 A 
ATOM     11  C   UNL     1       3.484   6.728  17.875  0.00  0.00    +0.000 A 
ATOM     12  C   UNL     1       4.759   7.232  17.576  0.00  0.00    +0.000 A 
ATOM     13  C   UNL     1       5.684   6.448  16.880  0.00  0.00    +0.000 A 
BRANCH   8  15
ATOM     14  C   UNL     1       6.629   4.789  14.027  0.00  0.00    +0.000 C 
ATOM     15  S   UNL     1       6.522   4.123  15.667  0.00  0.00    +0.000 S 
ATOM     16  O   UNL     1       5.951   2.792  15.573  0.00  0.00    +0.000 OA
ATOM     17  O   UNL     1       7.798   4.336  16.324  0.00  0.00    +0.000 OA
ENDBRANCH   8  15
ENDBRANCH   1  11
BRANCH   2  18
ATOM     18  C   UNL     1       2.167   5.597  20.211  0.00  0.00    +0.000 A 
ATOM     19  C   UNL     1       1.087   4.738  20.450  0.00  0.00    +0.000 A 
ATOM     20  C   UNL     1       1.313   3.409  20.811  0.00  0.00    +0.000 A 
ATOM     21  C   UNL     1       2.617   2.929  20.923  0.00  0.00    +0.000 A 
ATOM     22  C   UNL     1       3.697   3.777  20.675  0.00  0.00    +0.000 A 
ATOM     23  C   UNL     1       3.474   5.106  20.317  0.00  0.00    +0.000 A 
ENDBRANCH   2  18
BRANCH   4  24
ATOM     24  C   UNL     1      -0.096   9.975  20.993  0.00  0.00    +0.000 A 
ATOM     25  C   UNL     1      -0.763  11.046  20.377  0.00  0.00    +0.000 A 
ATOM     26  C   UNL     1      -1.611  11.886  21.104  0.00  0.00    +0.000 A 
ATOM     27  C   UNL     1      -1.824  11.671  22.470  0.00  0.00    +0.000 A 
ATOM     28  C   UNL     1      -1.167  10.600  23.092  0.00  0.00    +0.000 A 
ATOM     29  C   UNL     1      -0.316   9.760  22.361  0.00  0.00    +0.000 A 
BRANCH  27  30
ATOM     30  C   UNL     1      -2.753  12.562  23.259  0.00  0.00    +0.000 C 
ATOM     31  F   UNL     1      -2.110  13.558  23.931  0.00  0.00    +0.000 F 
ATOM     32  F   UNL     1      -3.676  13.180  22.472  0.00  0.00    +0.000 F 
ATOM     33  F   UNL     1      -3.460  11.876  24.200  0.00  0.00    +0.000 F 
ENDBRANCH  27  30
ENDBRANCH   4  24
TORSDOF 5
ENDMDL
MODEL 4
REMARK VINA RESULT:      -8.4      5.806     10.199
REMARK  Name = 
REMARK  6 active torsions:
REMARK  status: ('A' for Active; 'I' for Inactive)
REMARK    1  A    between atoms: C_1  and  S_2
REMARK    2  A    between atoms: S_2  and  C_5
REMARK    3  A    between atoms: C_8  and  C_9
REMARK    4  A    between atoms: C_10  and  C_11
REMARK    5  A    between atoms: C_18  and  C_19
REMARK    6  A    between atoms: C_22  and  C_23
REMARK                            x       y       z     vdW  Elec       q    Type
REMARK                         _______ _______ _______ _____ _____    ______ ____
ROOT
ATOM      1  C   UNL     1       0.090  10.193  21.593  0.00  0.00    +0.000 A 
ATOM      2  C   UNL     1      -0.014   9.856  20.287  0.00  0.00    +0.000 A 
ATOM      3  C   UNL     1       0.682   8.687  19.796  0.00  0.00    +0.000 A 
ATOM      4  C   UNL     1       1.435   7.943  20.611  0.00  0.00    +0.000 A 
ATOM      5  O   UNL     1       1.545   8.253  21.981  0.00  0.00    +0.000 OA
ATOM      6  C   UNL     1       0.912   9.346  22.512  0.00  0.00    +0.000 A 
ATOM      7  O   UNL     1       1.018   9.616  23.705  0.00  0.00    +0.000 OA
ENDROOT
BRANCH   1  11
ATOM      8  C   UNL     1      -1.977  13.640  23.040  0.00  0.00    +0.000 A 
ATOM      9  C   UNL     1      -2.518  12.370  23.250  0.00  0.00    +0.000 A 
ATOM     10  C   UNL     1      -1.823  11.242  22.808  0.00  0.00    +0.000 A 
ATOM     11  C   UNL     1      -0.595  11.382  22.145  0.00  0.00    +0.000 A 
ATOM     12  C   UNL     1      -0.057  12.663  21.949  0.00  0.00    +0.000 A 
ATOM     13  C   UNL     1      -0.750  13.796  22.388  0.00  0.00    +0.000 A 
BRANCH   8  15
ATOM     14  C   UNL     1      -2.810  15.075  25.288  0.00  0.00    +0.000 C 
ATOM     15  S   UNL     1      -2.909  15.077  23.518  0.00  0.00    +0.000 S 
ATOM     16  O   UNL     1      -4.293  14.840  23.147  0.00  0.00    +0.000 OA
ATOM     17  O   UNL     1      -2.201  16.243  23.028  0.00  0.00    +0.000 OA
ENDBRANCH   8  15
ENDBRANCH   1  11
BRANCH   2  18
ATOM     18  C   UNL     1      -0.807  10.661  19.332  0.00  0.00    +0.000 A 
ATOM     19  C   UNL     1      -0.271  11.837  18.791  0.00  0.00    +0.000 A 
ATOM     20  C   UNL     1      -0.997  12.572  17.853  0.00  0.00    +0.000 A 
ATOM     21  C   UNL     1      -2.255  12.131  17.443  0.00  0.00    +0.000 A 
ATOM     22  C   UNL     1      -2.788  10.954  17.969  0.00  0.00    +0.000 A 
ATOM     23  C   UNL     1      -2.066  10.219  18.909  0.00  0.00    +0.000 A 
ENDBRANCH   2  18
BRANCH   4  24
ATOM     24  C   UNL     1       2.195   6.761  20.157  0.00  0.00    +0.000 A 
ATOM     25  C   UNL     1       2.042   5.515  20.786  0.00  0.00    +0.000 A 
ATOM     26  C   UNL     1       2.753   4.392  20.354  0.00  0.00    +0.000 A 
ATOM     27  C   UNL     1       3.632   4.483  19.269  0.00  0.00    +0.000 A 
ATOM     28  C   UNL     1       3.786   5.723  18.631  0.00  0.00    +0.000 A 
ATOM     29  C   UNL     1       3.074   6.847  19.068  0.00  0.00    +0.000 A 
BRANCH  27  30
ATOM     30  C   UNL     1       4.389   3.272  18.782  0.00  0.00    +0.000 C 
ATOM     31  F   UNL     1       4.535   2.304  19.731  0.00  0.00    +0.000 F 
ATOM     32  F   UNL     1       3.781   2.667  17.724  0.00  0.00    +0.000 F 
ATOM     33  F   UNL     1       5.650   3.577  18.366  0.00  0.00    +0.000 F 
ENDBRANCH  27  30
ENDBRANCH   4  24
TORSDOF 5
ENDMDL
MODEL 5
REMARK VINA RESULT:      -8.4      5.814     10.206
REMARK  Name = 
REMARK  6 active torsions:
REMARK  status: ('A' for Active; 'I' for Inactive)
REMARK    1  A    between atoms: C_1  and  S_2
REMARK    2  A    between atoms: S_2  and  C_5
REMARK    3  A    between atoms: C_8  and  C_9
REMARK    4  A    between atoms: C_10  and  C_11
REMARK    5  A    between atoms: C_18  and  C_19
REMARK    6  A    between atoms: C_22  and  C_23
REMARK                            x       y       z     vdW  Elec       q    Type
REMARK                         _______ _______ _______ _____ _____    ______ ____
ROOT
ATOM      1  C   UNL     1       0.079  10.199  21.526  0.00  0.00    +0.000 A 
ATOM      2  C   UNL     1      -0.019   9.818  20.233  0.00  0.00    +0.000 A 
ATOM      3  C   UNL     1       0.673   8.629  19.786  0.00  0.00    +0.000 A 
ATOM      4  C   UNL     1       1.416   7.909  20.632  0.00  0.00    +0.000 A 
ATOM      5  O   UNL     1       1.520   8.266  21.991  0.00  0.00    +0.000 OA
ATOM      6  C   UNL     1       0.890   9.380  22.480  0.00  0.00    +0.000 A 
ATOM      7  O   UNL     1       0.990   9.691  23.663  0.00  0.00    +0.000 OA
ENDROOT
BRANCH   1  11
ATOM      8  C   UNL     1      -1.801  13.683  23.134  0.00  0.00    +0.000 A 
ATOM      9  C   UNL     1      -0.590  13.803  22.449  0.00  0.00    +0.000 A 
ATOM     10  C   UNL     1       0.004  12.668  21.893  0.00  0.00    +0.000 A 
ATOM     11  C   UNL     1      -0.603  11.411  22.032  0.00  0.00    +0.000 A 
ATOM     12  C   UNL     1      -1.824  11.305  22.713  0.00  0.00    +0.000 A 
ATOM     13  C   UNL     1      -2.423  12.438  23.273  0.00  0.00    +0.000 A 
BRANCH   8  15
ATOM     14  C   UNL     1      -3.687  15.707  22.740  0.00  0.00    +0.000 C 
ATOM     15  S   UNL     1      -2.506  15.113  23.921  0.00  0.00    +0.000 S 
ATOM     16  O   UNL     1      -1.453  16.105  24.041  0.00  0.00    +0.000 OA
ATOM     17  O   UNL     1      -3.230  14.657  25.092  0.00  0.00    +0.000 OA
ENDBRANCH   8  15
ENDBRANCH   1  11
BRANCH   2  18
ATOM     18  C   UNL     1      -0.801  10.594  19.245  0.00  0.00    +0.000 A 
ATOM     19  C   UNL     1      -0.296  11.799  18.739  0.00  0.00    +0.000 A 
ATOM     20  C   UNL     1      -1.009  12.508  17.772  0.00  0.00    +0.000 A 
ATOM     21  C   UNL     1      -2.222  12.011  17.296  0.00  0.00    +0.000 A 
ATOM     22  C   UNL     1      -2.724  10.806  17.787  0.00  0.00    +0.000 A 
ATOM     23  C   UNL     1      -2.015  10.097  18.757  0.00  0.00    +0.000 A 
ENDBRANCH   2  18
BRANCH   4  24
ATOM     24  C   UNL     1       2.173   6.708  20.225  0.00  0.00    +0.000 A 
ATOM     25  C   UNL     1       1.956   5.469  20.849  0.00  0.00    +0.000 A 
ATOM     26  C   UNL     1       2.663   4.328  20.459  0.00  0.00    +0.000 A 
ATOM     27  C   UNL     1       3.602   4.393  19.424  0.00  0.00    +0.000 A 
ATOM     28  C   UNL     1       3.820   5.626  18.791  0.00  0.00    +0.000 A 
ATOM     29  C   UNL     1       3.111   6.768  19.185  0.00  0.00    +0.000 A 
BRANCH  27  30
ATOM     30  C   UNL     1       4.356   3.163  18.983  0.00  0.00    +0.000 C 
ATOM     31  F   UNL     1       4.581   2.273  19.991  0.00  0.00    +0.000 F 
ATOM     32  F   UNL     1       3.699   2.467  18.014  0.00  0.00    +0.000 F 
ATOM     33  F   UNL     1       5.582   3.458  18.468  0.00  0.00    +0.000 F 
ENDBRANCH  27  30
ENDBRANCH   4  24
TORSDOF 5
ENDMDL
MODEL 6
REMARK VINA RESULT:      -8.4      6.099     11.115
REMARK  Name = 
REMARK  6 active torsions:
REMARK  status: ('A' for Active; 'I' for Inactive)
REMARK    1  A    between atoms: C_1  and  S_2
REMARK    2  A    between atoms: S_2  and  C_5
REMARK    3  A    between atoms: C_8  and  C_9
REMARK    4  A    between atoms: C_10  and  C_11
REMARK    5  A    between atoms: C_18  and  C_19
REMARK    6  A    between atoms: C_22  and  C_23
REMARK                            x       y       z     vdW  Elec       q    Type
REMARK                         _______ _______ _______ _____ _____    ______ ____
ROOT
ATOM      1  C   UNL     1      -0.661  12.392  21.788  0.00  0.00    +0.000 A 
ATOM      2  C   UNL     1       0.089  12.657  20.694  0.00  0.00    +0.000 A 
ATOM      3  C   UNL     1       0.757  11.573  20.009  0.00  0.00    +0.000 A 
ATOM      4  C   UNL     1       0.654  10.315  20.448  0.00  0.00    +0.000 A 
ATOM      5  O   UNL     1      -0.138  10.002  21.571  0.00  0.00    +0.000 OA
ATOM      6  C   UNL     1      -0.798  10.981  22.266  0.00  0.00    +0.000 A 
ATOM      7  O   UNL     1      -1.480  10.703  23.248  0.00  0.00    +0.000 OA
ENDROOT
BRANCH   1  11
ATOM      8  C   UNL     1      -2.633  15.600  23.805  0.00  0.00    +0.000 A 
ATOM      9  C   UNL     1      -3.335  14.833  22.871  0.00  0.00    +0.000 A 
ATOM     10  C   UNL     1      -2.699  13.763  22.241  0.00  0.00    +0.000 A 
ATOM     11  C   UNL     1      -1.359  13.465  22.530  0.00  0.00    +0.000 A 
ATOM     12  C   UNL     1      -0.669  14.236  23.477  0.00  0.00    +0.000 A 
ATOM     13  C   UNL     1      -1.300  15.310  24.111  0.00  0.00    +0.000 A 
BRANCH   8  15
ATOM     14  C   UNL     1      -3.534  18.174  23.195  0.00  0.00    +0.000 C 
ATOM     15  S   UNL     1      -3.416  17.019  24.535  0.00  0.00    +0.000 S 
ATOM     16  O   UNL     1      -2.497  17.565  25.517  0.00  0.00    +0.000 OA
ATOM     17  O   UNL     1      -4.761  16.632  24.916  0.00  0.00    +0.000 OA
ENDBRANCH   8  15
ENDBRANCH   1  11
BRANCH   2  18
ATOM     18  C   UNL     1       0.265  14.034  20.182  0.00  0.00    +0.000 A 
ATOM     19  C   UNL     1       1.369  14.798  20.585  0.00  0.00    +0.000 A 
ATOM     20  C   UNL     1       1.563  16.078  20.066  0.00  0.00    +0.000 A 
ATOM     21  C   UNL     1       0.665  16.596  19.134  0.00  0.00    +0.000 A 
ATOM     22  C   UNL     1      -0.429  15.836  18.719  0.00  0.00    +0.000 A 
ATOM     23  C   UNL     1      -0.627  14.557  19.239  0.00  0.00    +0.000 A 
ENDBRANCH   2  18
BRANCH   4  24
ATOM     24  C   UNL     1       1.343   9.175  19.811  0.00  0.00    +0.000 A 
ATOM     25  C   UNL     1       1.559   7.977  20.510  0.00  0.00    +0.000 A 
ATOM     26  C   UNL     1       2.202   6.892  19.906  0.00  0.00    +0.000 A 
ATOM     27  C   UNL     1       2.638   6.973  18.580  0.00  0.00    +0.000 A 
ATOM     28  C   UNL     1       2.421   8.165  17.873  0.00  0.00    +0.000 A 
ATOM     29  C   UNL     1       1.778   9.251  18.481  0.00  0.00    +0.000 A 
BRANCH  27  30
ATOM     30  C   UNL     1       3.316   5.801  17.914  0.00  0.00    +0.000 C 
ATOM     31  F   UNL     1       2.444   4.885  17.406  0.00  0.00    +0.000 F 
ATOM     32  F   UNL     1       4.106   6.179  16.870  0.00  0.00    +0.000 F 
ATOM     33  F   UNL     1       4.125   5.112  18.766  0.00  0.00    +0.000 F 
ENDBRANCH  27  30
ENDBRANCH   4  24
TORSDOF 5
ENDMDL
MODEL 7
REMARK VINA RESULT:      -8.4      5.661      9.710
REMARK  Name = 
REMARK  6 active torsions:
REMARK  status: ('A' for Active; 'I' for Inactive)
REMARK    1  A    between atoms: C_1  and  S_2
REMARK    2  A    between atoms: S_2  and  C_5
REMARK    3  A    between atoms: C_8  and  C_9
REMARK    4  A    between atoms: C_10  and  C_11
REMARK    5  A    between atoms: C_18  and  C_19
REMARK    6  A    between atoms: C_22  and  C_23
REMARK                            x       y       z     vdW  Elec       q    Type
REMARK                         _______ _______ _______ _____ _____    ______ ____
ROOT
ATOM      1  C   UNL     1       0.944  12.121  19.442  0.00  0.00    +0.000 A 
ATOM      2  C   UNL     1       0.223  11.288  20.225  0.00  0.00    +0.000 A 
ATOM      3  C   UNL     1       0.510   9.870  20.210  0.00  0.00    +0.000 A 
ATOM      4  C   UNL     1       1.469   9.372  19.425  0.00  0.00    +0.000 A 
ATOM      5  O   UNL     1       2.254  10.216  18.614  0.00  0.00    +0.000 OA
ATOM      6  C   UNL     1       2.036  11.568  18.581  0.00  0.00    +0.000 A 
ATOM      7  O   UNL     1       2.717  12.298  17.867  0.00  0.00    +0.000 OA
ENDROOT
BRANCH   1  11
ATOM      8  C   UNL     1       0.328  16.344  19.249  0.00  0.00    +0.000 A 
ATOM      9  C   UNL     1      -0.326  15.507  18.343  0.00  0.00    +0.000 A 
ATOM     10  C   UNL     1      -0.152  14.125  18.431  0.00  0.00    +0.000 A 
ATOM     11  C   UNL     1       0.686  13.578  19.414  0.00  0.00    +0.000 A 
ATOM     12  C   UNL     1       1.330  14.429  20.325  0.00  0.00    +0.000 A 
ATOM     13  C   UNL     1       1.160  15.814  20.240  0.00  0.00    +0.000 A 
BRANCH   8  15
ATOM     14  C   UNL     1      -0.795  18.307  17.607  0.00  0.00    +0.000 C 
ATOM     15  S   UNL     1       0.179  18.108  19.075  0.00  0.00    +0.000 S 
ATOM     16  O   UNL     1       1.507  18.631  18.805  0.00  0.00    +0.000 OA
ATOM     17  O   UNL     1      -0.594  18.597  20.199  0.00  0.00    +0.000 OA
ENDBRANCH   8  15
ENDBRANCH   1  11
BRANCH   2  18
ATOM     18  C   UNL     1      -0.872  11.779  21.090  0.00  0.00    +0.000 A 
ATOM     19  C   UNL     1      -0.664  11.941  22.466  0.00  0.00    +0.000 A 
ATOM     20  C   UNL     1      -1.680  12.451  23.274  0.00  0.00    +0.000 A 
ATOM     21  C   UNL     1      -2.904  12.812  22.712  0.00  0.00    +0.000 A 
ATOM     22  C   UNL     1      -3.113  12.665  21.340  0.00  0.00    +0.000 A 
ATOM     23  C   UNL     1      -2.100  12.153  20.530  0.00  0.00    +0.000 A 
ENDBRANCH   2  18
BRANCH   4  24
ATOM     24  C   UNL     1       1.781   7.931  19.341  0.00  0.00    +0.000 A 
ATOM     25  C   UNL     1       1.596   7.085  20.447  0.00  0.00    +0.000 A 
ATOM     26  C   UNL     1       1.881   5.719  20.369  0.00  0.00    +0.000 A 
ATOM     27  C   UNL     1       2.350   5.158  19.176  0.00  0.00    +0.000 A 
ATOM     28  C   UNL     1       2.531   5.995  18.065  0.00  0.00    +0.000 A 
ATOM     29  C   UNL     1       2.246   7.365  18.147  0.00  0.00    +0.000 A 
BRANCH  27  30
ATOM     30  C   UNL     1       2.642   3.681  19.076  0.00  0.00    +0.000 C 
ATOM     31  F   UNL     1       3.793   3.310  19.705  0.00  0.00    +0.000 F 
ATOM     32  F   UNL     1       1.657   2.916  19.624  0.00  0.00    +0.000 F 
ATOM     33  F   UNL     1       2.770   3.259  17.787  0.00  0.00    +0.000 F 
ENDBRANCH  27  30
ENDBRANCH   4  24
TORSDOF 5
ENDMDL
MODEL 8
REMARK VINA RESULT:      -8.4      6.061     11.059
REMARK  Name = 
REMARK  6 active torsions:
REMARK  status: ('A' for Active; 'I' for Inactive)
REMARK    1  A    between atoms: C_1  and  S_2
REMARK    2  A    between atoms: S_2  and  C_5
REMARK    3  A    between atoms: C_8  and  C_9
REMARK    4  A    between atoms: C_10  and  C_11
REMARK    5  A    between atoms: C_18  and  C_19
REMARK    6  A    between atoms: C_22  and  C_23
REMARK                            x       y       z     vdW  Elec       q    Type
REMARK                         _______ _______ _______ _____ _____    ______ ____
ROOT
ATOM      1  C   UNL     1      -0.570  12.350  21.646  0.00  0.00    +0.000 A 
ATOM      2  C   UNL     1       0.179  12.588  20.546  0.00  0.00    +0.000 A 
ATOM      3  C   UNL     1       0.834  11.485  19.878  0.00  0.00    +0.000 A 
ATOM      4  C   UNL     1       0.718  10.236  20.340  0.00  0.00    +0.000 A 
ATOM      5  O   UNL     1      -0.074   9.951  21.470  0.00  0.00    +0.000 OA
ATOM      6  C   UNL     1      -0.722  10.950  22.150  0.00  0.00    +0.000 A 
ATOM      7  O   UNL     1      -1.403  10.697  23.138  0.00  0.00    +0.000 OA
ENDROOT
BRANCH   1  11
ATOM      8  C   UNL     1      -2.515  15.611  23.604  0.00  0.00    +0.000 A 
ATOM      9  C   UNL     1      -3.253  14.759  22.779  0.00  0.00    +0.000 A 
ATOM     10  C   UNL     1      -2.623  13.673  22.169  0.00  0.00    +0.000 A 
ATOM     11  C   UNL     1      -1.253  13.444  22.371  0.00  0.00    +0.000 A 
ATOM     12  C   UNL     1      -0.526  14.301  23.210  0.00  0.00    +0.000 A 
ATOM     13  C   UNL     1      -1.152  15.391  23.822  0.00  0.00    +0.000 A 
BRANCH   8  15
ATOM     14  C   UNL     1      -4.976  16.532  24.556  0.00  0.00    +0.000 C 
ATOM     15  S   UNL     1      -3.299  17.047  24.302  0.00  0.00    +0.000 S 
ATOM     16  O   UNL     1      -3.297  18.081  23.283  0.00  0.00    +0.000 OA
ATOM     17  O   UNL     1      -2.699  17.287  25.600  0.00  0.00    +0.000 OA
ENDBRANCH   8  15
ENDBRANCH   1  11
BRANCH   2  18
ATOM     18  C   UNL     1       0.370  13.954  20.009  0.00  0.00    +0.000 A 
ATOM     19  C   UNL     1       1.559  14.650  20.264  0.00  0.00    +0.000 A 
ATOM     20  C   UNL     1       1.760  15.917  19.718  0.00  0.00    +0.000 A 
ATOM     21  C   UNL     1       0.783  16.491  18.906  0.00  0.00    +0.000 A 
ATOM     22  C   UNL     1      -0.398  15.798  18.639  0.00  0.00    +0.000 A 
ATOM     23  C   UNL     1      -0.604  14.531  19.186  0.00  0.00    +0.000 A 
ENDBRANCH   2  18
BRANCH   4  24
ATOM     24  C   UNL     1       1.392   9.077  19.721  0.00  0.00    +0.000 A 
ATOM     25  C   UNL     1       1.643   7.907  20.456  0.00  0.00    +0.000 A 
ATOM     26  C   UNL     1       2.272   6.805  19.870  0.00  0.00    +0.000 A 
ATOM     27  C   UNL     1       2.658   6.839  18.526  0.00  0.00    +0.000 A 
ATOM     28  C   UNL     1       2.405   8.001  17.783  0.00  0.00    +0.000 A 
ATOM     29  C   UNL     1       1.776   9.106  18.373  0.00  0.00    +0.000 A 
BRANCH  27  30
ATOM     30  C   UNL     1       3.321   5.646  17.880  0.00  0.00    +0.000 C 
ATOM     31  F   UNL     1       4.154   4.967  18.718  0.00  0.00    +0.000 F 
ATOM     32  F   UNL     1       2.419   4.729  17.430  0.00  0.00    +0.000 F 
ATOM     33  F   UNL     1       4.077   5.990  16.801  0.00  0.00    +0.000 F 
ENDBRANCH  27  30
ENDBRANCH   4  24
TORSDOF 5
ENDMDL
MODEL 9
REMARK VINA RESULT:      -8.4      6.120     11.198
REMARK  Name = 
REMARK  6 active torsions:
REMARK  status: ('A' for Active; 'I' for Inactive)
REMARK    1  A    between atoms: C_1  and  S_2
REMARK    2  A    between atoms: S_2  and  C_5
REMARK    3  A    between atoms: C_8  and  C_9
REMARK    4  A    between atoms: C_10  and  C_11
REMARK    5  A    between atoms: C_18  and  C_19
REMARK    6  A    between atoms: C_22  and  C_23
REMARK                            x       y       z     vdW  Elec       q    Type
REMARK                         _______ _______ _______ _____ _____    ______ ____
ROOT
ATOM      1  C   UNL     1      -0.658  12.593  21.700  0.00  0.00    +0.000 A 
ATOM      2  C   UNL     1       0.140  12.831  20.634  0.00  0.00    +0.000 A 
ATOM      3  C   UNL     1       0.783  11.722  19.965  0.00  0.00    +0.000 A 
ATOM      4  C   UNL     1       0.609  10.467  20.393  0.00  0.00    +0.000 A 
ATOM      5  O   UNL     1      -0.234  10.184  21.486  0.00  0.00    +0.000 OA
ATOM      6  C   UNL     1      -0.874  11.188  22.164  0.00  0.00    +0.000 A 
ATOM      7  O   UNL     1      -1.600  10.936  23.121  0.00  0.00    +0.000 OA
ENDROOT
BRANCH   1  11
ATOM      8  C   UNL     1      -2.542  15.878  23.677  0.00  0.00    +0.000 A 
ATOM      9  C   UNL     1      -3.213  15.211  22.650  0.00  0.00    +0.000 A 
ATOM     10  C   UNL     1      -2.610  14.115  22.030  0.00  0.00    +0.000 A 
ATOM     11  C   UNL     1      -1.332  13.693  22.425  0.00  0.00    +0.000 A 
ATOM     12  C   UNL     1      -0.673  14.365  23.465  0.00  0.00    +0.000 A 
ATOM     13  C   UNL     1      -1.272  15.464  24.088  0.00  0.00    +0.000 A 
BRANCH   8  15
ATOM     14  C   UNL     1      -4.940  16.840  24.743  0.00  0.00    +0.000 C 
ATOM     15  S   UNL     1      -3.272  17.331  24.399  0.00  0.00    +0.000 S 
ATOM     16  O   UNL     1      -3.309  18.354  23.370  0.00  0.00    +0.000 OA
ATOM     17  O   UNL     1      -2.604  17.576  25.663  0.00  0.00    +0.000 OA
ENDBRANCH   8  15
ENDBRANCH   1  11
BRANCH   2  18
ATOM     18  C   UNL     1       0.395  14.201  20.138  0.00  0.00    +0.000 A 
ATOM     19  C   UNL     1       1.514  14.914  20.586  0.00  0.00    +0.000 A 
ATOM     20  C   UNL     1       1.783  16.187  20.083  0.00  0.00    +0.000 A 
ATOM     21  C   UNL     1       0.944  16.748  19.120  0.00  0.00    +0.000 A 
ATOM     22  C   UNL     1      -0.165  16.037  18.660  0.00  0.00    +0.000 A 
ATOM     23  C   UNL     1      -0.438  14.766  19.165  0.00  0.00    +0.000 A 
ENDBRANCH   2  18
BRANCH   4  24
ATOM     24  C   UNL     1       1.268   9.301  19.772  0.00  0.00    +0.000 A 
ATOM     25  C   UNL     1       1.662   9.324  18.424  0.00  0.00    +0.000 A 
ATOM     26  C   UNL     1       2.295   8.225  17.836  0.00  0.00    +0.000 A 
ATOM     27  C   UNL     1       2.562   7.074  18.584  0.00  0.00    +0.000 A 
ATOM     28  C   UNL     1       2.177   7.046  19.933  0.00  0.00    +0.000 A 
ATOM     29  C   UNL     1       1.541   8.148  20.520  0.00  0.00    +0.000 A 
BRANCH  27  30
ATOM     30  C   UNL     1       3.262   5.890  17.963  0.00  0.00    +0.000 C 
ATOM     31  F   UNL     1       4.051   6.221  16.902  0.00  0.00    +0.000 F 
ATOM     32  F   UNL     1       4.076   5.244  18.844  0.00  0.00    +0.000 F 
ATOM     33  F   UNL     1       2.390   4.952  17.500  0.00  0.00    +0.000 F 
ENDBRANCH  27  30
ENDBRANCH   4  24
TORSDOF 5
ENDMDL
