MODEL 1
REMARK VINA RESULT:      -7.6      0.000      0.000
REMARK  Name = 
REMARK  8 active torsions:
REMARK  status: ('A' for Active; 'I' for Inactive)
REMARK    1  A    between atoms: C_1  and  C_2
REMARK    2  A    between atoms: C_4  and  C_5
REMARK    3  A    between atoms: N_10  and  C_11
REMARK    4  A    between atoms: C_11  and  C_12
REMARK    5  A    between atoms: C_14  and  C_15
REMARK    6  A    between atoms: C_15  and  C_16
REMARK    7  A    between atoms: C_15  and  C_17
REMARK    8  A    between atoms: C_15  and  C_18
REMARK                            x       y       z     vdW  Elec       q    Type
REMARK                         _______ _______ _______ _____ _____    ______ ____
ROOT
ATOM      1  C   UNL     1       3.645   3.564  19.105  0.00  0.00    +0.000 C 
ATOM      2  C   UNL     1       3.085   2.309  18.406  0.00  0.00    +0.000 C 
ATOM      3  C   UNL     1       1.767   1.856  19.020  0.00  0.00    +0.000 C 
ATOM      4  C   UNL     1       0.772   3.008  19.031  0.00  0.00    +0.000 C 
ATOM      5  C   UNL     1       1.367   4.234  19.723  0.00  0.00    +0.000 C 
ATOM      6  N   UNL     1       2.633   4.656  19.102  0.00  0.00    +0.000 NA
ENDROOT
BRANCH   1  10
ATOM      7  C   UNL     1       7.065   4.865  15.723  0.00  0.00    +0.000 C 
ATOM      8  C   UNL     1       6.307   4.500  16.931  0.00  0.00    +0.000 A 
ATOM      9  N   UNL     1       5.054   4.128  17.055  0.00  0.00    +0.000 NA
ATOM     10  C   UNL     1       4.933   3.967  18.419  0.00  0.00    +0.000 A 
ATOM     11  N   UNL     1       6.061   4.200  19.107  0.00  0.00    +0.000 NA
ATOM     12  O   UNL     1       6.977   4.558  18.117  0.00  0.00    +0.000 OA
ENDBRANCH   1  10
BRANCH   6  13
ATOM     13  C   UNL     1       3.121   5.913  19.721  0.00  0.00    +0.000 C 
BRANCH  13  14
ATOM     14  C   UNL     1       2.529   7.185  19.196  0.00  0.00    +0.000 A 
ATOM     15  N   UNL     1       1.767   8.057  19.825  0.00  0.00    +0.000 NA
ATOM     16  C   UNL     1       1.481   9.010  18.871  0.00  0.00    +0.000 A 
ATOM     17  C   UNL     1       2.138   8.683  17.702  0.00  0.00    +0.000 A 
ATOM     18  O   UNL     1       2.801   7.511  17.896  0.00  0.00    +0.000 OA
BRANCH  16  19
ATOM     19  C   UNL     1       0.573  10.175  19.183  0.00  0.00    +0.000 C 
ATOM     20  C   UNL     1       0.080  10.086  20.638  0.00  0.00    +0.000 C 
ATOM     21  C   UNL     1       1.309  11.514  18.983  0.00  0.00    +0.000 C 
ATOM     22  C   UNL     1      -0.654  10.165  18.246  0.00  0.00    +0.000 C 
ENDBRANCH  16  19
ENDBRANCH  13  14
ENDBRANCH   6  13
TORSDOF 4
ENDMDL
MODEL 2
REMARK VINA RESULT:      -7.5      1.221      1.612
REMARK  Name = 
REMARK  8 active torsions:
REMARK  status: ('A' for Active; 'I' for Inactive)
REMARK    1  A    between atoms: C_1  and  C_2
REMARK    2  A    between atoms: C_4  and  C_5
REMARK    3  A    between atoms: N_10  and  C_11
REMARK    4  A    between atoms: C_11  and  C_12
REMARK    5  A    between atoms: C_14  and  C_15
REMARK    6  A    between atoms: C_15  and  C_16
REMARK    7  A    between atoms: C_15  and  C_17
REMARK    8  A    between atoms: C_15  and  C_18
REMARK                            x       y       z     vdW  Elec       q    Type
REMARK                         _______ _______ _______ _____ _____    ______ ____
ROOT
ATOM      1  C   UNL     1       4.371   4.163  18.969  0.00  0.00    +0.000 C 
ATOM      2  C   UNL     1       4.445   3.048  17.905  0.00  0.00    +0.000 C 
ATOM      3  C   UNL     1       3.232   2.129  17.959  0.00  0.00    +0.000 C 
ATOM      4  C   UNL     1       1.951   2.946  17.857  0.00  0.00    +0.000 C 
ATOM      5  C   UNL     1       1.921   4.044  18.919  0.00  0.00    +0.000 C 
ATOM      6  N   UNL     1       3.098   4.923  18.836  0.00  0.00    +0.000 NA
ENDROOT
BRANCH   1  10
ATOM      7  C   UNL     1       7.701   7.512  17.381  0.00  0.00    +0.000 C 
ATOM      8  C   UNL     1       6.938   6.469  18.085  0.00  0.00    +0.000 A 
ATOM      9  N   UNL     1       5.796   5.906  17.769  0.00  0.00    +0.000 NA
ATOM     10  C   UNL     1       5.591   5.047  18.828  0.00  0.00    +0.000 A 
ATOM     11  N   UNL     1       6.572   5.054  19.745  0.00  0.00    +0.000 NA
ATOM     12  O   UNL     1       7.468   6.003  19.252  0.00  0.00    +0.000 OA
ENDBRANCH   1  10
BRANCH   6  13
ATOM     13  C   UNL     1       2.979   6.043  19.802  0.00  0.00    +0.000 C 
BRANCH  13  14
ATOM     14  C   UNL     1       2.405   7.321  19.269  0.00  0.00    +0.000 A 
ATOM     15  N   UNL     1       1.678   8.221  19.900  0.00  0.00    +0.000 NA
ATOM     16  C   UNL     1       1.394   9.165  18.937  0.00  0.00    +0.000 A 
ATOM     17  C   UNL     1       2.016   8.805  17.760  0.00  0.00    +0.000 A 
ATOM     18  O   UNL     1       2.656   7.620  17.958  0.00  0.00    +0.000 OA
BRANCH  16  19
ATOM     19  C   UNL     1       0.520  10.356  19.250  0.00  0.00    +0.000 C 
ATOM     20  C   UNL     1       1.304  11.661  19.029  0.00  0.00    +0.000 C 
ATOM     21  C   UNL     1      -0.735  10.366  18.356  0.00  0.00    +0.000 C 
ATOM     22  C   UNL     1       0.052  10.306  20.720  0.00  0.00    +0.000 C 
ENDBRANCH  16  19
ENDBRANCH  13  14
ENDBRANCH   6  13
TORSDOF 4
ENDMDL
MODEL 3
REMARK VINA RESULT:      -7.5      1.416      1.868
REMARK  Name = 
REMARK  8 active torsions:
REMARK  status: ('A' for Active; 'I' for Inactive)
REMARK    1  A    between atoms: C_1  and  C_2
REMARK    2  A    between atoms: C_4  and  C_5
REMARK    3  A    between atoms: N_10  and  C_11
REMARK    4  A    between atoms: C_11  and  C_12
REMARK    5  A    between atoms: C_14  and  C_15
REMARK    6  A    between atoms: C_15  and  C_16
REMARK    7  A    between atoms: C_15  and  C_17
REMARK    8  A    between atoms: C_15  and  C_18
REMARK                            x       y       z     vdW  Elec       q    Type
REMARK                         _______ _______ _______ _____ _____    ______ ____
ROOT
ATOM      1  C   UNL     1       4.013   4.424  18.326  0.00  0.00    +0.000 C 
ATOM      2  C   UNL     1       3.775   3.293  17.304  0.00  0.00    +0.000 C 
ATOM      3  C   UNL     1       2.803   2.246  17.831  0.00  0.00    +0.000 C 
ATOM      4  C   UNL     1       1.508   2.910  18.275  0.00  0.00    +0.000 C 
ATOM      5  C   UNL     1       1.786   4.029  19.277  0.00  0.00    +0.000 C 
ATOM      6  N   UNL     1       2.717   5.032  18.737  0.00  0.00    +0.000 NA
ENDROOT
BRANCH   1  10
ATOM      7  C   UNL     1       7.772   7.598  17.540  0.00  0.00    +0.000 C 
ATOM      8  C   UNL     1       6.567   6.756  17.474  0.00  0.00    +0.000 A 
ATOM      9  N   UNL     1       6.038   5.975  18.386  0.00  0.00    +0.000 NA
ATOM     10  C   UNL     1       4.959   5.436  17.716  0.00  0.00    +0.000 A 
ATOM     11  N   UNL     1       4.808   5.881  16.459  0.00  0.00    +0.000 NA
ATOM     12  O   UNL     1       5.881   6.759  16.296  0.00  0.00    +0.000 OA
ENDBRANCH   1  10
BRANCH   6  13
ATOM     13  C   UNL     1       2.874   6.161  19.689  0.00  0.00    +0.000 C 
BRANCH  13  14
ATOM     14  C   UNL     1       2.274   7.469  19.271  0.00  0.00    +0.000 A 
ATOM     15  N   UNL     1       1.506   8.281  19.968  0.00  0.00    +0.000 NA
ATOM     16  C   UNL     1       1.216   9.309  19.097  0.00  0.00    +0.000 A 
ATOM     17  C   UNL     1       1.877   9.085  17.907  0.00  0.00    +0.000 A 
ATOM     18  O   UNL     1       2.547   7.904  18.003  0.00  0.00    +0.000 OA
BRANCH  16  19
ATOM     19  C   UNL     1       0.299  10.437  19.504  0.00  0.00    +0.000 C 
ATOM     20  C   UNL     1      -0.889  10.531  18.530  0.00  0.00    +0.000 C 
ATOM     21  C   UNL     1      -0.237  10.221  20.932  0.00  0.00    +0.000 C 
ATOM     22  C   UNL     1       1.060  11.780  19.482  0.00  0.00    +0.000 C 
ENDBRANCH  16  19
ENDBRANCH  13  14
ENDBRANCH   6  13
TORSDOF 4
ENDMDL
MODEL 4
REMARK VINA RESULT:      -7.4      3.577      5.777
REMARK  Name = 
REMARK  8 active torsions:
REMARK  status: ('A' for Active; 'I' for Inactive)
REMARK    1  A    between atoms: C_1  and  C_2
REMARK    2  A    between atoms: C_4  and  C_5
REMARK    3  A    between atoms: N_10  and  C_11
REMARK    4  A    between atoms: C_11  and  C_12
REMARK    5  A    between atoms: C_14  and  C_15
REMARK    6  A    between atoms: C_15  and  C_16
REMARK    7  A    between atoms: C_15  and  C_17
REMARK    8  A    between atoms: C_15  and  C_18
REMARK                            x       y       z     vdW  Elec       q    Type
REMARK                         _______ _______ _______ _____ _____    ______ ____
ROOT
ATOM      1  C   UNL     1       6.460   5.611  16.375  0.00  0.00    +0.000 C 
ATOM      2  C   UNL     1       7.626   6.588  16.633  0.00  0.00    +0.000 C 
ATOM      3  C   UNL     1       7.577   7.172  18.038  0.00  0.00    +0.000 C 
ATOM      4  C   UNL     1       7.516   6.054  19.069  0.00  0.00    +0.000 C 
ATOM      5  C   UNL     1       6.357   5.104  18.773  0.00  0.00    +0.000 C 
ATOM      6  N   UNL     1       6.436   4.546  17.414  0.00  0.00    +0.000 NA
ENDROOT
BRANCH   1  10
ATOM      7  C   UNL     1       5.713   3.160  12.102  0.00  0.00    +0.000 C 
ATOM      8  C   UNL     1       6.210   3.981  13.217  0.00  0.00    +0.000 A 
ATOM      9  N   UNL     1       5.715   4.149  14.422  0.00  0.00    +0.000 NA
ATOM     10  C   UNL     1       6.598   5.052  14.975  0.00  0.00    +0.000 A 
ATOM     11  N   UNL     1       7.609   5.407  14.166  0.00  0.00    +0.000 NA
ATOM     12  O   UNL     1       7.349   4.696  12.993  0.00  0.00    +0.000 OA
ENDBRANCH   1  10
BRANCH   6  13
ATOM     13  C   UNL     1       5.363   3.542  17.202  0.00  0.00    +0.000 C 
BRANCH  13  14
ATOM     14  C   UNL     1       4.467   3.272  18.372  0.00  0.00    +0.000 A 
ATOM     15  N   UNL     1       3.210   3.629  18.545  0.00  0.00    +0.000 NA
ATOM     16  C   UNL     1       2.890   3.155  19.799  0.00  0.00    +0.000 A 
ATOM     17  C   UNL     1       3.978   2.480  20.312  0.00  0.00    +0.000 A 
ATOM     18  O   UNL     1       4.997   2.560  19.413  0.00  0.00    +0.000 OA
BRANCH  16  19
ATOM     19  C   UNL     1       1.530   3.410  20.402  0.00  0.00    +0.000 C 
ATOM     20  C   UNL     1       0.428   2.891  19.462  0.00  0.00    +0.000 C 
ATOM     21  C   UNL     1       1.396   2.710  21.768  0.00  0.00    +0.000 C 
ATOM     22  C   UNL     1       1.316   4.922  20.623  0.00  0.00    +0.000 C 
ENDBRANCH  16  19
ENDBRANCH  13  14
ENDBRANCH   6  13
TORSDOF 4
ENDMDL
MODEL 5
REMARK VINA RESULT:      -7.4      0.989      1.590
REMARK  Name = 
REMARK  8 active torsions:
REMARK  status: ('A' for Active; 'I' for Inactive)
REMARK    1  A    between atoms: C_1  and  C_2
REMARK    2  A    between atoms: C_4  and  C_5
REMARK    3  A    between atoms: N_10  and  C_11
REMARK    4  A    between atoms: C_11  and  C_12
REMARK    5  A    between atoms: C_14  and  C_15
REMARK    6  A    between atoms: C_15  and  C_16
REMARK    7  A    between atoms: C_15  and  C_17
REMARK    8  A    between atoms: C_15  and  C_18
REMARK                            x       y       z     vdW  Elec       q    Type
REMARK                         _______ _______ _______ _____ _____    ______ ____
ROOT
ATOM      1  C   UNL     1       3.641   3.788  19.203  0.00  0.00    +0.000 C 
ATOM      2  C   UNL     1       3.429   2.589  18.256  0.00  0.00    +0.000 C 
ATOM      3  C   UNL     1       2.202   1.773  18.640  0.00  0.00    +0.000 C 
ATOM      4  C   UNL     1       0.978   2.673  18.720  0.00  0.00    +0.000 C 
ATOM      5  C   UNL     1       1.231   3.853  19.658  0.00  0.00    +0.000 C 
ATOM      6  N   UNL     1       2.415   4.630  19.257  0.00  0.00    +0.000 NA
ENDROOT
BRANCH   1  10
ATOM      7  C   UNL     1       8.034   6.130  18.986  0.00  0.00    +0.000 C 
ATOM      8  C   UNL     1       6.711   5.534  18.738  0.00  0.00    +0.000 A 
ATOM      9  N   UNL     1       5.898   4.920  19.566  0.00  0.00    +0.000 NA
ATOM     10  C   UNL     1       4.855   4.563  18.738  0.00  0.00    +0.000 A 
ATOM     11  N   UNL     1       4.999   4.958  17.463  0.00  0.00    +0.000 NA
ATOM     12  O   UNL     1       6.237   5.603  17.462  0.00  0.00    +0.000 OA
ENDBRANCH   1  10
BRANCH   6  13
ATOM     13  C   UNL     1       2.563   5.830  20.117  0.00  0.00    +0.000 C 
BRANCH  13  14
ATOM     14  C   UNL     1       2.226   7.146  19.484  0.00  0.00    +0.000 A 
ATOM     15  N   UNL     1       1.574   8.166  20.006  0.00  0.00    +0.000 NA
ATOM     16  C   UNL     1       1.517   9.092  18.986  0.00  0.00    +0.000 A 
ATOM     17  C   UNL     1       2.193   8.593  17.892  0.00  0.00    +0.000 A 
ATOM     18  O   UNL     1       2.640   7.344  18.195  0.00  0.00    +0.000 OA
BRANCH  16  19
ATOM     19  C   UNL     1       0.792  10.403  19.167  0.00  0.00    +0.000 C 
ATOM     20  C   UNL     1       1.646  11.560  18.619  0.00  0.00    +0.000 C 
ATOM     21  C   UNL     1      -0.563  10.387  18.432  0.00  0.00    +0.000 C 
ATOM     22  C   UNL     1       0.514  10.661  20.663  0.00  0.00    +0.000 C 
ENDBRANCH  16  19
ENDBRANCH  13  14
ENDBRANCH   6  13
TORSDOF 4
ENDMDL
MODEL 6
REMARK VINA RESULT:      -7.4      3.384      5.503
REMARK  Name = 
REMARK  8 active torsions:
REMARK  status: ('A' for Active; 'I' for Inactive)
REMARK    1  A    between atoms: C_1  and  C_2
REMARK    2  A    between atoms: C_4  and  C_5
REMARK    3  A    between atoms: N_10  and  C_11
REMARK    4  A    between atoms: C_11  and  C_12
REMARK    5  A    between atoms: C_14  and  C_15
REMARK    6  A    between atoms: C_15  and  C_16
REMARK    7  A    between atoms: C_15  and  C_17
REMARK    8  A    between atoms: C_15  and  C_18
REMARK                            x       y       z     vdW  Elec       q    Type
REMARK                         _______ _______ _______ _____ _____    ______ ____
ROOT
ATOM      1  C   UNL     1       6.728   5.503  16.712  0.00  0.00    +0.000 C 
ATOM      2  C   UNL     1       7.515   5.179  15.425  0.00  0.00    +0.000 C 
ATOM      3  C   UNL     1       6.837   4.089  14.604  0.00  0.00    +0.000 C 
ATOM      4  C   UNL     1       5.391   4.469  14.321  0.00  0.00    +0.000 C 
ATOM      5  C   UNL     1       4.649   4.793  15.617  0.00  0.00    +0.000 C 
ATOM      6  N   UNL     1       5.319   5.857  16.383  0.00  0.00    +0.000 NA
ENDROOT
BRANCH   1  10
ATOM      7  C   UNL     1       8.622   9.906  18.074  0.00  0.00    +0.000 C 
ATOM      8  C   UNL     1       8.212   8.499  17.943  0.00  0.00    +0.000 A 
ATOM      9  N   UNL     1       7.551   7.903  16.977  0.00  0.00    +0.000 NA
ATOM     10  C   UNL     1       7.445   6.612  17.450  0.00  0.00    +0.000 A 
ATOM     11  N   UNL     1       8.035   6.408  18.639  0.00  0.00    +0.000 NA
ATOM     12  O   UNL     1       8.543   7.665  18.969  0.00  0.00    +0.000 OA
ENDBRANCH   1  10
BRANCH   6  13
ATOM     13  C   UNL     1       4.513   6.225  17.574  0.00  0.00    +0.000 C 
BRANCH  13  14
ATOM     14  C   UNL     1       4.046   5.092  18.435  0.00  0.00    +0.000 A 
ATOM     15  N   UNL     1       2.815   4.778  18.785  0.00  0.00    +0.000 NA
ATOM     16  C   UNL     1       2.962   3.679  19.604  0.00  0.00    +0.000 A 
ATOM     17  C   UNL     1       4.300   3.348  19.671  0.00  0.00    +0.000 A 
ATOM     18  O   UNL     1       5.004   4.253  18.937  0.00  0.00    +0.000 OA
BRANCH  16  19
ATOM     19  C   UNL     1       1.767   3.038  20.267  0.00  0.00    +0.000 C 
ATOM     20  C   UNL     1       2.152   2.519  21.664  0.00  0.00    +0.000 C 
ATOM     21  C   UNL     1       0.611   4.047  20.408  0.00  0.00    +0.000 C 
ATOM     22  C   UNL     1       1.258   1.850  19.424  0.00  0.00    +0.000 C 
ENDBRANCH  16  19
ENDBRANCH  13  14
ENDBRANCH   6  13
TORSDOF 4
ENDMDL
MODEL 7
REMARK VINA RESULT:      -7.3      1.083      1.304
REMARK  Name = 
REMARK  8 active torsions:
REMARK  status: ('A' for Active; 'I' for Inactive)
REMARK    1  A    between atoms: C_1  and  C_2
REMARK    2  A    between atoms: C_4  and  C_5
REMARK    3  A    between atoms: N_10  and  C_11
REMARK    4  A    between atoms: C_11  and  C_12
REMARK    5  A    between atoms: C_14  and  C_15
REMARK    6  A    between atoms: C_15  and  C_16
REMARK    7  A    between atoms: C_15  and  C_17
REMARK    8  A    between atoms: C_15  and  C_18
REMARK                            x       y       z     vdW  Elec       q    Type
REMARK                         _______ _______ _______ _____ _____    ______ ____
ROOT
ATOM      1  C   UNL     1       3.679   4.105  18.836  0.00  0.00    +0.000 C 
ATOM      2  C   UNL     1       3.409   2.913  17.894  0.00  0.00    +0.000 C 
ATOM      3  C   UNL     1       2.288   2.022  18.413  0.00  0.00    +0.000 C 
ATOM      4  C   UNL     1       1.039   2.850  18.675  0.00  0.00    +0.000 C 
ATOM      5  C   UNL     1       1.349   4.025  19.602  0.00  0.00    +0.000 C 
ATOM      6  N   UNL     1       2.427   4.875  19.070  0.00  0.00    +0.000 NA
ENDROOT
BRANCH   1  10
ATOM      7  C   UNL     1       7.810   6.804  18.148  0.00  0.00    +0.000 C 
ATOM      8  C   UNL     1       6.533   6.082  18.038  0.00  0.00    +0.000 A 
ATOM      9  N   UNL     1       5.845   5.447  18.958  0.00  0.00    +0.000 NA
ATOM     10  C   UNL     1       4.778   4.955  18.236  0.00  0.00    +0.000 A 
ATOM     11  N   UNL     1       4.787   5.290  16.937  0.00  0.00    +0.000 NA
ATOM     12  O   UNL     1       5.957   6.039  16.803  0.00  0.00    +0.000 OA
ENDBRANCH   1  10
BRANCH   6  13
ATOM     13  C   UNL     1       2.623   6.066  19.934  0.00  0.00    +0.000 C 
BRANCH  13  14
ATOM     14  C   UNL     1       2.177   7.378  19.366  0.00  0.00    +0.000 A 
ATOM     15  N   UNL     1       1.503   8.344  19.958  0.00  0.00    +0.000 NA
ATOM     16  C   UNL     1       1.334   9.295  18.975  0.00  0.00    +0.000 A 
ATOM     17  C   UNL     1       1.970   8.868  17.827  0.00  0.00    +0.000 A 
ATOM     18  O   UNL     1       2.501   7.637  18.062  0.00  0.00    +0.000 OA
BRANCH  16  19
ATOM     19  C   UNL     1       0.551  10.557  19.240  0.00  0.00    +0.000 C 
ATOM     20  C   UNL     1       0.176  10.645  20.730  0.00  0.00    +0.000 C 
ATOM     21  C   UNL     1       1.370  11.804  18.855  0.00  0.00    +0.000 C 
ATOM     22  C   UNL     1      -0.747  10.568  18.405  0.00  0.00    +0.000 C 
ENDBRANCH  16  19
ENDBRANCH  13  14
ENDBRANCH   6  13
TORSDOF 4
ENDMDL
MODEL 8
REMARK VINA RESULT:      -7.2      1.247      1.589
REMARK  Name = 
REMARK  8 active torsions:
REMARK  status: ('A' for Active; 'I' for Inactive)
REMARK    1  A    between atoms: C_1  and  C_2
REMARK    2  A    between atoms: C_4  and  C_5
REMARK    3  A    between atoms: N_10  and  C_11
REMARK    4  A    between atoms: C_11  and  C_12
REMARK    5  A    between atoms: C_14  and  C_15
REMARK    6  A    between atoms: C_15  and  C_16
REMARK    7  A    between atoms: C_15  and  C_17
REMARK    8  A    between atoms: C_15  and  C_18
REMARK                            x       y       z     vdW  Elec       q    Type
REMARK                         _______ _______ _______ _____ _____    ______ ____
ROOT
ATOM      1  C   UNL     1       4.189   4.196  17.931  0.00  0.00    +0.000 C 
ATOM      2  C   UNL     1       3.548   2.842  17.562  0.00  0.00    +0.000 C 
ATOM      3  C   UNL     1       2.288   2.570  18.374  0.00  0.00    +0.000 C 
ATOM      4  C   UNL     1       1.314   3.731  18.235  0.00  0.00    +0.000 C 
ATOM      5  C   UNL     1       1.988   5.053  18.599  0.00  0.00    +0.000 C 
ATOM      6  N   UNL     1       3.195   5.296  17.791  0.00  0.00    +0.000 NA
ENDROOT
BRANCH   1  10
ATOM      7  C   UNL     1       7.249   4.921  14.067  0.00  0.00    +0.000 C 
ATOM      8  C   UNL     1       6.624   4.702  15.381  0.00  0.00    +0.000 A 
ATOM      9  N   UNL     1       5.364   4.496  15.687  0.00  0.00    +0.000 NA
ATOM     10  C   UNL     1       5.410   4.406  17.062  0.00  0.00    +0.000 A 
ATOM     11  N   UNL     1       6.641   4.523  17.584  0.00  0.00    +0.000 NA
ATOM     12  O   UNL     1       7.450   4.723  16.465  0.00  0.00    +0.000 OA
ENDBRANCH   1  10
BRANCH   6  13
ATOM     13  C   UNL     1       3.756   6.637  18.088  0.00  0.00    +0.000 C 
BRANCH  13  14
ATOM     14  C   UNL     1       2.764   7.730  18.343  0.00  0.00    +0.000 A 
ATOM     15  N   UNL     1       2.128   8.019  19.461  0.00  0.00    +0.000 NA
ATOM     16  C   UNL     1       1.320   9.084  19.129  0.00  0.00    +0.000 A 
ATOM     17  C   UNL     1       1.549   9.424  17.811  0.00  0.00    +0.000 A 
ATOM     18  O   UNL     1       2.461   8.556  17.296  0.00  0.00    +0.000 OA
BRANCH  16  19
ATOM     19  C   UNL     1       0.374   9.687  20.139  0.00  0.00    +0.000 C 
ATOM     20  C   UNL     1       1.012  10.929  20.786  0.00  0.00    +0.000 C 
ATOM     21  C   UNL     1      -0.954  10.095  19.472  0.00  0.00    +0.000 C 
ATOM     22  C   UNL     1       0.051   8.664  21.249  0.00  0.00    +0.000 C 
ENDBRANCH  16  19
ENDBRANCH  13  14
ENDBRANCH   6  13
TORSDOF 4
ENDMDL
MODEL 9
REMARK VINA RESULT:      -7.1      3.392      5.576
REMARK  Name = 
REMARK  8 active torsions:
REMARK  status: ('A' for Active; 'I' for Inactive)
REMARK    1  A    between atoms: C_1  and  C_2
REMARK    2  A    between atoms: C_4  and  C_5
REMARK    3  A    between atoms: N_10  and  C_11
REMARK    4  A    between atoms: C_11  and  C_12
REMARK    5  A    between atoms: C_14  and  C_15
REMARK    6  A    between atoms: C_15  and  C_16
REMARK    7  A    between atoms: C_15  and  C_17
REMARK    8  A    between atoms: C_15  and  C_18
REMARK                            x       y       z     vdW  Elec       q    Type
REMARK                         _______ _______ _______ _____ _____    ______ ____
ROOT
ATOM      1  C   UNL     1       6.557   5.698  16.345  0.00  0.00    +0.000 C 
ATOM      2  C   UNL     1       7.609   6.823  16.441  0.00  0.00    +0.000 C 
ATOM      3  C   UNL     1       7.628   7.466  17.822  0.00  0.00    +0.000 C 
ATOM      4  C   UNL     1       7.816   6.402  18.893  0.00  0.00    +0.000 C 
ATOM      5  C   UNL     1       6.763   5.303  18.758  0.00  0.00    +0.000 C 
ATOM      6  N   UNL     1       6.775   4.691  17.420  0.00  0.00    +0.000 NA
ENDROOT
BRANCH   1  10
ATOM      7  C   UNL     1       5.537   3.194  12.160  0.00  0.00    +0.000 C 
ATOM      8  C   UNL     1       6.118   4.005  13.242  0.00  0.00    +0.000 A 
ATOM      9  N   UNL     1       5.662   4.244  14.450  0.00  0.00    +0.000 NA
ATOM     10  C   UNL     1       6.623   5.091  14.960  0.00  0.00    +0.000 A 
ATOM     11  N   UNL     1       7.641   5.345  14.123  0.00  0.00    +0.000 NA
ATOM     12  O   UNL     1       7.303   4.624  12.976  0.00  0.00    +0.000 OA
ENDBRANCH   1  10
BRANCH   6  13
ATOM     13  C   UNL     1       5.824   3.553  17.360  0.00  0.00    +0.000 C 
BRANCH  13  14
ATOM     14  C   UNL     1       4.454   3.805  17.912  0.00  0.00    +0.000 A 
ATOM     15  N   UNL     1       4.011   3.607  19.137  0.00  0.00    +0.000 NA
ATOM     16  C   UNL     1       2.683   3.970  19.084  0.00  0.00    +0.000 A 
ATOM     17  C   UNL     1       2.395   4.424  17.813  0.00  0.00    +0.000 A 
ATOM     18  O   UNL     1       3.518   4.312  17.052  0.00  0.00    +0.000 OA
BRANCH  16  19
ATOM     19  C   UNL     1       1.791   3.835  20.294  0.00  0.00    +0.000 C 
ATOM     20  C   UNL     1       1.432   5.227  20.844  0.00  0.00    +0.000 C 
ATOM     21  C   UNL     1       0.493   3.086  19.938  0.00  0.00    +0.000 C 
ATOM     22  C   UNL     1       2.508   3.037  21.403  0.00  0.00    +0.000 C 
ENDBRANCH  16  19
ENDBRANCH  13  14
ENDBRANCH   6  13
TORSDOF 4
ENDMDL
