MODEL 1
REMARK VINA RESULT:      -8.8      0.000      0.000
REMARK  Name = 
REMARK  9 active torsions:
REMARK  status: ('A' for Active; 'I' for Inactive)
REMARK    1  A    between atoms: C_1  and  C_2
REMARK    2  A    between atoms: N_4  and  C_5
REMARK    3  A    between atoms: C_8  and  S_9
REMARK    4  A    between atoms: S_9  and  N_12
REMARK    5  A    between atoms: N_12  and  C_13
REMARK    6  A    between atoms: N_12  and  C_20
REMARK    7  A    between atoms: C_13  and  C_14
REMARK    8  A    between atoms: C_23  and  O_24
REMARK    9  A    between atoms: O_24  and  C_25
REMARK                            x       y       z     vdW  Elec       q    Type
REMARK                         _______ _______ _______ _____ _____    ______ ____
ROOT
ATOM      1  N   UNL     1      -0.221  10.529  19.521  0.00  0.00    +0.000 N 
ENDROOT
BRANCH   1   2
ATOM      2  C   UNL     1       0.733   9.491  19.244  0.00  0.00    +0.000 A 
ATOM      3  C   UNL     1       1.117   8.564  20.215  0.00  0.00    +0.000 A 
ATOM      4  C   UNL     1       2.109   7.613  19.931  0.00  0.00    +0.000 A 
ATOM      5  C   UNL     1       2.705   7.565  18.666  0.00  0.00    +0.000 A 
ATOM      6  C   UNL     1       2.308   8.485  17.692  0.00  0.00    +0.000 A 
ATOM      7  C   UNL     1       1.312   9.428  17.973  0.00  0.00    +0.000 A 
BRANCH   5   8
ATOM      8  O   UNL     1       3.713   6.639  18.489  0.00  0.00    +0.000 OA
BRANCH   8   9
ATOM      9  C   UNL     1       3.402   5.329  18.187  0.00  0.00    +0.000 A 
ATOM     10  C   UNL     1       2.044   5.011  18.075  0.00  0.00    +0.000 A 
ATOM     11  C   UNL     1       1.652   3.711  17.740  0.00  0.00    +0.000 A 
ATOM     12  C   UNL     1       2.614   2.726  17.514  0.00  0.00    +0.000 A 
ATOM     13  C   UNL     1       3.967   3.043  17.611  0.00  0.00    +0.000 A 
ATOM     14  C   UNL     1       4.359   4.345  17.920  0.00  0.00    +0.000 A 
ENDBRANCH   8   9
ENDBRANCH   5   8
ENDBRANCH   1   2
BRANCH   1  15
ATOM     15  S   UNL     1       0.324  11.952  20.273  0.00  0.00    +0.000 S 
ATOM     16  O   UNL     1       0.522  12.939  19.224  0.00  0.00    +0.000 OA
ATOM     17  O   UNL     1       1.408  11.627  21.178  0.00  0.00    +0.000 OA
BRANCH  15  21
ATOM     18  C   UNL     1      -3.386  13.208  22.760  0.00  0.00    +0.000 A 
ATOM     19  C   UNL     1      -3.097  13.808  21.536  0.00  0.00    +0.000 A 
ATOM     20  C   UNL     1      -1.929  13.512  20.802  0.00  0.00    +0.000 A 
ATOM     21  C   UNL     1      -0.980  12.636  21.328  0.00  0.00    +0.000 A 
ATOM     22  C   UNL     1      -1.222  12.067  22.587  0.00  0.00    +0.000 A 
ATOM     23  C   UNL     1      -2.413  12.349  23.302  0.00  0.00    +0.000 A 
BRANCH  18  27
ATOM     24  C   UNL     1      -6.988  13.134  24.001  0.00  0.00    +0.000 C 
ATOM     25  C   UNL     1      -5.857  12.870  23.038  0.00  0.00    +0.000 C 
ATOM     26  O   UNL     1      -6.089  12.262  21.994  0.00  0.00    +0.000 OA
ATOM     27  N   UNL     1      -4.625  13.373  23.448  0.00  0.00    +0.000 N 
ATOM     28  H   UNL     1      -4.590  13.823  24.346  0.00  0.00    +0.000 HD
ENDBRANCH  18  27
ENDBRANCH  15  21
ENDBRANCH   1  15
BRANCH   1  29
ATOM     29  C   UNL     1      -1.657  10.236  19.397  0.00  0.00    +0.000 C 
BRANCH  29  30
ATOM     30  C   UNL     1      -2.358  10.598  18.094  0.00  0.00    +0.000 A 
ATOM     31  C   UNL     1      -2.040   9.942  16.889  0.00  0.00    +0.000 A 
ATOM     32  C   UNL     1      -2.853  10.080  15.758  0.00  0.00    +0.000 A 
ATOM     33  C   UNL     1      -3.987  10.890  15.803  0.00  0.00    +0.000 A 
ATOM     34  C   UNL     1      -4.276  11.602  16.963  0.00  0.00    +0.000 A 
ATOM     35  C   UNL     1      -3.458  11.472  18.093  0.00  0.00    +0.000 A 
ENDBRANCH  29  30
ENDBRANCH   1  29
TORSDOF 8
ENDMDL
MODEL 2
REMARK VINA RESULT:      -8.7      1.783      2.298
REMARK  Name = 
REMARK  9 active torsions:
REMARK  status: ('A' for Active; 'I' for Inactive)
REMARK    1  A    between atoms: C_1  and  C_2
REMARK    2  A    between atoms: N_4  and  C_5
REMARK    3  A    between atoms: C_8  and  S_9
REMARK    4  A    between atoms: S_9  and  N_12
REMARK    5  A    between atoms: N_12  and  C_13
REMARK    6  A    between atoms: N_12  and  C_20
REMARK    7  A    between atoms: C_13  and  C_14
REMARK    8  A    between atoms: C_23  and  O_24
REMARK    9  A    between atoms: O_24  and  C_25
REMARK                            x       y       z     vdW  Elec       q    Type
REMARK                         _______ _______ _______ _____ _____    ______ ____
ROOT
ATOM      1  N   UNL     1      -0.174  11.121  19.114  0.00  0.00    +0.000 N 
ENDROOT
BRANCH   1   2
ATOM      2  C   UNL     1       0.668   9.966  19.262  0.00  0.00    +0.000 A 
ATOM      3  C   UNL     1       1.378   9.429  18.185  0.00  0.00    +0.000 A 
ATOM      4  C   UNL     1       2.129   8.255  18.350  0.00  0.00    +0.000 A 
ATOM      5  C   UNL     1       2.197   7.625  19.596  0.00  0.00    +0.000 A 
ATOM      6  C   UNL     1       1.497   8.173  20.675  0.00  0.00    +0.000 A 
ATOM      7  C   UNL     1       0.755   9.348  20.512  0.00  0.00    +0.000 A 
BRANCH   5   8
ATOM      8  O   UNL     1       2.909   6.443  19.657  0.00  0.00    +0.000 OA
BRANCH   8   9
ATOM      9  C   UNL     1       2.255   5.236  19.520  0.00  0.00    +0.000 A 
ATOM     10  C   UNL     1       1.776   4.640  20.692  0.00  0.00    +0.000 A 
ATOM     11  C   UNL     1       1.075   3.430  20.629  0.00  0.00    +0.000 A 
ATOM     12  C   UNL     1       0.852   2.815  19.396  0.00  0.00    +0.000 A 
ATOM     13  C   UNL     1       1.316   3.413  18.227  0.00  0.00    +0.000 A 
ATOM     14  C   UNL     1       1.992   4.631  18.287  0.00  0.00    +0.000 A 
ENDBRANCH   8   9
ENDBRANCH   5   8
ENDBRANCH   1   2
BRANCH   1  15
ATOM     15  S   UNL     1       0.557  12.654  19.042  0.00  0.00    +0.000 S 
ATOM     16  O   UNL     1       0.033  13.320  17.862  0.00  0.00    +0.000 OA
ATOM     17  O   UNL     1       1.988  12.507  19.217  0.00  0.00    +0.000 OA
BRANCH  15  21
ATOM     18  C   UNL     1      -1.427  14.988  22.526  0.00  0.00    +0.000 A 
ATOM     19  C   UNL     1      -1.240  15.573  21.275  0.00  0.00    +0.000 A 
ATOM     20  C   UNL     1      -0.558  14.921  20.226  0.00  0.00    +0.000 A 
ATOM     21  C   UNL     1       0.014  13.667  20.441  0.00  0.00    +0.000 A 
ATOM     22  C   UNL     1      -0.111  13.085  21.711  0.00  0.00    +0.000 A 
ATOM     23  C   UNL     1      -0.822  13.737  22.749  0.00  0.00    +0.000 A 
BRANCH  18  27
ATOM     24  C   UNL     1      -4.216  16.111  24.867  0.00  0.00    +0.000 C 
ATOM     25  C   UNL     1      -3.626  15.479  23.631  0.00  0.00    +0.000 C 
ATOM     26  O   UNL     1      -4.378  14.966  22.803  0.00  0.00    +0.000 OA
ATOM     27  N   UNL     1      -2.238  15.558  23.552  0.00  0.00    +0.000 N 
ATOM     28  H   UNL     1      -1.758  15.984  24.326  0.00  0.00    +0.000 HD
ENDBRANCH  18  27
ENDBRANCH  15  21
ENDBRANCH   1  15
BRANCH   1  29
ATOM     29  C   UNL     1      -1.626  10.978  19.293  0.00  0.00    +0.000 C 
BRANCH  29  30
ATOM     30  C   UNL     1      -2.487  10.745  18.059  0.00  0.00    +0.000 A 
ATOM     31  C   UNL     1      -3.689  11.451  17.864  0.00  0.00    +0.000 A 
ATOM     32  C   UNL     1      -4.340  11.438  16.626  0.00  0.00    +0.000 A 
ATOM     33  C   UNL     1      -3.814  10.704  15.563  0.00  0.00    +0.000 A 
ATOM     34  C   UNL     1      -2.665   9.942  15.759  0.00  0.00    +0.000 A 
ATOM     35  C   UNL     1      -2.017   9.947  17.000  0.00  0.00    +0.000 A 
ENDBRANCH  29  30
ENDBRANCH   1  29
TORSDOF 8
ENDMDL
MODEL 3
REMARK VINA RESULT:      -8.7      3.875     10.908
REMARK  Name = 
REMARK  9 active torsions:
REMARK  status: ('A' for Active; 'I' for Inactive)
REMARK    1  A    between atoms: C_1  and  C_2
REMARK    2  A    between atoms: N_4  and  C_5
REMARK    3  A    between atoms: C_8  and  S_9
REMARK    4  A    between atoms: S_9  and  N_12
REMARK    5  A    between atoms: N_12  and  C_13
REMARK    6  A    between atoms: N_12  and  C_20
REMARK    7  A    between atoms: C_13  and  C_14
REMARK    8  A    between atoms: C_23  and  O_24
REMARK    9  A    between atoms: O_24  and  C_25
REMARK                            x       y       z     vdW  Elec       q    Type
REMARK                         _______ _______ _______ _____ _____    ______ ____
ROOT
ATOM      1  N   UNL     1       2.971   6.202  18.414  0.00  0.00    +0.000 N 
ENDROOT
BRANCH   1   2
ATOM      2  C   UNL     1       2.267   7.415  18.726  0.00  0.00    +0.000 A 
ATOM      3  C   UNL     1       2.020   8.394  17.760  0.00  0.00    +0.000 A 
ATOM      4  C   UNL     1       1.398   9.599  18.119  0.00  0.00    +0.000 A 
ATOM      5  C   UNL     1       0.994   9.824  19.438  0.00  0.00    +0.000 A 
ATOM      6  C   UNL     1       1.229   8.837  20.400  0.00  0.00    +0.000 A 
ATOM      7  C   UNL     1       1.842   7.631  20.040  0.00  0.00    +0.000 A 
BRANCH   5   8
ATOM      8  O   UNL     1       0.444  11.059  19.718  0.00  0.00    +0.000 OA
BRANCH   8   9
ATOM      9  C   UNL     1      -0.886  11.300  19.446  0.00  0.00    +0.000 A 
ATOM     10  C   UNL     1      -1.533  12.250  20.245  0.00  0.00    +0.000 A 
ATOM     11  C   UNL     1      -2.874  12.571  20.009  0.00  0.00    +0.000 A 
ATOM     12  C   UNL     1      -3.572  11.944  18.976  0.00  0.00    +0.000 A 
ATOM     13  C   UNL     1      -2.927  11.008  18.170  0.00  0.00    +0.000 A 
ATOM     14  C   UNL     1      -1.583  10.707  18.389  0.00  0.00    +0.000 A 
ENDBRANCH   8   9
ENDBRANCH   5   8
ENDBRANCH   1   2
BRANCH   1  15
ATOM     15  S   UNL     1       4.616   6.303  17.998  0.00  0.00    +0.000 S 
ATOM     16  O   UNL     1       5.358   5.590  19.025  0.00  0.00    +0.000 OA
ATOM     17  O   UNL     1       4.945   7.680  17.689  0.00  0.00    +0.000 OA
BRANCH  15  21
ATOM     18  C   UNL     1       6.044   3.967  14.254  0.00  0.00    +0.000 A 
ATOM     19  C   UNL     1       5.827   5.343  14.210  0.00  0.00    +0.000 A 
ATOM     20  C   UNL     1       5.306   6.064  15.306  0.00  0.00    +0.000 A 
ATOM     21  C   UNL     1       4.928   5.390  16.466  0.00  0.00    +0.000 A 
ATOM     22  C   UNL     1       5.082   3.996  16.509  0.00  0.00    +0.000 A 
ATOM     23  C   UNL     1       5.633   3.286  15.413  0.00  0.00    +0.000 A 
BRANCH  18  27
ATOM     24  C   UNL     1       7.085   2.117  11.089  0.00  0.00    +0.000 C 
ATOM     25  C   UNL     1       6.127   2.797  12.035  0.00  0.00    +0.000 C 
ATOM     26  O   UNL     1       4.943   2.903  11.715  0.00  0.00    +0.000 OA
ATOM     27  N   UNL     1       6.707   3.239  13.221  0.00  0.00    +0.000 N 
ATOM     28  H   UNL     1       7.698   3.105  13.324  0.00  0.00    +0.000 HD
ENDBRANCH  18  27
ENDBRANCH  15  21
ENDBRANCH   1  15
BRANCH   1  29
ATOM     29  C   UNL     1       2.208   4.963  18.204  0.00  0.00    +0.000 C 
BRANCH  29  30
ATOM     30  C   UNL     1       2.175   3.936  19.329  0.00  0.00    +0.000 A 
ATOM     31  C   UNL     1       3.277   3.097  19.582  0.00  0.00    +0.000 A 
ATOM     32  C   UNL     1       3.356   2.348  20.761  0.00  0.00    +0.000 A 
ATOM     33  C   UNL     1       2.327   2.407  21.701  0.00  0.00    +0.000 A 
ATOM     34  C   UNL     1       1.198   3.176  21.434  0.00  0.00    +0.000 A 
ATOM     35  C   UNL     1       1.113   3.919  20.250  0.00  0.00    +0.000 A 
ENDBRANCH  29  30
ENDBRANCH   1  29
TORSDOF 8
ENDMDL
MODEL 4
REMARK VINA RESULT:      -8.6      1.225      1.740
REMARK  Name = 
REMARK  9 active torsions:
REMARK  status: ('A' for Active; 'I' for Inactive)
REMARK    1  A    between atoms: C_1  and  C_2
REMARK    2  A    between atoms: N_4  and  C_5
REMARK    3  A    between atoms: C_8  and  S_9
REMARK    4  A    between atoms: S_9  and  N_12
REMARK    5  A    between atoms: N_12  and  C_13
REMARK    6  A    between atoms: N_12  and  C_20
REMARK    7  A    between atoms: C_13  and  C_14
REMARK    8  A    between atoms: C_23  and  O_24
REMARK    9  A    between atoms: O_24  and  C_25
REMARK                            x       y       z     vdW  Elec       q    Type
REMARK                         _______ _______ _______ _____ _____    ______ ____
ROOT
ATOM      1  N   UNL     1       0.525  11.775  19.160  0.00  0.00    +0.000 N 
ENDROOT
BRANCH   1   2
ATOM      2  C   UNL     1       1.079  10.449  19.165  0.00  0.00    +0.000 A 
ATOM      3  C   UNL     1       0.923   9.589  20.255  0.00  0.00    +0.000 A 
ATOM      4  C   UNL     1       1.543   8.330  20.256  0.00  0.00    +0.000 A 
ATOM      5  C   UNL     1       2.301   7.912  19.157  0.00  0.00    +0.000 A 
ATOM      6  C   UNL     1       2.444   8.769  18.062  0.00  0.00    +0.000 A 
ATOM      7  C   UNL     1       1.818  10.020  18.059  0.00  0.00    +0.000 A 
BRANCH   5   8
ATOM      8  O   UNL     1       2.925   6.685  19.265  0.00  0.00    +0.000 OA
BRANCH   8   9
ATOM      9  C   UNL     1       2.174   5.529  19.300  0.00  0.00    +0.000 A 
ATOM     10  C   UNL     1       2.005   4.847  18.090  0.00  0.00    +0.000 A 
ATOM     11  C   UNL     1       1.282   3.650  18.052  0.00  0.00    +0.000 A 
ATOM     12  C   UNL     1       0.728   3.131  19.223  0.00  0.00    +0.000 A 
ATOM     13  C   UNL     1       0.907   3.799  20.432  0.00  0.00    +0.000 A 
ATOM     14  C   UNL     1       1.649   4.979  20.473  0.00  0.00    +0.000 A 
ENDBRANCH   8   9
ENDBRANCH   5   8
ENDBRANCH   1   2
BRANCH   1  15
ATOM     15  S   UNL     1       0.881  12.807  20.463  0.00  0.00    +0.000 S 
ATOM     16  O   UNL     1       1.036  14.145  19.915  0.00  0.00    +0.000 OA
ATOM     17  O   UNL     1       1.941  12.221  21.258  0.00  0.00    +0.000 OA
BRANCH  15  21
ATOM     18  C   UNL     1      -3.109  12.822  22.828  0.00  0.00    +0.000 A 
ATOM     19  C   UNL     1      -2.641  13.968  22.189  0.00  0.00    +0.000 A 
ATOM     20  C   UNL     1      -1.389  14.019  21.541  0.00  0.00    +0.000 A 
ATOM     21  C   UNL     1      -0.541  12.912  21.579  0.00  0.00    +0.000 A 
ATOM     22  C   UNL     1      -0.967  11.767  22.267  0.00  0.00    +0.000 A 
ATOM     23  C   UNL     1      -2.239  11.718  22.891  0.00  0.00    +0.000 A 
BRANCH  18  27
ATOM     24  C   UNL     1      -6.862  12.574  23.442  0.00  0.00    +0.000 C 
ATOM     25  C   UNL     1      -5.612  12.836  22.639  0.00  0.00    +0.000 C 
ATOM     26  O   UNL     1      -5.716  13.153  21.455  0.00  0.00    +0.000 OA
ATOM     27  N   UNL     1      -4.428  12.695  23.358  0.00  0.00    +0.000 N 
ATOM     28  H   UNL     1      -4.506  12.400  24.316  0.00  0.00    +0.000 HD
ENDBRANCH  18  27
ENDBRANCH  15  21
ENDBRANCH   1  15
BRANCH   1  29
ATOM     29  C   UNL     1      -0.527  12.110  18.189  0.00  0.00    +0.000 C 
BRANCH  29  30
ATOM     30  C   UNL     1      -1.858  11.376  18.285  0.00  0.00    +0.000 A 
ATOM     31  C   UNL     1      -2.978  11.975  18.892  0.00  0.00    +0.000 A 
ATOM     32  C   UNL     1      -4.256  11.423  18.750  0.00  0.00    +0.000 A 
ATOM     33  C   UNL     1      -4.438  10.252  18.014  0.00  0.00    +0.000 A 
ATOM     34  C   UNL     1      -3.331   9.607  17.468  0.00  0.00    +0.000 A 
ATOM     35  C   UNL     1      -2.050  10.154  17.617  0.00  0.00    +0.000 A 
ENDBRANCH  29  30
ENDBRANCH   1  29
TORSDOF 8
ENDMDL
MODEL 5
REMARK VINA RESULT:      -8.6      2.602      3.902
REMARK  Name = 
REMARK  9 active torsions:
REMARK  status: ('A' for Active; 'I' for Inactive)
REMARK    1  A    between atoms: C_1  and  C_2
REMARK    2  A    between atoms: N_4  and  C_5
REMARK    3  A    between atoms: C_8  and  S_9
REMARK    4  A    between atoms: S_9  and  N_12
REMARK    5  A    between atoms: N_12  and  C_13
REMARK    6  A    between atoms: N_12  and  C_20
REMARK    7  A    between atoms: C_13  and  C_14
REMARK    8  A    between atoms: C_23  and  O_24
REMARK    9  A    between atoms: O_24  and  C_25
REMARK                            x       y       z     vdW  Elec       q    Type
REMARK                         _______ _______ _______ _____ _____    ______ ____
ROOT
ATOM      1  N   UNL     1       0.756  11.224  18.878  0.00  0.00    +0.000 N 
ENDROOT
BRANCH   1   2
ATOM      2  C   UNL     1       1.263   9.888  19.030  0.00  0.00    +0.000 A 
ATOM      3  C   UNL     1       1.209   9.214  20.253  0.00  0.00    +0.000 A 
ATOM      4  C   UNL     1       1.783   7.941  20.383  0.00  0.00    +0.000 A 
ATOM      5  C   UNL     1       2.392   7.321  19.288  0.00  0.00    +0.000 A 
ATOM      6  C   UNL     1       2.432   7.992  18.062  0.00  0.00    +0.000 A 
ATOM      7  C   UNL     1       1.851   9.258  17.930  0.00  0.00    +0.000 A 
BRANCH   5   8
ATOM      8  O   UNL     1       2.984   6.095  19.517  0.00  0.00    +0.000 OA
BRANCH   8   9
ATOM      9  C   UNL     1       2.262   4.934  19.334  0.00  0.00    +0.000 A 
ATOM     10  C   UNL     1       2.415   4.281  18.106  0.00  0.00    +0.000 A 
ATOM     11  C   UNL     1       1.739   3.081  17.859  0.00  0.00    +0.000 A 
ATOM     12  C   UNL     1       0.911   2.531  18.838  0.00  0.00    +0.000 A 
ATOM     13  C   UNL     1       0.767   3.172  20.066  0.00  0.00    +0.000 A 
ATOM     14  C   UNL     1       1.460   4.355  20.322  0.00  0.00    +0.000 A 
ENDBRANCH   8   9
ENDBRANCH   5   8
ENDBRANCH   1   2
BRANCH   1  15
ATOM     15  S   UNL     1      -0.928  11.454  18.849  0.00  0.00    +0.000 S 
ATOM     16  O   UNL     1      -1.538  10.136  18.896  0.00  0.00    +0.000 OA
ATOM     17  O   UNL     1      -1.264  12.373  17.780  0.00  0.00    +0.000 OA
BRANCH  15  21
ATOM     18  C   UNL     1      -1.738  13.895  22.710  0.00  0.00    +0.000 A 
ATOM     19  C   UNL     1      -1.251  12.590  22.766  0.00  0.00    +0.000 A 
ATOM     20  C   UNL     1      -1.083  11.793  21.614  0.00  0.00    +0.000 A 
ATOM     21  C   UNL     1      -1.468  12.282  20.367  0.00  0.00    +0.000 A 
ATOM     22  C   UNL     1      -2.016  13.571  20.295  0.00  0.00    +0.000 A 
ATOM     23  C   UNL     1      -2.155  14.374  21.455  0.00  0.00    +0.000 A 
BRANCH  18  27
ATOM     24  C   UNL     1      -2.642  15.984  25.766  0.00  0.00    +0.000 C 
ATOM     25  C   UNL     1      -2.908  15.086  24.584  0.00  0.00    +0.000 C 
ATOM     26  O   UNL     1      -4.060  14.713  24.362  0.00  0.00    +0.000 OA
ATOM     27  N   UNL     1      -1.777  14.772  23.835  0.00  0.00    +0.000 N 
ATOM     28  H   UNL     1      -0.896  15.131  24.162  0.00  0.00    +0.000 HD
ENDBRANCH  18  27
ENDBRANCH  15  21
ENDBRANCH   1  15
BRANCH   1  29
ATOM     29  C   UNL     1       1.678  12.302  18.490  0.00  0.00    +0.000 C 
BRANCH  29  30
ATOM     30  C   UNL     1       1.711  13.564  19.342  0.00  0.00    +0.000 A 
ATOM     31  C   UNL     1       1.186  14.779  18.863  0.00  0.00    +0.000 A 
ATOM     32  C   UNL     1       0.975  15.862  19.725  0.00  0.00    +0.000 A 
ATOM     33  C   UNL     1       1.302  15.758  21.077  0.00  0.00    +0.000 A 
ATOM     34  C   UNL     1       1.889  14.588  21.552  0.00  0.00    +0.000 A 
ATOM     35  C   UNL     1       2.109  13.508  20.689  0.00  0.00    +0.000 A 
ENDBRANCH  29  30
ENDBRANCH   1  29
TORSDOF 8
ENDMDL
MODEL 6
REMARK VINA RESULT:      -8.5      1.866      2.314
REMARK  Name = 
REMARK  9 active torsions:
REMARK  status: ('A' for Active; 'I' for Inactive)
REMARK    1  A    between atoms: C_1  and  C_2
REMARK    2  A    between atoms: N_4  and  C_5
REMARK    3  A    between atoms: C_8  and  S_9
REMARK    4  A    between atoms: S_9  and  N_12
REMARK    5  A    between atoms: N_12  and  C_13
REMARK    6  A    between atoms: N_12  and  C_20
REMARK    7  A    between atoms: C_13  and  C_14
REMARK    8  A    between atoms: C_23  and  O_24
REMARK    9  A    between atoms: O_24  and  C_25
REMARK                            x       y       z     vdW  Elec       q    Type
REMARK                         _______ _______ _______ _____ _____    ______ ____
ROOT
ATOM      1  N   UNL     1       0.727  10.002  19.991  0.00  0.00    +0.000 N 
ENDROOT
BRANCH   1   2
ATOM      2  C   UNL     1       1.474   8.912  19.427  0.00  0.00    +0.000 A 
ATOM      3  C   UNL     1       1.771   7.763  20.164  0.00  0.00    +0.000 A 
ATOM      4  C   UNL     1       2.568   6.752  19.605  0.00  0.00    +0.000 A 
ATOM      5  C   UNL     1       3.053   6.871  18.299  0.00  0.00    +0.000 A 
ATOM      6  C   UNL     1       2.743   8.016  17.559  0.00  0.00    +0.000 A 
ATOM      7  C   UNL     1       1.940   9.019  18.114  0.00  0.00    +0.000 A 
BRANCH   5   8
ATOM      8  O   UNL     1       3.878   5.860  17.849  0.00  0.00    +0.000 OA
BRANCH   8   9
ATOM      9  C   UNL     1       3.609   4.549  18.181  0.00  0.00    +0.000 A 
ATOM     10  C   UNL     1       2.550   3.930  17.507  0.00  0.00    +0.000 A 
ATOM     11  C   UNL     1       2.237   2.592  17.768  0.00  0.00    +0.000 A 
ATOM     12  C   UNL     1       2.981   1.869  18.701  0.00  0.00    +0.000 A 
ATOM     13  C   UNL     1       4.044   2.478  19.363  0.00  0.00    +0.000 A 
ATOM     14  C   UNL     1       4.372   3.804  19.085  0.00  0.00    +0.000 A 
ENDBRANCH   8   9
ENDBRANCH   5   8
ENDBRANCH   1   2
BRANCH   1  15
ATOM     15  S   UNL     1       0.287   9.922  21.631  0.00  0.00    +0.000 S 
ATOM     16  O   UNL     1       1.516   9.989  22.405  0.00  0.00    +0.000 OA
ATOM     17  O   UNL     1      -0.633   8.818  21.823  0.00  0.00    +0.000 OA
BRANCH  15  21
ATOM     18  C   UNL     1      -1.756  13.705  23.374  0.00  0.00    +0.000 A 
ATOM     19  C   UNL     1      -2.342  12.446  23.489  0.00  0.00    +0.000 A 
ATOM     20  C   UNL     1      -1.790  11.294  22.891  0.00  0.00    +0.000 A 
ATOM     21  C   UNL     1      -0.649  11.400  22.096  0.00  0.00    +0.000 A 
ATOM     22  C   UNL     1      -0.077  12.668  21.918  0.00  0.00    +0.000 A 
ATOM     23  C   UNL     1      -0.623  13.815  22.547  0.00  0.00    +0.000 A 
BRANCH  18  27
ATOM     24  C   UNL     1      -3.660  16.662  24.840  0.00  0.00    +0.000 C 
ATOM     25  C   UNL     1      -3.411  15.520  23.886  0.00  0.00    +0.000 C 
ATOM     26  O   UNL     1      -4.249  15.268  23.021  0.00  0.00    +0.000 OA
ATOM     27  N   UNL     1      -2.205  14.855  24.089  0.00  0.00    +0.000 N 
ATOM     28  H   UNL     1      -1.637  15.161  24.861  0.00  0.00    +0.000 HD
ENDBRANCH  18  27
ENDBRANCH  15  21
ENDBRANCH   1  15
BRANCH   1  29
ATOM     29  C   UNL     1       0.143  11.012  19.096  0.00  0.00    +0.000 C 
BRANCH  29  30
ATOM     30  C   UNL     1      -1.269  10.784  18.573  0.00  0.00    +0.000 A 
ATOM     31  C   UNL     1      -2.346  11.576  19.014  0.00  0.00    +0.000 A 
ATOM     32  C   UNL     1      -3.578  11.549  18.352  0.00  0.00    +0.000 A 
ATOM     33  C   UNL     1      -3.766  10.716  17.249  0.00  0.00    +0.000 A 
ATOM     34  C   UNL     1      -2.734   9.873  16.844  0.00  0.00    +0.000 A 
ATOM     35  C   UNL     1      -1.503   9.892  17.512  0.00  0.00    +0.000 A 
ENDBRANCH  29  30
ENDBRANCH   1  29
TORSDOF 8
ENDMDL
MODEL 7
REMARK VINA RESULT:      -8.5      1.899      2.526
REMARK  Name = 
REMARK  9 active torsions:
REMARK  status: ('A' for Active; 'I' for Inactive)
REMARK    1  A    between atoms: C_1  and  C_2
REMARK    2  A    between atoms: N_4  and  C_5
REMARK    3  A    between atoms: C_8  and  S_9
REMARK    4  A    between atoms: S_9  and  N_12
REMARK    5  A    between atoms: N_12  and  C_13
REMARK    6  A    between atoms: N_12  and  C_20
REMARK    7  A    between atoms: C_13  and  C_14
REMARK    8  A    between atoms: C_23  and  O_24
REMARK    9  A    between atoms: O_24  and  C_25
REMARK                            x       y       z     vdW  Elec       q    Type
REMARK                         _______ _______ _______ _____ _____    ______ ____
ROOT
ATOM      1  N   UNL     1       0.609  10.120  20.247  0.00  0.00    +0.000 N 
ENDROOT
BRANCH   1   2
ATOM      2  C   UNL     1       1.381   9.103  19.589  0.00  0.00    +0.000 A 
ATOM      3  C   UNL     1       1.780   9.226  18.256  0.00  0.00    +0.000 A 
ATOM      4  C   UNL     1       2.466   8.178  17.624  0.00  0.00    +0.000 A 
ATOM      5  C   UNL     1       2.782   7.011  18.327  0.00  0.00    +0.000 A 
ATOM      6  C   UNL     1       2.394   6.896  19.665  0.00  0.00    +0.000 A 
ATOM      7  C   UNL     1       1.717   7.945  20.297  0.00  0.00    +0.000 A 
BRANCH   5   8
ATOM      8  O   UNL     1       3.405   6.006  17.614  0.00  0.00    +0.000 OA
BRANCH   8   9
ATOM      9  C   UNL     1       3.141   4.685  17.909  0.00  0.00    +0.000 A 
ATOM     10  C   UNL     1       4.186   3.941  18.468  0.00  0.00    +0.000 A 
ATOM     11  C   UNL     1       3.984   2.603  18.823  0.00  0.00    +0.000 A 
ATOM     12  C   UNL     1       2.739   2.006  18.620  0.00  0.00    +0.000 A 
ATOM     13  C   UNL     1       1.693   2.748  18.076  0.00  0.00    +0.000 A 
ATOM     14  C   UNL     1       1.887   4.089  17.746  0.00  0.00    +0.000 A 
ENDBRANCH   8   9
ENDBRANCH   5   8
ENDBRANCH   1   2
BRANCH   1  15
ATOM     15  S   UNL     1       0.212   9.905  21.886  0.00  0.00    +0.000 S 
ATOM     16  O   UNL     1       1.463   9.864  22.625  0.00  0.00    +0.000 OA
ATOM     17  O   UNL     1      -0.739   8.818  22.007  0.00  0.00    +0.000 OA
BRANCH  15  21
ATOM     18  C   UNL     1      -2.372  13.614  22.931  0.00  0.00    +0.000 A 
ATOM     19  C   UNL     1      -1.099  13.749  22.379  0.00  0.00    +0.000 A 
ATOM     20  C   UNL     1      -0.256  12.644  22.137  0.00  0.00    +0.000 A 
ATOM     21  C   UNL     1      -0.661  11.364  22.511  0.00  0.00    +0.000 A 
ATOM     22  C   UNL     1      -1.914  11.212  23.123  0.00  0.00    +0.000 A 
ATOM     23  C   UNL     1      -2.765  12.325  23.336  0.00  0.00    +0.000 A 
BRANCH  18  27
ATOM     24  C   UNL     1      -4.555  16.539  24.025  0.00  0.00    +0.000 C 
ATOM     25  C   UNL     1      -3.583  15.400  24.211  0.00  0.00    +0.000 C 
ATOM     26  O   UNL     1      -3.132  15.175  25.334  0.00  0.00    +0.000 OA
ATOM     27  N   UNL     1      -3.301  14.690  23.047  0.00  0.00    +0.000 N 
ATOM     28  H   UNL     1      -3.728  15.016  22.197  0.00  0.00    +0.000 HD
ENDBRANCH  18  27
ENDBRANCH  15  21
ENDBRANCH   1  15
BRANCH   1  29
ATOM     29  C   UNL     1      -0.033  11.168  19.440  0.00  0.00    +0.000 C 
BRANCH  29  30
ATOM     30  C   UNL     1      -1.460  10.937  18.958  0.00  0.00    +0.000 A 
ATOM     31  C   UNL     1      -2.497  11.824  19.301  0.00  0.00    +0.000 A 
ATOM     32  C   UNL     1      -3.737  11.767  18.654  0.00  0.00    +0.000 A 
ATOM     33  C   UNL     1      -3.971  10.811  17.666  0.00  0.00    +0.000 A 
ATOM     34  C   UNL     1      -2.980   9.880  17.366  0.00  0.00    +0.000 A 
ATOM     35  C   UNL     1      -1.742   9.930  18.019  0.00  0.00    +0.000 A 
ENDBRANCH  29  30
ENDBRANCH   1  29
TORSDOF 8
ENDMDL
MODEL 8
REMARK VINA RESULT:      -8.5      2.065      2.846
REMARK  Name = 
REMARK  9 active torsions:
REMARK  status: ('A' for Active; 'I' for Inactive)
REMARK    1  A    between atoms: C_1  and  C_2
REMARK    2  A    between atoms: N_4  and  C_5
REMARK    3  A    between atoms: C_8  and  S_9
REMARK    4  A    between atoms: S_9  and  N_12
REMARK    5  A    between atoms: N_12  and  C_13
REMARK    6  A    between atoms: N_12  and  C_20
REMARK    7  A    between atoms: C_13  and  C_14
REMARK    8  A    between atoms: C_23  and  O_24
REMARK    9  A    between atoms: O_24  and  C_25
REMARK                            x       y       z     vdW  Elec       q    Type
REMARK                         _______ _______ _______ _____ _____    ______ ____
ROOT
ATOM      1  N   UNL     1       0.678  10.127  19.906  0.00  0.00    +0.000 N 
ENDROOT
BRANCH   1   2
ATOM      2  C   UNL     1       1.471   9.061  19.360  0.00  0.00    +0.000 A 
ATOM      3  C   UNL     1       1.948   9.095  18.047  0.00  0.00    +0.000 A 
ATOM      4  C   UNL     1       2.655   8.002  17.523  0.00  0.00    +0.000 A 
ATOM      5  C   UNL     1       2.912   6.878  18.315  0.00  0.00    +0.000 A 
ATOM      6  C   UNL     1       2.445   6.853  19.633  0.00  0.00    +0.000 A 
ATOM      7  C   UNL     1       1.749   7.947  20.157  0.00  0.00    +0.000 A 
BRANCH   5   8
ATOM      8  O   UNL     1       3.560   5.823  17.705  0.00  0.00    +0.000 OA
BRANCH   8   9
ATOM      9  C   UNL     1       3.350   4.534  18.148  0.00  0.00    +0.000 A 
ATOM     10  C   UNL     1       2.270   3.841  17.589  0.00  0.00    +0.000 A 
ATOM     11  C   UNL     1       2.014   2.518  17.966  0.00  0.00    +0.000 A 
ATOM     12  C   UNL     1       2.834   1.885  18.901  0.00  0.00    +0.000 A 
ATOM     13  C   UNL     1       3.917   2.568  19.449  0.00  0.00    +0.000 A 
ATOM     14  C   UNL     1       4.189   3.878  19.054  0.00  0.00    +0.000 A 
ENDBRANCH   8   9
ENDBRANCH   5   8
ENDBRANCH   1   2
BRANCH   1  15
ATOM     15  S   UNL     1       0.235  10.051  21.546  0.00  0.00    +0.000 S 
ATOM     16  O   UNL     1       1.463  10.107  22.321  0.00  0.00    +0.000 OA
ATOM     17  O   UNL     1      -0.694   8.955  21.737  0.00  0.00    +0.000 OA
BRANCH  15  21
ATOM     18  C   UNL     1      -1.753  13.872  23.268  0.00  0.00    +0.000 A 
ATOM     19  C   UNL     1      -2.326  12.614  23.446  0.00  0.00    +0.000 A 
ATOM     20  C   UNL     1      -1.793  11.447  22.856  0.00  0.00    +0.000 A 
ATOM     21  C   UNL     1      -0.689  11.537  22.009  0.00  0.00    +0.000 A 
ATOM     22  C   UNL     1      -0.133  12.802  21.769  0.00  0.00    +0.000 A 
ATOM     23  C   UNL     1      -0.659  13.963  22.389  0.00  0.00    +0.000 A 
BRANCH  18  27
ATOM     24  C   UNL     1      -2.110  16.969  25.459  0.00  0.00    +0.000 C 
ATOM     25  C   UNL     1      -1.444  15.720  24.937  0.00  0.00    +0.000 C 
ATOM     26  O   UNL     1      -0.346  15.394  25.388  0.00  0.00    +0.000 OA
ATOM     27  N   UNL     1      -2.178  15.039  23.970  0.00  0.00    +0.000 N 
ATOM     28  H   UNL     1      -3.050  15.450  23.682  0.00  0.00    +0.000 HD
ENDBRANCH  18  27
ENDBRANCH  15  21
ENDBRANCH   1  15
BRANCH   1  29
ATOM     29  C   UNL     1       0.057  11.100  18.995  0.00  0.00    +0.000 C 
BRANCH  29  30
ATOM     30  C   UNL     1      -1.363  10.832  18.513  0.00  0.00    +0.000 A 
ATOM     31  C   UNL     1      -2.442  11.625  18.948  0.00  0.00    +0.000 A 
ATOM     32  C   UNL     1      -3.688  11.556  18.315  0.00  0.00    +0.000 A 
ATOM     33  C   UNL     1      -3.886  10.682  17.247  0.00  0.00    +0.000 A 
ATOM     34  C   UNL     1      -2.851   9.839  16.850  0.00  0.00    +0.000 A 
ATOM     35  C   UNL     1      -1.607   9.900  17.488  0.00  0.00    +0.000 A 
ENDBRANCH  29  30
ENDBRANCH   1  29
TORSDOF 8
ENDMDL
MODEL 9
REMARK VINA RESULT:      -8.5      3.279      5.178
REMARK  Name = 
REMARK  9 active torsions:
REMARK  status: ('A' for Active; 'I' for Inactive)
REMARK    1  A    between atoms: C_1  and  C_2
REMARK    2  A    between atoms: N_4  and  C_5
REMARK    3  A    between atoms: C_8  and  S_9
REMARK    4  A    between atoms: S_9  and  N_12
REMARK    5  A    between atoms: N_12  and  C_13
REMARK    6  A    between atoms: N_12  and  C_20
REMARK    7  A    between atoms: C_13  and  C_14
REMARK    8  A    between atoms: C_23  and  O_24
REMARK    9  A    between atoms: O_24  and  C_25
REMARK                            x       y       z     vdW  Elec       q    Type
REMARK                         _______ _______ _______ _____ _____    ______ ____
ROOT
ATOM      1  N   UNL     1      -0.852  11.146  19.631  0.00  0.00    +0.000 N 
ENDROOT
BRANCH   1   2
ATOM      2  C   UNL     1       0.126  10.094  19.663  0.00  0.00    +0.000 A 
ATOM      3  C   UNL     1       0.891   9.763  18.542  0.00  0.00    +0.000 A 
ATOM      4  C   UNL     1       1.781   8.680  18.588  0.00  0.00    +0.000 A 
ATOM      5  C   UNL     1       1.933   7.937  19.763  0.00  0.00    +0.000 A 
ATOM      6  C   UNL     1       1.178   8.279  20.888  0.00  0.00    +0.000 A 
ATOM      7  C   UNL     1       0.296   9.365  20.844  0.00  0.00    +0.000 A 
BRANCH   5   8
ATOM      8  O   UNL     1       2.785   6.851  19.706  0.00  0.00    +0.000 OA
BRANCH   8   9
ATOM      9  C   UNL     1       2.282   5.593  19.447  0.00  0.00    +0.000 A 
ATOM     10  C   UNL     1       1.798   4.868  20.542  0.00  0.00    +0.000 A 
ATOM     11  C   UNL     1       1.245   3.597  20.355  0.00  0.00    +0.000 A 
ATOM     12  C   UNL     1       1.173   3.048  19.074  0.00  0.00    +0.000 A 
ATOM     13  C   UNL     1       1.641   3.772  17.980  0.00  0.00    +0.000 A 
ATOM     14  C   UNL     1       2.170   5.050  18.164  0.00  0.00    +0.000 A 
ENDBRANCH   8   9
ENDBRANCH   5   8
ENDBRANCH   1   2
BRANCH   1  15
ATOM     15  S   UNL     1      -0.435  12.662  20.277  0.00  0.00    +0.000 S 
ATOM     16  O   UNL     1      -0.399  12.513  21.722  0.00  0.00    +0.000 OA
ATOM     17  O   UNL     1      -1.268  13.683  19.673  0.00  0.00    +0.000 OA
BRANCH  15  21
ATOM     18  C   UNL     1       3.723  14.396  19.168  0.00  0.00    +0.000 A 
ATOM     19  C   UNL     1       2.787  14.074  18.187  0.00  0.00    +0.000 A 
ATOM     20  C   UNL     1       1.552  13.460  18.488  0.00  0.00    +0.000 A 
ATOM     21  C   UNL     1       1.258  13.096  19.802  0.00  0.00    +0.000 A 
ATOM     22  C   UNL     1       2.212  13.358  20.796  0.00  0.00    +0.000 A 
ATOM     23  C   UNL     1       3.437  13.999  20.487  0.00  0.00    +0.000 A 
BRANCH  18  27
ATOM     24  C   UNL     1       6.423  17.053  18.754  0.00  0.00    +0.000 C 
ATOM     25  C   UNL     1       5.030  16.532  19.009  0.00  0.00    +0.000 C 
ATOM     26  O   UNL     1       4.130  17.331  19.265  0.00  0.00    +0.000 OA
ATOM     27  N   UNL     1       4.908  15.149  18.912  0.00  0.00    +0.000 N 
ATOM     28  H   UNL     1       5.746  14.626  18.724  0.00  0.00    +0.000 HD
ENDBRANCH  18  27
ENDBRANCH  15  21
ENDBRANCH   1  15
BRANCH   1  29
ATOM     29  C   UNL     1      -2.245  10.821  19.292  0.00  0.00    +0.000 C 
BRANCH  29  30
ATOM     30  C   UNL     1      -2.651  10.823  17.824  0.00  0.00    +0.000 A 
ATOM     31  C   UNL     1      -2.050   9.947  16.901  0.00  0.00    +0.000 A 
ATOM     32  C   UNL     1      -2.595   9.759  15.626  0.00  0.00    +0.000 A 
ATOM     33  C   UNL     1      -3.740  10.458  15.241  0.00  0.00    +0.000 A 
ATOM     34  C   UNL     1      -4.305  11.382  16.116  0.00  0.00    +0.000 A 
ATOM     35  C   UNL     1      -3.755  11.577  17.389  0.00  0.00    +0.000 A 
ENDBRANCH  29  30
ENDBRANCH   1  29
TORSDOF 8
ENDMDL
