MODEL 1
REMARK VINA RESULT:      -7.0      0.000      0.000
REMARK  Name = 
REMARK  11 active torsions:
REMARK  status: ('A' for Active; 'I' for Inactive)
REMARK    1  A    between atoms: C_1  and  C_2
REMARK    2  A    between atoms: C_2  and  O_3
REMARK    3  A    between atoms: C_2  and  C_4
REMARK    4  A    between atoms: C_4  and  N_5
REMARK    5  A    between atoms: C_6  and  C_8
REMARK    6  A    between atoms: C_13  and  C_14
REMARK    7  A    between atoms: C_14  and  O_15
REMARK    8  A    between atoms: C_14  and  C_16
REMARK    9  A    between atoms: C_14  and  C_22
REMARK   10  A    between atoms: N_28  and  C_29
REMARK   11  A    between atoms: C_29  and  C_30
REMARK                            x       y       z     vdW  Elec       q    Type
REMARK                         _______ _______ _______ _____ _____    ______ ____
ROOT
ATOM      1  C   UNL     1       0.967   8.945  20.751  0.00  0.00    +0.000 A 
ATOM      2  C   UNL     1       0.989   8.690  22.123  0.00  0.00    +0.000 A 
ATOM      3  C   UNL     1       0.181   9.435  23.007  0.00  0.00    +0.000 A 
ATOM      4  C   UNL     1      -0.622  10.477  22.506  0.00  0.00    +0.000 A 
ATOM      5  N   UNL     1      -1.509  11.285  23.145  0.00  0.00    +0.000 NA
ATOM      6  C   UNL     1      -1.984  12.147  22.246  0.00  0.00    +0.000 A 
ATOM      7  N   UNL     1      -1.331  11.947  21.013  0.00  0.00    +0.000 N 
ATOM      8  C   UNL     1      -0.577  10.793  21.159  0.00  0.00    +0.000 A 
ATOM      9  C   UNL     1       0.164   9.992  20.285  0.00  0.00    +0.000 A 
ENDROOT
BRANCH   1  11
ATOM     10  N   UNL     1       2.298   6.916  20.288  0.00  0.00    +0.000 N 
ATOM     11  C   UNL     1       1.808   8.115  19.807  0.00  0.00    +0.000 C 
ATOM     12  O   UNL     1       2.036   8.511  18.669  0.00  0.00    +0.000 OA
ATOM     13  H   UNL     1       2.078   6.597  21.222  0.00  0.00    +0.000 HD
BRANCH  10  14
ATOM     14  C   UNL     1       3.072   5.959  19.518  0.00  0.00    +0.000 C 
BRANCH  14  16
ATOM     15  C   UNL     1       1.278   4.374  20.297  0.00  0.00    +0.000 C 
ATOM     16  C   UNL     1       2.341   4.631  19.238  0.00  0.00    +0.000 C 
BRANCH  16  17
ATOM     17  O   UNL     1       1.657   4.644  17.980  0.00  0.00    +0.000 OA
ATOM     18  H   UNL     1       0.951   3.977  18.019  0.00  0.00    +0.000 HD
ENDBRANCH  16  17
ENDBRANCH  14  16
ENDBRANCH  10  14
ENDBRANCH   1  11
BRANCH   6  19
ATOM     19  C   UNL     1      -3.030  13.238  22.631  0.00  0.00    +0.000 C 
BRANCH  19  20
ATOM     20  C   UNL     1      -2.476  14.644  22.283  0.00  0.00    +0.000 A 
ATOM     21  C   UNL     1      -3.164  15.488  21.380  0.00  0.00    +0.000 A 
ATOM     22  C   UNL     1      -2.687  16.763  21.060  0.00  0.00    +0.000 A 
ATOM     23  C   UNL     1      -1.508  17.235  21.622  0.00  0.00    +0.000 A 
ATOM     24  C   UNL     1      -0.810  16.432  22.522  0.00  0.00    +0.000 A 
ATOM     25  C   UNL     1      -1.289  15.158  22.852  0.00  0.00    +0.000 A 
ENDBRANCH  19  20
BRANCH  19  26
ATOM     26  C   UNL     1      -4.425  12.924  22.015  0.00  0.00    +0.000 A 
ATOM     27  C   UNL     1      -5.598  13.089  22.788  0.00  0.00    +0.000 A 
ATOM     28  C   UNL     1      -6.870  12.877  22.255  0.00  0.00    +0.000 A 
ATOM     29  C   UNL     1      -7.006  12.520  20.919  0.00  0.00    +0.000 A 
ATOM     30  C   UNL     1      -5.871  12.382  20.123  0.00  0.00    +0.000 A 
ATOM     31  C   UNL     1      -4.593  12.589  20.658  0.00  0.00    +0.000 A 
ENDBRANCH  19  26
BRANCH  19  32
ATOM     32  O   UNL     1      -3.242  13.173  24.052  0.00  0.00    +0.000 OA
ATOM     33  H   UNL     1      -2.793  13.942  24.441  0.00  0.00    +0.000 HD
ENDBRANCH  19  32
ENDBRANCH   6  19
BRANCH   7  34
ATOM     34  C   UNL     1      -1.272  12.920  19.920  0.00  0.00    +0.000 C 
BRANCH  34  35
ATOM     35  C   UNL     1       0.024  13.657  19.439  0.00  0.00    +0.000 C 
ATOM     36  C   UNL     1       1.145  13.636  20.488  0.00  0.00    +0.000 C 
ATOM     37  C   UNL     1       2.181  14.727  20.281  0.00  0.00    +0.000 C 
ATOM     38  O   UNL     1       1.536  15.987  20.167  0.00  0.00    +0.000 OA
ATOM     39  C   UNL     1       0.786  16.109  18.960  0.00  0.00    +0.000 C 
ATOM     40  C   UNL     1      -0.228  14.991  18.719  0.00  0.00    +0.000 C 
ENDBRANCH  34  35
ENDBRANCH   7  34
TORSDOF 10
ENDMDL
MODEL 2
REMARK VINA RESULT:      -6.9      0.828      1.545
REMARK  Name = 
REMARK  11 active torsions:
REMARK  status: ('A' for Active; 'I' for Inactive)
REMARK    1  A    between atoms: C_1  and  C_2
REMARK    2  A    between atoms: C_2  and  O_3
REMARK    3  A    between atoms: C_2  and  C_4
REMARK    4  A    between atoms: C_4  and  N_5
REMARK    5  A    between atoms: C_6  and  C_8
REMARK    6  A    between atoms: C_13  and  C_14
REMARK    7  A    between atoms: C_14  and  O_15
REMARK    8  A    between atoms: C_14  and  C_16
REMARK    9  A    between atoms: C_14  and  C_22
REMARK   10  A    between atoms: N_28  and  C_29
REMARK   11  A    between atoms: C_29  and  C_30
REMARK                            x       y       z     vdW  Elec       q    Type
REMARK                         _______ _______ _______ _____ _____    ______ ____
ROOT
ATOM      1  C   UNL     1       0.749   9.150  20.877  0.00  0.00    +0.000 A 
ATOM      2  C   UNL     1       0.740   8.801  22.229  0.00  0.00    +0.000 A 
ATOM      3  C   UNL     1      -0.080   9.490  23.145  0.00  0.00    +0.000 A 
ATOM      4  C   UNL     1      -0.866  10.571  22.701  0.00  0.00    +0.000 A 
ATOM      5  N   UNL     1      -1.760  11.341  23.375  0.00  0.00    +0.000 NA
ATOM      6  C   UNL     1      -2.210  12.266  22.529  0.00  0.00    +0.000 A 
ATOM      7  N   UNL     1      -1.533  12.146  21.298  0.00  0.00    +0.000 N 
ATOM      8  C   UNL     1      -0.790  10.978  21.380  0.00  0.00    +0.000 A 
ATOM      9  C   UNL     1      -0.037  10.233  20.468  0.00  0.00    +0.000 A 
ENDROOT
BRANCH   1  11
ATOM     10  N   UNL     1       2.117   7.170  20.321  0.00  0.00    +0.000 N 
ATOM     11  C   UNL     1       1.603   8.380  19.896  0.00  0.00    +0.000 C 
ATOM     12  O   UNL     1       1.822   8.831  18.776  0.00  0.00    +0.000 OA
ATOM     13  H   UNL     1       1.905   6.804  21.240  0.00  0.00    +0.000 HD
BRANCH  10  14
ATOM     14  C   UNL     1       2.908   6.263  19.507  0.00  0.00    +0.000 C 
BRANCH  14  16
ATOM     15  C   UNL     1       1.298   4.626  20.541  0.00  0.00    +0.000 C 
ATOM     16  C   UNL     1       2.408   4.805  19.515  0.00  0.00    +0.000 C 
BRANCH  16  17
ATOM     17  O   UNL     1       1.853   4.416  18.254  0.00  0.00    +0.000 OA
ATOM     18  H   UNL     1       1.207   5.094  17.991  0.00  0.00    +0.000 HD
ENDBRANCH  16  17
ENDBRANCH  14  16
ENDBRANCH  10  14
ENDBRANCH   1  11
BRANCH   6  19
ATOM     19  C   UNL     1      -3.257  13.337  22.967  0.00  0.00    +0.000 C 
BRANCH  19  20
ATOM     20  C   UNL     1      -2.711  14.758  22.670  0.00  0.00    +0.000 A 
ATOM     21  C   UNL     1      -1.546  15.233  23.316  0.00  0.00    +0.000 A 
ATOM     22  C   UNL     1      -1.032  16.507  23.056  0.00  0.00    +0.000 A 
ATOM     23  C   UNL     1      -1.663  17.349  22.149  0.00  0.00    +0.000 A 
ATOM     24  C   UNL     1      -2.807  16.908  21.488  0.00  0.00    +0.000 A 
ATOM     25  C   UNL     1      -3.320  15.629  21.740  0.00  0.00    +0.000 A 
ENDBRANCH  19  20
BRANCH  19  26
ATOM     26  C   UNL     1      -4.657  13.042  22.352  0.00  0.00    +0.000 A 
ATOM     27  C   UNL     1      -4.764  12.512  21.046  0.00  0.00    +0.000 A 
ATOM     28  C   UNL     1      -5.995  12.179  20.482  0.00  0.00    +0.000 A 
ATOM     29  C   UNL     1      -7.158  12.339  21.225  0.00  0.00    +0.000 A 
ATOM     30  C   UNL     1      -7.083  12.827  22.528  0.00  0.00    +0.000 A 
ATOM     31  C   UNL     1      -5.847  13.169  23.093  0.00  0.00    +0.000 A 
ENDBRANCH  19  26
BRANCH  19  32
ATOM     32  O   UNL     1      -3.454  13.214  24.386  0.00  0.00    +0.000 OA
ATOM     33  H   UNL     1      -2.600  13.401  24.809  0.00  0.00    +0.000 HD
ENDBRANCH  19  32
ENDBRANCH   6  19
BRANCH   7  34
ATOM     34  C   UNL     1      -1.445  13.191  20.277  0.00  0.00    +0.000 C 
BRANCH  34  35
ATOM     35  C   UNL     1      -0.118  13.874  19.800  0.00  0.00    +0.000 C 
ATOM     36  C   UNL     1       0.405  13.300  18.476  0.00  0.00    +0.000 C 
ATOM     37  C   UNL     1       1.885  13.558  18.252  0.00  0.00    +0.000 C 
ATOM     38  O   UNL     1       2.624  13.129  19.386  0.00  0.00    +0.000 OA
ATOM     39  C   UNL     1       2.388  13.945  20.532  0.00  0.00    +0.000 C 
ATOM     40  C   UNL     1       0.917  14.107  20.912  0.00  0.00    +0.000 C 
ENDBRANCH  34  35
ENDBRANCH   7  34
TORSDOF 10
ENDMDL
MODEL 3
REMARK VINA RESULT:      -6.9      0.286      1.153
REMARK  Name = 
REMARK  11 active torsions:
REMARK  status: ('A' for Active; 'I' for Inactive)
REMARK    1  A    between atoms: C_1  and  C_2
REMARK    2  A    between atoms: C_2  and  O_3
REMARK    3  A    between atoms: C_2  and  C_4
REMARK    4  A    between atoms: C_4  and  N_5
REMARK    5  A    between atoms: C_6  and  C_8
REMARK    6  A    between atoms: C_13  and  C_14
REMARK    7  A    between atoms: C_14  and  O_15
REMARK    8  A    between atoms: C_14  and  C_16
REMARK    9  A    between atoms: C_14  and  C_22
REMARK   10  A    between atoms: N_28  and  C_29
REMARK   11  A    between atoms: C_29  and  C_30
REMARK                            x       y       z     vdW  Elec       q    Type
REMARK                         _______ _______ _______ _____ _____    ______ ____
ROOT
ATOM      1  C   UNL     1       0.839   9.093  20.800  0.00  0.00    +0.000 A 
ATOM      2  C   UNL     1       0.834   8.778  22.160  0.00  0.00    +0.000 A 
ATOM      3  C   UNL     1       0.019   9.492  23.062  0.00  0.00    +0.000 A 
ATOM      4  C   UNL     1      -0.765  10.564  22.593  0.00  0.00    +0.000 A 
ATOM      5  N   UNL     1      -1.654  11.353  23.251  0.00  0.00    +0.000 NA
ATOM      6  C   UNL     1      -2.105  12.258  22.383  0.00  0.00    +0.000 A 
ATOM      7  N   UNL     1      -1.433  12.105  21.154  0.00  0.00    +0.000 N 
ATOM      8  C   UNL     1      -0.693  10.938  21.263  0.00  0.00    +0.000 A 
ATOM      9  C   UNL     1       0.055  10.168  20.367  0.00  0.00    +0.000 A 
ENDROOT
BRANCH   1  11
ATOM     10  N   UNL     1       2.140   7.062  20.264  0.00  0.00    +0.000 N 
ATOM     11  C   UNL     1       1.688   8.295  19.836  0.00  0.00    +0.000 C 
ATOM     12  O   UNL     1       1.955   8.746  18.727  0.00  0.00    +0.000 OA
ATOM     13  H   UNL     1       1.888   6.698  21.174  0.00  0.00    +0.000 HD
BRANCH  10  14
ATOM     14  C   UNL     1       2.915   6.130  19.464  0.00  0.00    +0.000 C 
BRANCH  14  16
ATOM     15  C   UNL     1       1.302   4.540  20.564  0.00  0.00    +0.000 C 
ATOM     16  C   UNL     1       2.479   4.658  19.607  0.00  0.00    +0.000 C 
BRANCH  16  17
ATOM     17  O   UNL     1       2.041   4.100  18.363  0.00  0.00    +0.000 OA
ATOM     18  H   UNL     1       2.704   3.448  18.079  0.00  0.00    +0.000 HD
ENDBRANCH  16  17
ENDBRANCH  14  16
ENDBRANCH  10  14
ENDBRANCH   1  11
BRANCH   6  19
ATOM     19  C   UNL     1      -3.146  13.343  22.798  0.00  0.00    +0.000 C 
BRANCH  19  20
ATOM     20  C   UNL     1      -2.593  14.755  22.471  0.00  0.00    +0.000 A 
ATOM     21  C   UNL     1      -1.436  15.245  23.120  0.00  0.00    +0.000 A 
ATOM     22  C   UNL     1      -0.916  16.510  22.833  0.00  0.00    +0.000 A 
ATOM     23  C   UNL     1      -1.533  17.330  21.897  0.00  0.00    +0.000 A 
ATOM     24  C   UNL     1      -2.670  16.874  21.233  0.00  0.00    +0.000 A 
ATOM     25  C   UNL     1      -3.189  15.603  21.511  0.00  0.00    +0.000 A 
ENDBRANCH  19  20
BRANCH  19  26
ATOM     26  C   UNL     1      -4.547  13.042  22.188  0.00  0.00    +0.000 A 
ATOM     27  C   UNL     1      -4.657  12.502  20.886  0.00  0.00    +0.000 A 
ATOM     28  C   UNL     1      -5.889  12.163  20.328  0.00  0.00    +0.000 A 
ATOM     29  C   UNL     1      -7.051  12.328  21.072  0.00  0.00    +0.000 A 
ATOM     30  C   UNL     1      -6.973  12.827  22.371  0.00  0.00    +0.000 A 
ATOM     31  C   UNL     1      -5.736  13.174  22.930  0.00  0.00    +0.000 A 
ENDBRANCH  19  26
BRANCH  19  32
ATOM     32  O   UNL     1      -3.346  13.252  24.219  0.00  0.00    +0.000 OA
ATOM     33  H   UNL     1      -3.820  12.421  24.386  0.00  0.00    +0.000 HD
ENDBRANCH  19  32
ENDBRANCH   6  19
BRANCH   7  34
ATOM     34  C   UNL     1      -1.344  13.124  20.106  0.00  0.00    +0.000 C 
BRANCH  34  35
ATOM     35  C   UNL     1      -0.027  13.846  19.661  0.00  0.00    +0.000 C 
ATOM     36  C   UNL     1       1.017  13.928  20.783  0.00  0.00    +0.000 C 
ATOM     37  C   UNL     1       2.051  15.019  20.564  0.00  0.00    +0.000 C 
ATOM     38  O   UNL     1       1.398  16.254  20.307  0.00  0.00    +0.000 OA
ATOM     39  C   UNL     1       0.734  16.268  19.044  0.00  0.00    +0.000 C 
ATOM     40  C   UNL     1      -0.245  15.116  18.822  0.00  0.00    +0.000 C 
ENDBRANCH  34  35
ENDBRANCH   7  34
TORSDOF 10
ENDMDL
MODEL 4
REMARK VINA RESULT:      -6.9      1.166      3.384
REMARK  Name = 
REMARK  11 active torsions:
REMARK  status: ('A' for Active; 'I' for Inactive)
REMARK    1  A    between atoms: C_1  and  C_2
REMARK    2  A    between atoms: C_2  and  O_3
REMARK    3  A    between atoms: C_2  and  C_4
REMARK    4  A    between atoms: C_4  and  N_5
REMARK    5  A    between atoms: C_6  and  C_8
REMARK    6  A    between atoms: C_13  and  C_14
REMARK    7  A    between atoms: C_14  and  O_15
REMARK    8  A    between atoms: C_14  and  C_16
REMARK    9  A    between atoms: C_14  and  C_22
REMARK   10  A    between atoms: N_28  and  C_29
REMARK   11  A    between atoms: C_29  and  C_30
REMARK                            x       y       z     vdW  Elec       q    Type
REMARK                         _______ _______ _______ _____ _____    ______ ____
ROOT
ATOM      1  C   UNL     1       1.029   8.656  20.788  0.00  0.00    +0.000 A 
ATOM      2  C   UNL     1       0.949   8.660  22.182  0.00  0.00    +0.000 A 
ATOM      3  C   UNL     1       0.168   9.621  22.856  0.00  0.00    +0.000 A 
ATOM      4  C   UNL     1      -0.503  10.615  22.117  0.00  0.00    +0.000 A 
ATOM      5  N   UNL     1      -1.344  11.598  22.533  0.00  0.00    +0.000 NA
ATOM      6  C   UNL     1      -1.683  12.314  21.462  0.00  0.00    +0.000 A 
ATOM      7  N   UNL     1      -0.984  11.834  20.336  0.00  0.00    +0.000 N 
ATOM      8  C   UNL     1      -0.352  10.670  20.743  0.00  0.00    +0.000 A 
ATOM      9  C   UNL     1       0.358   9.661  20.084  0.00  0.00    +0.000 A 
ENDROOT
BRANCH   1  11
ATOM     10  N   UNL     1       1.935   6.360  20.680  0.00  0.00    +0.000 N 
ATOM     11  C   UNL     1       1.840   7.598  20.074  0.00  0.00    +0.000 C 
ATOM     12  O   UNL     1       2.386   7.852  19.005  0.00  0.00    +0.000 OA
ATOM     13  H   UNL     1       1.457   6.164  21.550  0.00  0.00    +0.000 HD
BRANCH  10  14
ATOM     14  C   UNL     1       2.617   5.205  20.123  0.00  0.00    +0.000 C 
BRANCH  14  16
ATOM     15  C   UNL     1       2.436   2.894  19.139  0.00  0.00    +0.000 C 
ATOM     16  C   UNL     1       1.680   4.175  19.461  0.00  0.00    +0.000 C 
BRANCH  16  17
ATOM     17  O   UNL     1       0.599   3.796  20.320  0.00  0.00    +0.000 OA
ATOM     18  H   UNL     1      -0.010   4.552  20.383  0.00  0.00    +0.000 HD
ENDBRANCH  16  17
ENDBRANCH  14  16
ENDBRANCH  10  14
ENDBRANCH   1  11
BRANCH   6  19
ATOM     19  C   UNL     1      -2.641  13.541  21.566  0.00  0.00    +0.000 C 
BRANCH  19  20
ATOM     20  C   UNL     1      -3.842  13.194  22.485  0.00  0.00    +0.000 A 
ATOM     21  C   UNL     1      -3.639  12.867  23.846  0.00  0.00    +0.000 A 
ATOM     22  C   UNL     1      -4.708  12.560  24.693  0.00  0.00    +0.000 A 
ATOM     23  C   UNL     1      -6.011  12.563  24.212  0.00  0.00    +0.000 A 
ATOM     24  C   UNL     1      -6.247  12.890  22.878  0.00  0.00    +0.000 A 
ATOM     25  C   UNL     1      -5.179  13.206  22.029  0.00  0.00    +0.000 A 
ENDBRANCH  19  20
BRANCH  19  26
ATOM     26  C   UNL     1      -1.867  14.828  21.977  0.00  0.00    +0.000 A 
ATOM     27  C   UNL     1      -2.367  16.103  21.625  0.00  0.00    +0.000 A 
ATOM     28  C   UNL     1      -1.736  17.281  22.024  0.00  0.00    +0.000 A 
ATOM     29  C   UNL     1      -0.596  17.216  22.816  0.00  0.00    +0.000 A 
ATOM     30  C   UNL     1      -0.098  15.976  23.208  0.00  0.00    +0.000 A 
ATOM     31  C   UNL     1      -0.728  14.792  22.803  0.00  0.00    +0.000 A 
ENDBRANCH  19  26
BRANCH  19  32
ATOM     32  O   UNL     1      -3.145  13.828  20.250  0.00  0.00    +0.000 OA
ATOM     33  H   UNL     1      -2.776  14.687  19.987  0.00  0.00    +0.000 HD
ENDBRANCH  19  32
ENDBRANCH   6  19
BRANCH   7  34
ATOM     34  C   UNL     1      -0.771  12.579  19.093  0.00  0.00    +0.000 C 
BRANCH  34  35
ATOM     35  C   UNL     1       0.358  13.640  18.862  0.00  0.00    +0.000 C 
ATOM     36  C   UNL     1       1.593  13.398  19.740  0.00  0.00    +0.000 C 
ATOM     37  C   UNL     1       2.457  14.635  19.916  0.00  0.00    +0.000 C 
ATOM     38  O   UNL     1       1.655  15.722  20.355  0.00  0.00    +0.000 OA
ATOM     39  C   UNL     1       0.753  16.176  19.347  0.00  0.00    +0.000 C 
ATOM     40  C   UNL     1      -0.140  15.090  18.749  0.00  0.00    +0.000 C 
ENDBRANCH  34  35
ENDBRANCH   7  34
TORSDOF 10
ENDMDL
MODEL 5
REMARK VINA RESULT:      -6.9      2.078      2.844
REMARK  Name = 
REMARK  11 active torsions:
REMARK  status: ('A' for Active; 'I' for Inactive)
REMARK    1  A    between atoms: C_1  and  C_2
REMARK    2  A    between atoms: C_2  and  O_3
REMARK    3  A    between atoms: C_2  and  C_4
REMARK    4  A    between atoms: C_4  and  N_5
REMARK    5  A    between atoms: C_6  and  C_8
REMARK    6  A    between atoms: C_13  and  C_14
REMARK    7  A    between atoms: C_14  and  O_15
REMARK    8  A    between atoms: C_14  and  C_16
REMARK    9  A    between atoms: C_14  and  C_22
REMARK   10  A    between atoms: N_28  and  C_29
REMARK   11  A    between atoms: C_29  and  C_30
REMARK                            x       y       z     vdW  Elec       q    Type
REMARK                         _______ _______ _______ _____ _____    ______ ____
ROOT
ATOM      1  C   UNL     1       0.819   9.062  20.808  0.00  0.00    +0.000 A 
ATOM      2  C   UNL     1       1.091   8.883  22.166  0.00  0.00    +0.000 A 
ATOM      3  C   UNL     1       0.350   9.573  23.146  0.00  0.00    +0.000 A 
ATOM      4  C   UNL     1      -0.646  10.487  22.751  0.00  0.00    +0.000 A 
ATOM      5  N   UNL     1      -1.512  11.218  23.501  0.00  0.00    +0.000 NA
ATOM      6  C   UNL     1      -2.227  11.971  22.666  0.00  0.00    +0.000 A 
ATOM      7  N   UNL     1      -1.759  11.786  21.349  0.00  0.00    +0.000 N 
ATOM      8  C   UNL     1      -0.855  10.737  21.406  0.00  0.00    +0.000 A 
ATOM      9  C   UNL     1      -0.170   9.983  20.447  0.00  0.00    +0.000 A 
ENDROOT
BRANCH   1  11
ATOM     10  N   UNL     1       2.108   7.062  20.143  0.00  0.00    +0.000 N 
ATOM     11  C   UNL     1       1.595   8.288  19.766  0.00  0.00    +0.000 C 
ATOM     12  O   UNL     1       1.753   8.751  18.641  0.00  0.00    +0.000 OA
ATOM     13  H   UNL     1       1.945   6.688  21.069  0.00  0.00    +0.000 HD
BRANCH  10  14
ATOM     14  C   UNL     1       2.827   6.151  19.270  0.00  0.00    +0.000 C 
BRANCH  14  16
ATOM     15  C   UNL     1       1.354   4.519  20.499  0.00  0.00    +0.000 C 
ATOM     16  C   UNL     1       2.396   4.677  19.400  0.00  0.00    +0.000 C 
BRANCH  16  17
ATOM     17  O   UNL     1       1.790   4.182  18.201  0.00  0.00    +0.000 OA
ATOM     18  H   UNL     1       2.315   3.424  17.892  0.00  0.00    +0.000 HD
ENDBRANCH  16  17
ENDBRANCH  14  16
ENDBRANCH  10  14
ENDBRANCH   1  11
BRANCH   6  19
ATOM     19  C   UNL     1      -3.324  12.952  23.183  0.00  0.00    +0.000 C 
BRANCH  19  20
ATOM     20  C   UNL     1      -2.658  14.202  23.814  0.00  0.00    +0.000 A 
ATOM     21  C   UNL     1      -1.392  14.647  23.368  0.00  0.00    +0.000 A 
ATOM     22  C   UNL     1      -0.777  15.777  23.917  0.00  0.00    +0.000 A 
ATOM     23  C   UNL     1      -1.400  16.495  24.930  0.00  0.00    +0.000 A 
ATOM     24  C   UNL     1      -2.652  16.088  25.386  0.00  0.00    +0.000 A 
ATOM     25  C   UNL     1      -3.274  14.962  24.833  0.00  0.00    +0.000 A 
ENDBRANCH  19  20
BRANCH  19  26
ATOM     26  C   UNL     1      -4.367  13.270  22.070  0.00  0.00    +0.000 A 
ATOM     27  C   UNL     1      -5.483  12.423  21.877  0.00  0.00    +0.000 A 
ATOM     28  C   UNL     1      -6.469  12.705  20.932  0.00  0.00    +0.000 A 
ATOM     29  C   UNL     1      -6.382  13.864  20.171  0.00  0.00    +0.000 A 
ATOM     30  C   UNL     1      -5.312  14.736  20.362  0.00  0.00    +0.000 A 
ATOM     31  C   UNL     1      -4.317  14.450  21.306  0.00  0.00    +0.000 A 
ENDBRANCH  19  26
BRANCH  19  32
ATOM     32  O   UNL     1      -4.082  12.278  24.203  0.00  0.00    +0.000 OA
ATOM     33  H   UNL     1      -4.924  12.009  23.799  0.00  0.00    +0.000 HD
ENDBRANCH  19  32
ENDBRANCH   6  19
BRANCH   7  34
ATOM     34  C   UNL     1      -1.996  12.701  20.231  0.00  0.00    +0.000 C 
BRANCH  34  35
ATOM     35  C   UNL     1      -2.514  12.279  18.814  0.00  0.00    +0.000 C 
ATOM     36  C   UNL     1      -3.848  11.521  18.869  0.00  0.00    +0.000 C 
ATOM     37  C   UNL     1      -4.114  10.683  17.631  0.00  0.00    +0.000 C 
ATOM     38  O   UNL     1      -2.998   9.845  17.369  0.00  0.00    +0.000 OA
ATOM     39  C   UNL     1      -1.852  10.580  16.944  0.00  0.00    +0.000 C 
ATOM     40  C   UNL     1      -1.432  11.712  17.880  0.00  0.00    +0.000 C 
ENDBRANCH  34  35
ENDBRANCH   7  34
TORSDOF 10
ENDMDL
MODEL 6
REMARK VINA RESULT:      -6.8      1.300      1.895
REMARK  Name = 
REMARK  11 active torsions:
REMARK  status: ('A' for Active; 'I' for Inactive)
REMARK    1  A    between atoms: C_1  and  C_2
REMARK    2  A    between atoms: C_2  and  O_3
REMARK    3  A    between atoms: C_2  and  C_4
REMARK    4  A    between atoms: C_4  and  N_5
REMARK    5  A    between atoms: C_6  and  C_8
REMARK    6  A    between atoms: C_13  and  C_14
REMARK    7  A    between atoms: C_14  and  O_15
REMARK    8  A    between atoms: C_14  and  C_16
REMARK    9  A    between atoms: C_14  and  C_22
REMARK   10  A    between atoms: N_28  and  C_29
REMARK   11  A    between atoms: C_29  and  C_30
REMARK                            x       y       z     vdW  Elec       q    Type
REMARK                         _______ _______ _______ _____ _____    ______ ____
ROOT
ATOM      1  C   UNL     1       0.901   9.035  20.746  0.00  0.00    +0.000 A 
ATOM      2  C   UNL     1       0.951   8.652  22.088  0.00  0.00    +0.000 A 
ATOM      3  C   UNL     1       0.138   9.287  23.049  0.00  0.00    +0.000 A 
ATOM      4  C   UNL     1      -0.701  10.349  22.659  0.00  0.00    +0.000 A 
ATOM      5  N   UNL     1      -1.599  11.068  23.382  0.00  0.00    +0.000 NA
ATOM      6  C   UNL     1      -2.111  11.997  22.576  0.00  0.00    +0.000 A 
ATOM      7  N   UNL     1      -1.472  11.933  21.321  0.00  0.00    +0.000 N 
ATOM      8  C   UNL     1      -0.685  10.792  21.348  0.00  0.00    +0.000 A 
ATOM      9  C   UNL     1       0.064  10.098  20.392  0.00  0.00    +0.000 A 
ENDROOT
BRANCH   1  11
ATOM     10  N   UNL     1       2.263   7.088  20.069  0.00  0.00    +0.000 N 
ATOM     11  C   UNL     1       1.750   8.321  19.718  0.00  0.00    +0.000 C 
ATOM     12  O   UNL     1       1.964   8.837  18.625  0.00  0.00    +0.000 OA
ATOM     13  H   UNL     1       2.054   6.669  20.966  0.00  0.00    +0.000 HD
BRANCH  10  14
ATOM     14  C   UNL     1       3.047   6.229  19.200  0.00  0.00    +0.000 C 
BRANCH  14  16
ATOM     15  C   UNL     1       1.493   4.518  20.200  0.00  0.00    +0.000 C 
ATOM     16  C   UNL     1       2.554   4.770  19.137  0.00  0.00    +0.000 C 
BRANCH  16  17
ATOM     17  O   UNL     1       1.942   4.458  17.881  0.00  0.00    +0.000 OA
ATOM     18  H   UNL     1       1.300   3.744  18.031  0.00  0.00    +0.000 HD
ENDBRANCH  16  17
ENDBRANCH  14  16
ENDBRANCH  10  14
ENDBRANCH   1  11
BRANCH   6  19
ATOM     19  C   UNL     1      -3.180  13.017  23.076  0.00  0.00    +0.000 C 
BRANCH  19  20
ATOM     20  C   UNL     1      -2.488  14.158  23.866  0.00  0.00    +0.000 A 
ATOM     21  C   UNL     1      -1.256  14.696  23.427  0.00  0.00    +0.000 A 
ATOM     22  C   UNL     1      -0.620  15.732  24.120  0.00  0.00    +0.000 A 
ATOM     23  C   UNL     1      -1.187  16.259  25.273  0.00  0.00    +0.000 A 
ATOM     24  C   UNL     1      -2.405  15.758  25.727  0.00  0.00    +0.000 A 
ATOM     25  C   UNL     1      -3.049  14.727  25.032  0.00  0.00    +0.000 A 
ENDBRANCH  19  20
BRANCH  19  26
ATOM     26  C   UNL     1      -4.088  13.501  21.907  0.00  0.00    +0.000 A 
ATOM     27  C   UNL     1      -4.957  12.594  21.258  0.00  0.00    +0.000 A 
ATOM     28  C   UNL     1      -5.830  13.000  20.248  0.00  0.00    +0.000 A 
ATOM     29  C   UNL     1      -5.878  14.338  19.878  0.00  0.00    +0.000 A 
ATOM     30  C   UNL     1      -5.059  15.262  20.523  0.00  0.00    +0.000 A 
ATOM     31  C   UNL     1      -4.177  14.855  21.533  0.00  0.00    +0.000 A 
ENDBRANCH  19  26
BRANCH  19  32
ATOM     32  O   UNL     1      -4.075  12.327  23.965  0.00  0.00    +0.000 OA
ATOM     33  H   UNL     1      -4.806  11.987  23.423  0.00  0.00    +0.000 HD
ENDBRANCH  19  32
ENDBRANCH   6  19
BRANCH   7  34
ATOM     34  C   UNL     1      -1.455  13.006  20.325  0.00  0.00    +0.000 C 
BRANCH  34  35
ATOM     35  C   UNL     1      -0.167  13.724  19.796  0.00  0.00    +0.000 C 
ATOM     36  C   UNL     1       0.310  13.173  18.445  0.00  0.00    +0.000 C 
ATOM     37  C   UNL     1       1.772  13.468  18.158  0.00  0.00    +0.000 C 
ATOM     38  O   UNL     1       2.570  13.048  19.255  0.00  0.00    +0.000 OA
ATOM     39  C   UNL     1       2.367  13.849  20.417  0.00  0.00    +0.000 C 
ATOM     40  C   UNL     1       0.910  13.973  20.863  0.00  0.00    +0.000 C 
ENDBRANCH  34  35
ENDBRANCH   7  34
TORSDOF 10
ENDMDL
MODEL 7
REMARK VINA RESULT:      -6.8      0.991      1.306
REMARK  Name = 
REMARK  11 active torsions:
REMARK  status: ('A' for Active; 'I' for Inactive)
REMARK    1  A    between atoms: C_1  and  C_2
REMARK    2  A    between atoms: C_2  and  O_3
REMARK    3  A    between atoms: C_2  and  C_4
REMARK    4  A    between atoms: C_4  and  N_5
REMARK    5  A    between atoms: C_6  and  C_8
REMARK    6  A    between atoms: C_13  and  C_14
REMARK    7  A    between atoms: C_14  and  O_15
REMARK    8  A    between atoms: C_14  and  C_16
REMARK    9  A    between atoms: C_14  and  C_22
REMARK   10  A    between atoms: N_28  and  C_29
REMARK   11  A    between atoms: C_29  and  C_30
REMARK                            x       y       z     vdW  Elec       q    Type
REMARK                         _______ _______ _______ _____ _____    ______ ____
ROOT
ATOM      1  C   UNL     1       1.265   8.963  19.635  0.00  0.00    +0.000 A 
ATOM      2  C   UNL     1       1.357   8.482  20.942  0.00  0.00    +0.000 A 
ATOM      3  C   UNL     1       0.597   9.061  21.978  0.00  0.00    +0.000 A 
ATOM      4  C   UNL     1      -0.231  10.166  21.700  0.00  0.00    +0.000 A 
ATOM      5  N   UNL     1      -1.083  10.848  22.509  0.00  0.00    +0.000 NA
ATOM      6  C   UNL     1      -1.603  11.845  21.794  0.00  0.00    +0.000 A 
ATOM      7  N   UNL     1      -1.014  11.860  20.513  0.00  0.00    +0.000 N 
ATOM      8  C   UNL     1      -0.254  10.704  20.425  0.00  0.00    +0.000 A 
ATOM      9  C   UNL     1       0.441  10.067  19.392  0.00  0.00    +0.000 A 
ENDROOT
BRANCH   1  11
ATOM     10  N   UNL     1       2.594   7.063  18.781  0.00  0.00    +0.000 N 
ATOM     11  C   UNL     1       2.057   8.310  18.524  0.00  0.00    +0.000 C 
ATOM     12  O   UNL     1       2.207   8.883  17.450  0.00  0.00    +0.000 OA
ATOM     13  H   UNL     1       2.438   6.597  19.665  0.00  0.00    +0.000 HD
BRANCH  10  14
ATOM     14  C   UNL     1       3.331   6.256  17.825  0.00  0.00    +0.000 C 
BRANCH  14  16
ATOM     15  C   UNL     1       1.766   4.283  17.825  0.00  0.00    +0.000 C 
ATOM     16  C   UNL     1       3.202   4.736  18.047  0.00  0.00    +0.000 C 
BRANCH  16  17
ATOM     17  O   UNL     1       4.004   3.984  17.129  0.00  0.00    +0.000 OA
ATOM     18  H   UNL     1       4.882   3.864  17.531  0.00  0.00    +0.000 HD
ENDBRANCH  16  17
ENDBRANCH  14  16
ENDBRANCH  10  14
ENDBRANCH   1  11
BRANCH   6  19
ATOM     19  C   UNL     1      -2.627  12.847  22.409  0.00  0.00    +0.000 C 
BRANCH  19  20
ATOM     20  C   UNL     1      -2.031  14.279  22.401  0.00  0.00    +0.000 A 
ATOM     21  C   UNL     1      -0.793  14.549  23.029  0.00  0.00    +0.000 A 
ATOM     22  C   UNL     1      -0.233  15.830  23.026  0.00  0.00    +0.000 A 
ATOM     23  C   UNL     1      -0.890  16.884  22.403  0.00  0.00    +0.000 A 
ATOM     24  C   UNL     1      -2.107  16.650  21.767  0.00  0.00    +0.000 A 
ATOM     25  C   UNL     1      -2.667  15.366  21.761  0.00  0.00    +0.000 A 
ENDBRANCH  19  20
BRANCH  19  26
ATOM     26  C   UNL     1      -4.019  12.725  21.722  0.00  0.00    +0.000 A 
ATOM     27  C   UNL     1      -5.203  12.830  22.487  0.00  0.00    +0.000 A 
ATOM     28  C   UNL     1      -6.468  12.786  21.901  0.00  0.00    +0.000 A 
ATOM     29  C   UNL     1      -6.584  12.664  20.522  0.00  0.00    +0.000 A 
ATOM     30  C   UNL     1      -5.436  12.593  19.737  0.00  0.00    +0.000 A 
ATOM     31  C   UNL     1      -4.165  12.631  20.325  0.00  0.00    +0.000 A 
ENDBRANCH  19  26
BRANCH  19  32
ATOM     32  O   UNL     1      -2.865  12.462  23.774  0.00  0.00    +0.000 OA
ATOM     33  H   UNL     1      -2.052  12.039  24.095  0.00  0.00    +0.000 HD
ENDBRANCH  19  32
ENDBRANCH   6  19
BRANCH   7  34
ATOM     34  C   UNL     1      -1.010  13.003  19.598  0.00  0.00    +0.000 C 
BRANCH  34  35
ATOM     35  C   UNL     1       0.256  13.839  19.206  0.00  0.00    +0.000 C 
ATOM     36  C   UNL     1       1.428  13.636  20.176  0.00  0.00    +0.000 C 
ATOM     37  C   UNL     1       2.445  14.762  20.133  0.00  0.00    +0.000 C 
ATOM     38  O   UNL     1       1.787  16.010  20.294  0.00  0.00    +0.000 OA
ATOM     39  C   UNL     1       0.977  16.349  19.170  0.00  0.00    +0.000 C 
ATOM     40  C   UNL     1      -0.041  15.282  18.768  0.00  0.00    +0.000 C 
ENDBRANCH  34  35
ENDBRANCH   7  34
TORSDOF 10
ENDMDL
MODEL 8
REMARK VINA RESULT:      -6.8      1.514      3.539
REMARK  Name = 
REMARK  11 active torsions:
REMARK  status: ('A' for Active; 'I' for Inactive)
REMARK    1  A    between atoms: C_1  and  C_2
REMARK    2  A    between atoms: C_2  and  O_3
REMARK    3  A    between atoms: C_2  and  C_4
REMARK    4  A    between atoms: C_4  and  N_5
REMARK    5  A    between atoms: C_6  and  C_8
REMARK    6  A    between atoms: C_13  and  C_14
REMARK    7  A    between atoms: C_14  and  O_15
REMARK    8  A    between atoms: C_14  and  C_16
REMARK    9  A    between atoms: C_14  and  C_22
REMARK   10  A    between atoms: N_28  and  C_29
REMARK   11  A    between atoms: C_29  and  C_30
REMARK                            x       y       z     vdW  Elec       q    Type
REMARK                         _______ _______ _______ _____ _____    ______ ____
ROOT
ATOM      1  C   UNL     1       1.374   8.387  20.306  0.00  0.00    +0.000 A 
ATOM      2  C   UNL     1       0.881   8.150  21.591  0.00  0.00    +0.000 A 
ATOM      3  C   UNL     1       0.014   9.072  22.211  0.00  0.00    +0.000 A 
ATOM      4  C   UNL     1      -0.322  10.267  21.546  0.00  0.00    +0.000 A 
ATOM      5  N   UNL     1      -1.166  11.267  21.914  0.00  0.00    +0.000 NA
ATOM      6  C   UNL     1      -1.110  12.205  20.969  0.00  0.00    +0.000 A 
ATOM      7  N   UNL     1      -0.147  11.844  20.006  0.00  0.00    +0.000 N 
ATOM      8  C   UNL     1       0.237  10.549  20.312  0.00  0.00    +0.000 A 
ATOM      9  C   UNL     1       1.028   9.587  19.675  0.00  0.00    +0.000 A 
ENDROOT
BRANCH   1  11
ATOM     10  N   UNL     1       2.546   6.212  20.333  0.00  0.00    +0.000 N 
ATOM     11  C   UNL     1       2.273   7.373  19.635  0.00  0.00    +0.000 C 
ATOM     12  O   UNL     1       2.733   7.594  18.519  0.00  0.00    +0.000 OA
ATOM     13  H   UNL     1       2.137   6.038  21.241  0.00  0.00    +0.000 HD
BRANCH  10  14
ATOM     14  C   UNL     1       3.336   5.100  19.833  0.00  0.00    +0.000 C 
BRANCH  14  16
ATOM     15  C   UNL     1       1.236   3.715  19.719  0.00  0.00    +0.000 C 
ATOM     16  C   UNL     1       2.534   4.073  19.009  0.00  0.00    +0.000 C 
BRANCH  16  17
ATOM     17  O   UNL     1       2.160   4.583  17.724  0.00  0.00    +0.000 OA
ATOM     18  H   UNL     1       2.114   5.552  17.790  0.00  0.00    +0.000 HD
ENDBRANCH  16  17
ENDBRANCH  14  16
ENDBRANCH  10  14
ENDBRANCH   1  11
BRANCH   6  19
ATOM     19  C   UNL     1      -1.952  13.515  21.065  0.00  0.00    +0.000 C 
BRANCH  19  20
ATOM     20  C   UNL     1      -3.108  13.324  22.082  0.00  0.00    +0.000 A 
ATOM     21  C   UNL     1      -2.874  13.451  23.471  0.00  0.00    +0.000 A 
ATOM     22  C   UNL     1      -3.902  13.292  24.405  0.00  0.00    +0.000 A 
ATOM     23  C   UNL     1      -5.194  12.997  23.987  0.00  0.00    +0.000 A 
ATOM     24  C   UNL     1      -5.460  12.875  22.624  0.00  0.00    +0.000 A 
ATOM     25  C   UNL     1      -4.434  13.041  21.686  0.00  0.00    +0.000 A 
ENDBRANCH  19  20
BRANCH  19  26
ATOM     26  C   UNL     1      -1.046  14.750  21.342  0.00  0.00    +0.000 A 
ATOM     27  C   UNL     1      -0.209  14.777  22.482  0.00  0.00    +0.000 A 
ATOM     28  C   UNL     1       0.661  15.838  22.734  0.00  0.00    +0.000 A 
ATOM     29  C   UNL     1       0.740  16.892  21.833  0.00  0.00    +0.000 A 
ATOM     30  C   UNL     1      -0.046  16.878  20.683  0.00  0.00    +0.000 A 
ATOM     31  C   UNL     1      -0.925  15.816  20.432  0.00  0.00    +0.000 A 
ENDBRANCH  19  26
BRANCH  19  32
ATOM     32  O   UNL     1      -2.526  13.773  19.771  0.00  0.00    +0.000 OA
ATOM     33  H   UNL     1      -2.402  14.719  19.590  0.00  0.00    +0.000 HD
ENDBRANCH  19  32
ENDBRANCH   6  19
BRANCH   7  34
ATOM     34  C   UNL     1       0.488  12.764  19.060  0.00  0.00    +0.000 C 
BRANCH  34  35
ATOM     35  C   UNL     1       1.966  13.277  19.156  0.00  0.00    +0.000 C 
ATOM     36  C   UNL     1       2.467  13.381  20.603  0.00  0.00    +0.000 C 
ATOM     37  C   UNL     1       3.654  14.316  20.762  0.00  0.00    +0.000 C 
ATOM     38  O   UNL     1       3.354  15.574  20.175  0.00  0.00    +0.000 OA
ATOM     39  C   UNL     1       3.266  15.506  18.753  0.00  0.00    +0.000 C 
ATOM     40  C   UNL     1       2.298  14.450  18.221  0.00  0.00    +0.000 C 
ENDBRANCH  34  35
ENDBRANCH   7  34
TORSDOF 10
ENDMDL
MODEL 9
REMARK VINA RESULT:      -6.7      1.551      2.067
REMARK  Name = 
REMARK  11 active torsions:
REMARK  status: ('A' for Active; 'I' for Inactive)
REMARK    1  A    between atoms: C_1  and  C_2
REMARK    2  A    between atoms: C_2  and  O_3
REMARK    3  A    between atoms: C_2  and  C_4
REMARK    4  A    between atoms: C_4  and  N_5
REMARK    5  A    between atoms: C_6  and  C_8
REMARK    6  A    between atoms: C_13  and  C_14
REMARK    7  A    between atoms: C_14  and  O_15
REMARK    8  A    between atoms: C_14  and  C_16
REMARK    9  A    between atoms: C_14  and  C_22
REMARK   10  A    between atoms: N_28  and  C_29
REMARK   11  A    between atoms: C_29  and  C_30
REMARK                            x       y       z     vdW  Elec       q    Type
REMARK                         _______ _______ _______ _____ _____    ______ ____
ROOT
ATOM      1  C   UNL     1       0.898   9.409  20.149  0.00  0.00    +0.000 A 
ATOM      2  C   UNL     1       1.046   8.881  21.433  0.00  0.00    +0.000 A 
ATOM      3  C   UNL     1       0.271   9.366  22.506  0.00  0.00    +0.000 A 
ATOM      4  C   UNL     1      -0.631  10.426  22.290  0.00  0.00    +0.000 A 
ATOM      5  N   UNL     1      -1.509  11.017  23.142  0.00  0.00    +0.000 NA
ATOM      6  C   UNL     1      -2.106  12.006  22.478  0.00  0.00    +0.000 A 
ATOM      7  N   UNL     1      -1.545  12.112  21.189  0.00  0.00    +0.000 N 
ATOM      8  C   UNL     1      -0.715  11.013  21.039  0.00  0.00    +0.000 A 
ATOM      9  C   UNL     1      -0.001  10.466  19.968  0.00  0.00    +0.000 A 
ENDROOT
BRANCH   1  11
ATOM     10  N   UNL     1       2.279   7.609  19.170  0.00  0.00    +0.000 N 
ATOM     11  C   UNL     1       1.707   8.855  18.998  0.00  0.00    +0.000 C 
ATOM     12  O   UNL     1       1.840   9.504  17.965  0.00  0.00    +0.000 OA
ATOM     13  H   UNL     1       2.136   7.080  20.021  0.00  0.00    +0.000 HD
BRANCH  10  14
ATOM     14  C   UNL     1       3.038   6.890  18.163  0.00  0.00    +0.000 C 
BRANCH  14  16
ATOM     15  C   UNL     1       3.951   4.682  17.367  0.00  0.00    +0.000 C 
ATOM     16  C   UNL     1       3.429   5.455  18.569  0.00  0.00    +0.000 C 
BRANCH  16  17
ATOM     17  O   UNL     1       4.479   5.435  19.543  0.00  0.00    +0.000 OA
ATOM     18  H   UNL     1       5.060   6.195  19.370  0.00  0.00    +0.000 HD
ENDBRANCH  16  17
ENDBRANCH  14  16
ENDBRANCH  10  14
ENDBRANCH   1  11
BRANCH   6  19
ATOM     19  C   UNL     1      -3.180  12.913  23.153  0.00  0.00    +0.000 C 
BRANCH  19  20
ATOM     20  C   UNL     1      -2.485  14.043  23.957  0.00  0.00    +0.000 A 
ATOM     21  C   UNL     1      -3.117  14.624  25.081  0.00  0.00    +0.000 A 
ATOM     22  C   UNL     1      -2.503  15.637  25.825  0.00  0.00    +0.000 A 
ATOM     23  C   UNL     1      -1.245  16.107  25.470  0.00  0.00    +0.000 A 
ATOM     24  C   UNL     1      -0.591  15.550  24.373  0.00  0.00    +0.000 A 
ATOM     25  C   UNL     1      -1.199  14.529  23.631  0.00  0.00    +0.000 A 
ENDBRANCH  19  20
BRANCH  19  26
ATOM     26  C   UNL     1      -4.230  13.412  22.117  0.00  0.00    +0.000 A 
ATOM     27  C   UNL     1      -4.334  14.789  21.814  0.00  0.00    +0.000 A 
ATOM     28  C   UNL     1      -5.219  15.269  20.849  0.00  0.00    +0.000 A 
ATOM     29  C   UNL     1      -6.009  14.376  20.135  0.00  0.00    +0.000 A 
ATOM     30  C   UNL     1      -5.905  13.010  20.386  0.00  0.00    +0.000 A 
ATOM     31  C   UNL     1      -5.020  12.527  21.360  0.00  0.00    +0.000 A 
ENDBRANCH  19  26
BRANCH  19  32
ATOM     32  O   UNL     1      -3.937  12.104  24.071  0.00  0.00    +0.000 OA
ATOM     33  H   UNL     1      -4.872  12.193  23.822  0.00  0.00    +0.000 HD
ENDBRANCH  19  32
ENDBRANCH   6  19
BRANCH   7  34
ATOM     34  C   UNL     1      -1.634  13.290  20.324  0.00  0.00    +0.000 C 
BRANCH  34  35
ATOM     35  C   UNL     1      -0.614  14.480  20.316  0.00  0.00    +0.000 C 
ATOM     36  C   UNL     1      -1.288  15.840  20.088  0.00  0.00    +0.000 C 
ATOM     37  C   UNL     1      -0.332  16.906  19.581  0.00  0.00    +0.000 C 
ATOM     38  O   UNL     1       0.366  16.423  18.443  0.00  0.00    +0.000 OA
ATOM     39  C   UNL     1       1.286  15.383  18.768  0.00  0.00    +0.000 C 
ATOM     40  C   UNL     1       0.681  14.207  19.533  0.00  0.00    +0.000 C 
ENDBRANCH  34  35
ENDBRANCH   7  34
TORSDOF 10
ENDMDL
