MODEL 1
REMARK VINA RESULT:      -7.6      0.000      0.000
REMARK  Name = 
REMARK  3 active torsions:
REMARK  status: ('A' for Active; 'I' for Inactive)
REMARK    1  A    between atoms: C_1  and  C_2
REMARK    2  A    between atoms: C_2  and  C_3
REMARK    3  A    between atoms: C_8  and  C_9
REMARK                            x       y       z     vdW  Elec       q    Type
REMARK                         _______ _______ _______ _____ _____    ______ ____
ROOT
ATOM      1  C   UNL     1       2.250   4.588  21.324  0.00  0.00    +0.000 C 
ATOM      2  C   UNL     1       2.133   3.648  20.113  0.00  0.00    +0.000 C 
ATOM      3  C   UNL     1       1.267   2.437  20.493  0.00  0.00    +0.000 C 
ATOM      4  C   UNL     1       1.480   4.364  18.929  0.00  0.00    +0.000 C 
ATOM      5  C   UNL     1       2.428   5.331  18.272  0.00  0.00    +0.000 C 
ATOM      6  O   UNL     1       2.033   6.402  17.809  0.00  0.00    +0.000 OA
ATOM      7  C   UNL     1       3.830   4.860  18.097  0.00  0.00    +0.000 C 
ATOM      8  C   UNL     1       4.466   5.226  16.964  0.00  0.00    +0.000 C 
ATOM      9  C   UNL     1       4.384   3.856  19.039  0.00  0.00    +0.000 C 
ATOM     10  O   UNL     1       5.574   3.605  19.165  0.00  0.00    +0.000 OA
ATOM     11  N   UNL     1       3.463   3.162  19.769  0.00  0.00    +0.000 N 
ATOM     12  H   UNL     1       3.916   2.528  20.423  0.00  0.00    +0.000 HD
ENDROOT
BRANCH   8  13
ATOM     13  C   UNL     1       5.788   4.702  16.467  0.00  0.00    +0.000 C 
ATOM     14  C   UNL     1       5.713   4.395  14.958  0.00  0.00    +0.000 C 
ATOM     15  C   UNL     1       7.098   4.711  14.428  0.00  0.00    +0.000 C 
ATOM     16  N   UNL     1       7.573   5.736  15.308  0.00  0.00    +0.000 N 
ATOM     17  C   UNL     1       6.929   5.709  16.529  0.00  0.00    +0.000 C 
ATOM     18  S   UNL     1       7.444   6.565  17.850  0.00  0.00    +0.000 S 
ATOM     19  H   UNL     1       8.453   6.228  15.196  0.00  0.00    +0.000 HD
ENDBRANCH   8  13
TORSDOF 1
ENDMDL
MODEL 2
REMARK VINA RESULT:      -7.2      1.793      2.784
REMARK  Name = 
REMARK  3 active torsions:
REMARK  status: ('A' for Active; 'I' for Inactive)
REMARK    1  A    between atoms: C_1  and  C_2
REMARK    2  A    between atoms: C_2  and  C_3
REMARK    3  A    between atoms: C_8  and  C_9
REMARK                            x       y       z     vdW  Elec       q    Type
REMARK                         _______ _______ _______ _____ _____    ______ ____
ROOT
ATOM      1  C   UNL     1       0.507   2.679  19.239  0.00  0.00    +0.000 C 
ATOM      2  C   UNL     1       1.753   3.152  20.005  0.00  0.00    +0.000 C 
ATOM      3  C   UNL     1       1.420   3.252  21.501  0.00  0.00    +0.000 C 
ATOM      4  C   UNL     1       2.909   2.166  19.826  0.00  0.00    +0.000 C 
ATOM      5  C   UNL     1       3.527   2.277  18.458  0.00  0.00    +0.000 C 
ATOM      6  O   UNL     1       3.950   1.285  17.862  0.00  0.00    +0.000 OA
ATOM      7  C   UNL     1       3.719   3.657  17.934  0.00  0.00    +0.000 C 
ATOM      8  C   UNL     1       4.837   3.894  17.214  0.00  0.00    +0.000 C 
ATOM      9  C   UNL     1       2.815   4.742  18.391  0.00  0.00    +0.000 C 
ATOM     10  O   UNL     1       2.698   5.827  17.839  0.00  0.00    +0.000 OA
ATOM     11  N   UNL     1       2.114   4.482  19.532  0.00  0.00    +0.000 N 
ATOM     12  H   UNL     1       1.484   5.249  19.758  0.00  0.00    +0.000 HD
ENDROOT
BRANCH   8  13
ATOM     13  C   UNL     1       5.352   5.238  16.772  0.00  0.00    +0.000 C 
ATOM     14  C   UNL     1       6.118   5.926  17.919  0.00  0.00    +0.000 C 
ATOM     15  C   UNL     1       7.218   6.714  17.235  0.00  0.00    +0.000 C 
ATOM     16  N   UNL     1       7.485   5.962  16.045  0.00  0.00    +0.000 N 
ATOM     17  C   UNL     1       6.409   5.179  15.677  0.00  0.00    +0.000 C 
ATOM     18  S   UNL     1       6.293   4.424  14.207  0.00  0.00    +0.000 S 
ATOM     19  H   UNL     1       8.223   6.176  15.383  0.00  0.00    +0.000 HD
ENDBRANCH   8  13
TORSDOF 1
ENDMDL
MODEL 3
REMARK VINA RESULT:      -7.0      1.001      1.023
REMARK  Name = 
REMARK  3 active torsions:
REMARK  status: ('A' for Active; 'I' for Inactive)
REMARK    1  A    between atoms: C_1  and  C_2
REMARK    2  A    between atoms: C_2  and  C_3
REMARK    3  A    between atoms: C_8  and  C_9
REMARK                            x       y       z     vdW  Elec       q    Type
REMARK                         _______ _______ _______ _____ _____    ______ ____
ROOT
ATOM      1  C   UNL     1       2.003   4.405  21.238  0.00  0.00    +0.000 C 
ATOM      2  C   UNL     1       2.429   3.141  20.475  0.00  0.00    +0.000 C 
ATOM      3  C   UNL     1       2.164   1.907  21.351  0.00  0.00    +0.000 C 
ATOM      4  C   UNL     1       1.635   2.996  19.175  0.00  0.00    +0.000 C 
ATOM      5  C   UNL     1       2.107   3.966  18.126  0.00  0.00    +0.000 C 
ATOM      6  O   UNL     1       1.319   4.493  17.337  0.00  0.00    +0.000 OA
ATOM      7  C   UNL     1       3.581   4.144  18.010  0.00  0.00    +0.000 C 
ATOM      8  C   UNL     1       4.087   4.310  16.770  0.00  0.00    +0.000 C 
ATOM      9  C   UNL     1       4.437   3.921  19.202  0.00  0.00    +0.000 C 
ATOM     10  O   UNL     1       5.596   4.295  19.303  0.00  0.00    +0.000 OA
ATOM     11  N   UNL     1       3.861   3.212  20.216  0.00  0.00    +0.000 N 
ATOM     12  H   UNL     1       4.488   3.139  21.014  0.00  0.00    +0.000 HD
ENDROOT
BRANCH   8  13
ATOM     13  C   UNL     1       5.543   4.291  16.383  0.00  0.00    +0.000 C 
ATOM     14  C   UNL     1       5.724   3.635  15.000  0.00  0.00    +0.000 C 
ATOM     15  C   UNL     1       6.892   4.370  14.373  0.00  0.00    +0.000 C 
ATOM     16  N   UNL     1       6.828   5.675  14.958  0.00  0.00    +0.000 N 
ATOM     17  C   UNL     1       6.155   5.668  16.164  0.00  0.00    +0.000 C 
ATOM     18  S   UNL     1       6.160   6.946  17.218  0.00  0.00    +0.000 S 
ATOM     19  H   UNL     1       7.431   6.450  14.705  0.00  0.00    +0.000 HD
ENDBRANCH   8  13
TORSDOF 1
ENDMDL
MODEL 4
REMARK VINA RESULT:      -6.7      1.940      2.836
REMARK  Name = 
REMARK  3 active torsions:
REMARK  status: ('A' for Active; 'I' for Inactive)
REMARK    1  A    between atoms: C_1  and  C_2
REMARK    2  A    between atoms: C_2  and  C_3
REMARK    3  A    between atoms: C_8  and  C_9
REMARK                            x       y       z     vdW  Elec       q    Type
REMARK                         _______ _______ _______ _____ _____    ______ ____
ROOT
ATOM      1  C   UNL     1       0.610   2.950  19.383  0.00  0.00    +0.000 C 
ATOM      2  C   UNL     1       1.811   3.023  20.339  0.00  0.00    +0.000 C 
ATOM      3  C   UNL     1       1.358   2.627  21.753  0.00  0.00    +0.000 C 
ATOM      4  C   UNL     1       2.918   2.065  19.895  0.00  0.00    +0.000 C 
ATOM      5  C   UNL     1       3.657   2.588  18.693  0.00  0.00    +0.000 C 
ATOM      6  O   UNL     1       4.070   1.831  17.813  0.00  0.00    +0.000 OA
ATOM      7  C   UNL     1       3.974   4.044  18.698  0.00  0.00    +0.000 C 
ATOM      8  C   UNL     1       5.160   4.419  18.175  0.00  0.00    +0.000 C 
ATOM      9  C   UNL     1       3.099   4.977  19.452  0.00  0.00    +0.000 C 
ATOM     10  O   UNL     1       3.093   6.191  19.309  0.00  0.00    +0.000 OA
ATOM     11  N   UNL     1       2.289   4.398  20.386  0.00  0.00    +0.000 N 
ATOM     12  H   UNL     1       1.688   5.091  20.828  0.00  0.00    +0.000 HD
ENDROOT
BRANCH   8  13
ATOM     13  C   UNL     1       5.790   5.784  18.264  0.00  0.00    +0.000 C 
ATOM     14  C   UNL     1       7.145   5.707  18.994  0.00  0.00    +0.000 C 
ATOM     15  C   UNL     1       8.004   6.766  18.332  0.00  0.00    +0.000 C 
ATOM     16  N   UNL     1       7.489   6.837  16.998  0.00  0.00    +0.000 N 
ATOM     17  C   UNL     1       6.187   6.384  16.922  0.00  0.00    +0.000 C 
ATOM     18  S   UNL     1       5.222   6.604  15.593  0.00  0.00    +0.000 S 
ATOM     19  H   UNL     1       7.885   7.406  16.257  0.00  0.00    +0.000 HD
ENDBRANCH   8  13
TORSDOF 1
ENDMDL
MODEL 5
REMARK VINA RESULT:      -6.6      2.083      2.470
REMARK  Name = 
REMARK  3 active torsions:
REMARK  status: ('A' for Active; 'I' for Inactive)
REMARK    1  A    between atoms: C_1  and  C_2
REMARK    2  A    between atoms: C_2  and  C_3
REMARK    3  A    between atoms: C_8  and  C_9
REMARK                            x       y       z     vdW  Elec       q    Type
REMARK                         _______ _______ _______ _____ _____    ______ ____
ROOT
ATOM      1  C   UNL     1       0.466   3.816  20.221  0.00  0.00    +0.000 C 
ATOM      2  C   UNL     1       1.828   3.161  20.500  0.00  0.00    +0.000 C 
ATOM      3  C   UNL     1       1.819   2.557  21.913  0.00  0.00    +0.000 C 
ATOM      4  C   UNL     1       2.112   2.045  19.493  0.00  0.00    +0.000 C 
ATOM      5  C   UNL     1       2.490   2.597  18.145  0.00  0.00    +0.000 C 
ATOM      6  O   UNL     1       2.143   2.040  17.102  0.00  0.00    +0.000 OA
ATOM      7  C   UNL     1       3.412   3.767  18.148  0.00  0.00    +0.000 C 
ATOM      8  C   UNL     1       4.340   3.823  17.169  0.00  0.00    +0.000 C 
ATOM      9  C   UNL     1       3.421   4.684  19.315  0.00  0.00    +0.000 C 
ATOM     10  O   UNL     1       3.918   5.801  19.315  0.00  0.00    +0.000 OA
ATOM     11  N   UNL     1       2.859   4.190  20.456  0.00  0.00    +0.000 N 
ATOM     12  H   UNL     1       2.859   4.888  21.196  0.00  0.00    +0.000 HD
ENDROOT
BRANCH   8  13
ATOM     13  C   UNL     1       5.505   4.775  17.089  0.00  0.00    +0.000 C 
ATOM     14  C   UNL     1       6.418   4.615  18.321  0.00  0.00    +0.000 C 
ATOM     15  C   UNL     1       7.817   4.885  17.804  0.00  0.00    +0.000 C 
ATOM     16  N   UNL     1       7.759   4.478  16.432  0.00  0.00    +0.000 N 
ATOM     17  C   UNL     1       6.468   4.498  15.942  0.00  0.00    +0.000 C 
ATOM     18  S   UNL     1       6.103   4.363  14.332  0.00  0.00    +0.000 S 
ATOM     19  H   UNL     1       8.553   4.462  15.802  0.00  0.00    +0.000 HD
ENDBRANCH   8  13
TORSDOF 1
ENDMDL
MODEL 6
REMARK VINA RESULT:      -6.6      1.677      2.946
REMARK  Name = 
REMARK  3 active torsions:
REMARK  status: ('A' for Active; 'I' for Inactive)
REMARK    1  A    between atoms: C_1  and  C_2
REMARK    2  A    between atoms: C_2  and  C_3
REMARK    3  A    between atoms: C_8  and  C_9
REMARK                            x       y       z     vdW  Elec       q    Type
REMARK                         _______ _______ _______ _____ _____    ______ ____
ROOT
ATOM      1  C   UNL     1       1.343   2.109  18.945  0.00  0.00    +0.000 C 
ATOM      2  C   UNL     1       1.870   3.171  19.924  0.00  0.00    +0.000 C 
ATOM      3  C   UNL     1       0.818   3.421  21.015  0.00  0.00    +0.000 C 
ATOM      4  C   UNL     1       3.164   2.702  20.592  0.00  0.00    +0.000 C 
ATOM      5  C   UNL     1       4.335   2.778  19.649  0.00  0.00    +0.000 C 
ATOM      6  O   UNL     1       5.234   1.936  19.672  0.00  0.00    +0.000 OA
ATOM      7  C   UNL     1       4.410   3.994  18.792  0.00  0.00    +0.000 C 
ATOM      8  C   UNL     1       5.637   4.505  18.552  0.00  0.00    +0.000 C 
ATOM      9  C   UNL     1       3.160   4.705  18.425  0.00  0.00    +0.000 C 
ATOM     10  O   UNL     1       3.068   5.527  17.526  0.00  0.00    +0.000 OA
ATOM     11  N   UNL     1       2.072   4.417  19.197  0.00  0.00    +0.000 N 
ATOM     12  H   UNL     1       1.244   4.904  18.859  0.00  0.00    +0.000 HD
ENDROOT
BRANCH   8  13
ATOM     13  C   UNL     1       5.947   5.830  17.907  0.00  0.00    +0.000 C 
ATOM     14  C   UNL     1       7.154   6.495  18.597  0.00  0.00    +0.000 C 
ATOM     15  C   UNL     1       7.870   7.244  17.491  0.00  0.00    +0.000 C 
ATOM     16  N   UNL     1       7.573   6.481  16.315  0.00  0.00    +0.000 N 
ATOM     17  C   UNL     1       6.423   5.732  16.463  0.00  0.00    +0.000 C 
ATOM     18  S   UNL     1       5.659   4.978  15.202  0.00  0.00    +0.000 S 
ATOM     19  H   UNL     1       7.957   6.668  15.395  0.00  0.00    +0.000 HD
ENDBRANCH   8  13
TORSDOF 1
ENDMDL
MODEL 7
REMARK VINA RESULT:      -6.1      3.521      4.841
REMARK  Name = 
REMARK  3 active torsions:
REMARK  status: ('A' for Active; 'I' for Inactive)
REMARK    1  A    between atoms: C_1  and  C_2
REMARK    2  A    between atoms: C_2  and  C_3
REMARK    3  A    between atoms: C_8  and  C_9
REMARK                            x       y       z     vdW  Elec       q    Type
REMARK                         _______ _______ _______ _____ _____    ______ ____
ROOT
ATOM      1  C   UNL     1       4.476   1.838  20.438  0.00  0.00    +0.000 C 
ATOM      2  C   UNL     1       3.709   2.340  19.204  0.00  0.00    +0.000 C 
ATOM      3  C   UNL     1       3.918   1.355  18.043  0.00  0.00    +0.000 C 
ATOM      4  C   UNL     1       2.211   2.440  19.497  0.00  0.00    +0.000 C 
ATOM      5  C   UNL     1       1.892   3.630  20.361  0.00  0.00    +0.000 C 
ATOM      6  O   UNL     1       1.006   3.584  21.216  0.00  0.00    +0.000 OA
ATOM      7  C   UNL     1       2.609   4.893  20.031  0.00  0.00    +0.000 C 
ATOM      8  C   UNL     1       1.919   6.046  20.157  0.00  0.00    +0.000 C 
ATOM      9  C   UNL     1       3.945   4.825  19.387  0.00  0.00    +0.000 C 
ATOM     10  O   UNL     1       4.732   5.757  19.322  0.00  0.00    +0.000 OA
ATOM     11  N   UNL     1       4.258   3.630  18.806  0.00  0.00    +0.000 N 
ATOM     12  H   UNL     1       5.202   3.643  18.428  0.00  0.00    +0.000 HD
ENDROOT
BRANCH   8  13
ATOM     13  C   UNL     1       2.350   7.408  19.682  0.00  0.00    +0.000 C 
ATOM     14  C   UNL     1       2.153   7.535  18.158  0.00  0.00    +0.000 C 
ATOM     15  C   UNL     1       1.786   8.989  17.934  0.00  0.00    +0.000 C 
ATOM     16  N   UNL     1       1.132   9.367  19.151  0.00  0.00    +0.000 N 
ATOM     17  C   UNL     1       1.501   8.558  20.208  0.00  0.00    +0.000 C 
ATOM     18  S   UNL     1       1.151   8.909  21.788  0.00  0.00    +0.000 S 
ATOM     19  H   UNL     1       0.695  10.267  19.314  0.00  0.00    +0.000 HD
ENDBRANCH   8  13
TORSDOF 1
ENDMDL
MODEL 8
REMARK VINA RESULT:      -6.1      2.271      5.853
REMARK  Name = 
REMARK  3 active torsions:
REMARK  status: ('A' for Active; 'I' for Inactive)
REMARK    1  A    between atoms: C_1  and  C_2
REMARK    2  A    between atoms: C_2  and  C_3
REMARK    3  A    between atoms: C_8  and  C_9
REMARK                            x       y       z     vdW  Elec       q    Type
REMARK                         _______ _______ _______ _____ _____    ______ ____
ROOT
ATOM      1  C   UNL     1       5.805   6.170  15.268  0.00  0.00    +0.000 C 
ATOM      2  C   UNL     1       5.877   4.657  15.531  0.00  0.00    +0.000 C 
ATOM      3  C   UNL     1       6.317   3.940  14.246  0.00  0.00    +0.000 C 
ATOM      4  C   UNL     1       6.887   4.344  16.636  0.00  0.00    +0.000 C 
ATOM      5  C   UNL     1       6.352   4.703  17.996  0.00  0.00    +0.000 C 
ATOM      6  O   UNL     1       7.087   5.155  18.877  0.00  0.00    +0.000 OA
ATOM      7  C   UNL     1       4.927   4.356  18.255  0.00  0.00    +0.000 C 
ATOM      8  C   UNL     1       4.612   3.927  19.495  0.00  0.00    +0.000 C 
ATOM      9  C   UNL     1       3.977   4.287  17.117  0.00  0.00    +0.000 C 
ATOM     10  O   UNL     1       2.759   4.285  17.229  0.00  0.00    +0.000 OA
ATOM     11  N   UNL     1       4.545   4.180  15.881  0.00  0.00    +0.000 N 
ATOM     12  H   UNL     1       3.837   4.185  15.151  0.00  0.00    +0.000 HD
ENDROOT
BRANCH   8  13
ATOM     13  C   UNL     1       3.305   3.319  19.930  0.00  0.00    +0.000 C 
ATOM     14  C   UNL     1       3.552   2.132  20.883  0.00  0.00    +0.000 C 
ATOM     15  C   UNL     1       2.386   2.162  21.851  0.00  0.00    +0.000 C 
ATOM     16  N   UNL     1       2.026   3.547  21.908  0.00  0.00    +0.000 N 
ATOM     17  C   UNL     1       2.437   4.234  20.784  0.00  0.00    +0.000 C 
ATOM     18  S   UNL     1       1.927   5.767  20.416  0.00  0.00    +0.000 S 
ATOM     19  H   UNL     1       1.316   3.932  22.522  0.00  0.00    +0.000 HD
ENDBRANCH   8  13
TORSDOF 1
ENDMDL
MODEL 9
REMARK VINA RESULT:      -5.9      2.137      5.922
REMARK  Name = 
REMARK  3 active torsions:
REMARK  status: ('A' for Active; 'I' for Inactive)
REMARK    1  A    between atoms: C_1  and  C_2
REMARK    2  A    between atoms: C_2  and  C_3
REMARK    3  A    between atoms: C_8  and  C_9
REMARK                            x       y       z     vdW  Elec       q    Type
REMARK                         _______ _______ _______ _____ _____    ______ ____
ROOT
ATOM      1  C   UNL     1       7.076   7.139  16.656  0.00  0.00    +0.000 C 
ATOM      2  C   UNL     1       6.862   5.624  16.507  0.00  0.00    +0.000 C 
ATOM      3  C   UNL     1       7.527   5.144  15.208  0.00  0.00    +0.000 C 
ATOM      4  C   UNL     1       7.483   4.868  17.683  0.00  0.00    +0.000 C 
ATOM      5  C   UNL     1       6.656   5.010  18.933  0.00  0.00    +0.000 C 
ATOM      6  O   UNL     1       7.182   5.089  20.045  0.00  0.00    +0.000 OA
ATOM      7  C   UNL     1       5.180   4.912  18.760  0.00  0.00    +0.000 C 
ATOM      8  C   UNL     1       4.485   4.285  19.733  0.00  0.00    +0.000 C 
ATOM      9  C   UNL     1       4.572   5.299  17.463  0.00  0.00    +0.000 C 
ATOM     10  O   UNL     1       3.382   5.521  17.294  0.00  0.00    +0.000 OA
ATOM     11  N   UNL     1       5.432   5.363  16.405  0.00  0.00    +0.000 N 
ATOM     12  H   UNL     1       4.955   5.678  15.564  0.00  0.00    +0.000 HD
ENDROOT
BRANCH   8  13
ATOM     13  C   UNL     1       3.037   3.875  19.681  0.00  0.00    +0.000 C 
ATOM     14  C   UNL     1       2.847   2.485  20.320  0.00  0.00    +0.000 C 
ATOM     15  C   UNL     1       1.477   2.539  20.967  0.00  0.00    +0.000 C 
ATOM     16  N   UNL     1       1.312   3.922  21.301  0.00  0.00    +0.000 N 
ATOM     17  C   UNL     1       2.107   4.740  20.522  0.00  0.00    +0.000 C 
ATOM     18  S   UNL     1       1.936   6.387  20.461  0.00  0.00    +0.000 S 
ATOM     19  H   UNL     1       0.524   4.301  21.814  0.00  0.00    +0.000 HD
ENDBRANCH   8  13
TORSDOF 1
ENDMDL
