MODEL 1
REMARK VINA RESULT:      -8.7      0.000      0.000
REMARK  Name = 
REMARK  9 active torsions:
REMARK  status: ('A' for Active; 'I' for Inactive)
REMARK    1  A    between atoms: C_1  and  O_2
REMARK    2  A    between atoms: O_2  and  C_3
REMARK    3  A    between atoms: C_6  and  N_7
REMARK    4  A    between atoms: C_11  and  N_12
REMARK    5  A    between atoms: N_12  and  N_13
REMARK    6  A    between atoms: C_16  and  C_17
REMARK    7  A    between atoms: C_19  and  C_20
REMARK    8  A    between atoms: C_31  and  O_32
REMARK    9  A    between atoms: O_32  and  C_33
REMARK                            x       y       z     vdW  Elec       q    Type
REMARK                         _______ _______ _______ _____ _____    ______ ____
ROOT
ATOM      1  N   UNL     1       4.138   4.764  18.262  0.00  0.00    +0.000 N 
ATOM      2  C   UNL     1       2.801   4.881  17.868  0.00  0.00    +0.000 C 
ATOM      3  O   UNL     1       2.326   4.561  16.780  0.00  0.00    +0.000 OA
ATOM      4  C   UNL     1       1.931   5.097  19.055  0.00  0.00    +0.000 C 
ATOM      5  C   UNL     1       1.812   6.277  19.688  0.00  0.00    +0.000 C 
ATOM      6  C   UNL     1       1.997   3.985  20.004  0.00  0.00    +0.000 A 
ATOM      7  C   UNL     1       0.914   3.450  20.696  0.00  0.00    +0.000 A 
ATOM      8  C   UNL     1       1.139   2.435  21.621  0.00  0.00    +0.000 A 
ATOM      9  C   UNL     1       2.437   1.976  21.862  0.00  0.00    +0.000 A 
ATOM     10  C   UNL     1       3.528   2.536  21.193  0.00  0.00    +0.000 A 
ATOM     11  C   UNL     1       3.311   3.545  20.255  0.00  0.00    +0.000 A 
ATOM     12  C   UNL     1       4.460   4.178  19.501  0.00  0.00    +0.000 C 
ATOM     13  O   UNL     1       5.586   4.121  19.989  0.00  0.00    +0.000 OA
ENDROOT
BRANCH   1  17
ATOM     14  C   UNL     1       6.995   5.105  15.139  0.00  0.00    +0.000 A 
ATOM     15  C   UNL     1       6.039   4.074  15.129  0.00  0.00    +0.000 A 
ATOM     16  C   UNL     1       5.109   3.942  16.168  0.00  0.00    +0.000 A 
ATOM     17  C   UNL     1       5.139   4.822  17.252  0.00  0.00    +0.000 A 
ATOM     18  C   UNL     1       6.110   5.826  17.288  0.00  0.00    +0.000 A 
ATOM     19  C   UNL     1       7.043   5.976  16.243  0.00  0.00    +0.000 A 
BRANCH  14  21
ATOM     20  C   UNL     1       7.472   4.919  12.801  0.00  0.00    +0.000 C 
ATOM     21  O   UNL     1       7.894   5.274  14.120  0.00  0.00    +0.000 OA
ENDBRANCH  14  21
BRANCH  19  22
ATOM     22  O   UNL     1       7.887   7.037  16.454  0.00  0.00    +0.000 OA
ATOM     23  C   UNL     1       7.714   7.862  17.597  0.00  0.00    +0.000 C 
ENDBRANCH  19  22
ENDBRANCH   1  17
BRANCH   5  24
ATOM     24  N   UNL     1       2.410   7.489  19.499  0.00  0.00    +0.000 N 
ATOM     25  H   UNL     1       3.061   7.755  20.248  0.00  0.00    +0.000 HD
BRANCH  24  26
ATOM     26  N   UNL     1       2.170   8.501  18.613  0.00  0.00    +0.000 N 
ATOM     27  C   UNL     1       1.111   9.382  18.958  0.00  0.00    +0.000 A 
ATOM     28  N   UNL     1       0.948   9.706  20.257  0.00  0.00    +0.000 NA
ATOM     29  C   UNL     1      -0.134  10.430  20.597  0.00  0.00    +0.000 A 
ATOM     30  C   UNL     1      -0.281  10.833  22.032  0.00  0.00    +0.000 C 
ATOM     31  C   UNL     1      -1.093  10.787  19.668  0.00  0.00    +0.000 A 
ATOM     32  C   UNL     1      -0.874  10.374  18.368  0.00  0.00    +0.000 A 
ATOM     33  C   UNL     1      -1.882  10.651  17.296  0.00  0.00    +0.000 C 
ATOM     34  N   UNL     1       0.226   9.684  17.999  0.00  0.00    +0.000 NA
ATOM     35  H   UNL     1       1.933   8.197  17.668  0.00  0.00    +0.000 HD
ENDBRANCH  24  26
ENDBRANCH   5  24
TORSDOF 5
ENDMDL
MODEL 2
REMARK VINA RESULT:      -8.2      4.145      7.378
REMARK  Name = 
REMARK  9 active torsions:
REMARK  status: ('A' for Active; 'I' for Inactive)
REMARK    1  A    between atoms: C_1  and  O_2
REMARK    2  A    between atoms: O_2  and  C_3
REMARK    3  A    between atoms: C_6  and  N_7
REMARK    4  A    between atoms: C_11  and  N_12
REMARK    5  A    between atoms: N_12  and  N_13
REMARK    6  A    between atoms: C_16  and  C_17
REMARK    7  A    between atoms: C_19  and  C_20
REMARK    8  A    between atoms: C_31  and  O_32
REMARK    9  A    between atoms: O_32  and  C_33
REMARK                            x       y       z     vdW  Elec       q    Type
REMARK                         _______ _______ _______ _____ _____    ______ ____
ROOT
ATOM      1  N   UNL     1       0.625  10.081  19.574  0.00  0.00    +0.000 N 
ATOM      2  C   UNL     1      -0.363  10.503  18.676  0.00  0.00    +0.000 C 
ATOM      3  O   UNL     1      -0.991   9.795  17.893  0.00  0.00    +0.000 OA
ATOM      4  C   UNL     1      -0.838  11.866  19.037  0.00  0.00    +0.000 C 
ATOM      5  C   UNL     1      -0.155  12.990  18.762  0.00  0.00    +0.000 C 
ATOM      6  C   UNL     1      -1.432  11.913  20.374  0.00  0.00    +0.000 A 
ATOM      7  C   UNL     1      -2.571  12.632  20.724  0.00  0.00    +0.000 A 
ATOM      8  C   UNL     1      -2.982  12.639  22.053  0.00  0.00    +0.000 A 
ATOM      9  C   UNL     1      -2.249  11.948  23.022  0.00  0.00    +0.000 A 
ATOM     10  C   UNL     1      -1.086  11.254  22.676  0.00  0.00    +0.000 A 
ATOM     11  C   UNL     1      -0.674  11.231  21.344  0.00  0.00    +0.000 A 
ATOM     12  C   UNL     1       0.575  10.489  20.921  0.00  0.00    +0.000 C 
ATOM     13  O   UNL     1       1.441  10.266  21.763  0.00  0.00    +0.000 OA
ENDROOT
BRANCH   1  17
ATOM     14  C   UNL     1       3.058   6.710  18.713  0.00  0.00    +0.000 A 
ATOM     15  C   UNL     1       3.023   7.811  17.841  0.00  0.00    +0.000 A 
ATOM     16  C   UNL     1       2.204   8.916  18.107  0.00  0.00    +0.000 A 
ATOM     17  C   UNL     1       1.383   8.925  19.237  0.00  0.00    +0.000 A 
ATOM     18  C   UNL     1       1.385   7.818  20.090  0.00  0.00    +0.000 A 
ATOM     19  C   UNL     1       2.213   6.706  19.838  0.00  0.00    +0.000 A 
BRANCH  14  21
ATOM     20  C   UNL     1       3.473   4.696  17.488  0.00  0.00    +0.000 C 
ATOM     21  O   UNL     1       3.873   5.632  18.493  0.00  0.00    +0.000 OA
ENDBRANCH  14  21
BRANCH  19  22
ATOM     22  O   UNL     1       2.089   5.743  20.808  0.00  0.00    +0.000 OA
ATOM     23  C   UNL     1       1.290   4.595  20.565  0.00  0.00    +0.000 C 
ENDBRANCH  19  22
ENDBRANCH   1  17
BRANCH   5  24
ATOM     24  N   UNL     1       1.059  13.213  18.180  0.00  0.00    +0.000 N 
ATOM     25  H   UNL     1       1.003  13.507  17.197  0.00  0.00    +0.000 HD
BRANCH  24  26
ATOM     26  N   UNL     1       2.334  12.939  18.586  0.00  0.00    +0.000 N 
ATOM     27  C   UNL     1       3.165  14.070  18.808  0.00  0.00    +0.000 A 
ATOM     28  N   UNL     1       2.611  15.170  19.358  0.00  0.00    +0.000 NA
ATOM     29  C   UNL     1       3.365  16.282  19.443  0.00  0.00    +0.000 A 
ATOM     30  C   UNL     1       2.763  17.483  20.104  0.00  0.00    +0.000 C 
ATOM     31  C   UNL     1       4.648  16.333  18.931  0.00  0.00    +0.000 A 
ATOM     32  C   UNL     1       5.121  15.178  18.341  0.00  0.00    +0.000 A 
ATOM     33  C   UNL     1       6.473  15.144  17.696  0.00  0.00    +0.000 C 
ATOM     34  N   UNL     1       4.397  14.039  18.284  0.00  0.00    +0.000 NA
ATOM     35  H   UNL     1       2.876  12.365  17.938  0.00  0.00    +0.000 HD
ENDBRANCH  24  26
ENDBRANCH   5  24
TORSDOF 5
ENDMDL
MODEL 3
REMARK VINA RESULT:      -8.1      6.182     10.478
REMARK  Name = 
REMARK  9 active torsions:
REMARK  status: ('A' for Active; 'I' for Inactive)
REMARK    1  A    between atoms: C_1  and  O_2
REMARK    2  A    between atoms: O_2  and  C_3
REMARK    3  A    between atoms: C_6  and  N_7
REMARK    4  A    between atoms: C_11  and  N_12
REMARK    5  A    between atoms: N_12  and  N_13
REMARK    6  A    between atoms: C_16  and  C_17
REMARK    7  A    between atoms: C_19  and  C_20
REMARK    8  A    between atoms: C_31  and  O_32
REMARK    9  A    between atoms: O_32  and  C_33
REMARK                            x       y       z     vdW  Elec       q    Type
REMARK                         _______ _______ _______ _____ _____    ______ ____
ROOT
ATOM      1  N   UNL     1      -1.994  12.847  21.729  0.00  0.00    +0.000 N 
ATOM      2  C   UNL     1      -2.260  12.163  22.921  0.00  0.00    +0.000 C 
ATOM      3  O   UNL     1      -1.639  11.202  23.369  0.00  0.00    +0.000 OA
ATOM      4  C   UNL     1      -3.165  12.968  23.786  0.00  0.00    +0.000 C 
ATOM      5  C   UNL     1      -4.490  13.068  23.587  0.00  0.00    +0.000 C 
ATOM      6  C   UNL     1      -2.579  14.256  24.158  0.00  0.00    +0.000 A 
ATOM      7  C   UNL     1      -2.673  14.851  25.413  0.00  0.00    +0.000 A 
ATOM      8  C   UNL     1      -2.123  16.115  25.603  0.00  0.00    +0.000 A 
ATOM      9  C   UNL     1      -1.504  16.782  24.542  0.00  0.00    +0.000 A 
ATOM     10  C   UNL     1      -1.441  16.199  23.273  0.00  0.00    +0.000 A 
ATOM     11  C   UNL     1      -1.978  14.927  23.077  0.00  0.00    +0.000 A 
ATOM     12  C   UNL     1      -1.927  14.254  21.723  0.00  0.00    +0.000 C 
ATOM     13  O   UNL     1      -1.806  14.954  20.721  0.00  0.00    +0.000 OA
ENDROOT
BRANCH   1  17
ATOM     14  C   UNL     1      -0.184  10.498  18.691  0.00  0.00    +0.000 A 
ATOM     15  C   UNL     1       0.598  11.119  19.681  0.00  0.00    +0.000 A 
ATOM     16  C   UNL     1       0.009  11.915  20.671  0.00  0.00    +0.000 A 
ATOM     17  C   UNL     1      -1.371  12.127  20.672  0.00  0.00    +0.000 A 
ATOM     18  C   UNL     1      -2.151  11.543  19.670  0.00  0.00    +0.000 A 
ATOM     19  C   UNL     1      -1.571  10.732  18.675  0.00  0.00    +0.000 A 
BRANCH  14  21
ATOM     20  C   UNL     1       1.626   9.083  18.019  0.00  0.00    +0.000 C 
ATOM     21  O   UNL     1       0.364   9.690  17.731  0.00  0.00    +0.000 OA
ENDBRANCH  14  21
BRANCH  19  22
ATOM     22  O   UNL     1      -2.509  10.231  17.808  0.00  0.00    +0.000 OA
ATOM     23  C   UNL     1      -3.125  11.090  16.860  0.00  0.00    +0.000 C 
ENDBRANCH  19  22
ENDBRANCH   1  17
BRANCH   5  24
ATOM     24  N   UNL     1      -5.320  12.568  22.626  0.00  0.00    +0.000 N 
ATOM     25  H   UNL     1      -5.175  11.571  22.427  0.00  0.00    +0.000 HD
BRANCH  24  26
ATOM     26  N   UNL     1      -6.170  13.172  21.744  0.00  0.00    +0.000 N 
ATOM     27  C   UNL     1      -6.531  12.398  20.609  0.00  0.00    +0.000 A 
ATOM     28  N   UNL     1      -6.723  11.073  20.776  0.00  0.00    +0.000 NA
ATOM     29  C   UNL     1      -6.932  10.321  19.679  0.00  0.00    +0.000 A 
ATOM     30  C   UNL     1      -7.199   8.861  19.876  0.00  0.00    +0.000 C 
ATOM     31  C   UNL     1      -6.892  10.862  18.408  0.00  0.00    +0.000 A 
ATOM     32  C   UNL     1      -6.641  12.217  18.323  0.00  0.00    +0.000 A 
ATOM     33  C   UNL     1      -6.511  12.890  16.992  0.00  0.00    +0.000 C 
ATOM     34  N   UNL     1      -6.471  12.996  19.413  0.00  0.00    +0.000 NA
ATOM     35  H   UNL     1      -5.821  14.043  21.340  0.00  0.00    +0.000 HD
ENDBRANCH  24  26
ENDBRANCH   5  24
TORSDOF 5
ENDMDL
MODEL 4
REMARK VINA RESULT:      -7.8      4.032      6.906
REMARK  Name = 
REMARK  9 active torsions:
REMARK  status: ('A' for Active; 'I' for Inactive)
REMARK    1  A    between atoms: C_1  and  O_2
REMARK    2  A    between atoms: O_2  and  C_3
REMARK    3  A    between atoms: C_6  and  N_7
REMARK    4  A    between atoms: C_11  and  N_12
REMARK    5  A    between atoms: N_12  and  N_13
REMARK    6  A    between atoms: C_16  and  C_17
REMARK    7  A    between atoms: C_19  and  C_20
REMARK    8  A    between atoms: C_31  and  O_32
REMARK    9  A    between atoms: O_32  and  C_33
REMARK                            x       y       z     vdW  Elec       q    Type
REMARK                         _______ _______ _______ _____ _____    ______ ____
ROOT
ATOM      1  N   UNL     1       1.178   9.400  19.823  0.00  0.00    +0.000 N 
ATOM      2  C   UNL     1       0.368  10.065  18.895  0.00  0.00    +0.000 C 
ATOM      3  O   UNL     1      -0.262   9.554  17.973  0.00  0.00    +0.000 OA
ATOM      4  C   UNL     1       0.055  11.438  19.377  0.00  0.00    +0.000 C 
ATOM      5  C   UNL     1       0.918  12.466  19.311  0.00  0.00    +0.000 C 
ATOM      6  C   UNL     1      -0.673  11.430  20.646  0.00  0.00    +0.000 A 
ATOM      7  C   UNL     1      -1.730  12.274  20.974  0.00  0.00    +0.000 A 
ATOM      8  C   UNL     1      -2.284  12.199  22.248  0.00  0.00    +0.000 A 
ATOM      9  C   UNL     1      -1.771  11.301  23.188  0.00  0.00    +0.000 A 
ATOM     10  C   UNL     1      -0.688  10.477  22.871  0.00  0.00    +0.000 A 
ATOM     11  C   UNL     1      -0.135  10.537  21.591  0.00  0.00    +0.000 A 
ATOM     12  C   UNL     1       1.035   9.660  21.199  0.00  0.00    +0.000 C 
ATOM     13  O   UNL     1       1.759   9.215  22.086  0.00  0.00    +0.000 OA
ENDROOT
BRANCH   1  17
ATOM     14  C   UNL     1       3.204   5.823  18.758  0.00  0.00    +0.000 A 
ATOM     15  C   UNL     1       3.280   6.963  17.939  0.00  0.00    +0.000 A 
ATOM     16  C   UNL     1       2.594   8.138  18.272  0.00  0.00    +0.000 A 
ATOM     17  C   UNL     1       1.797   8.184  19.417  0.00  0.00    +0.000 A 
ATOM     18  C   UNL     1       1.687   7.044  20.218  0.00  0.00    +0.000 A 
ATOM     19  C   UNL     1       2.380   5.860  19.899  0.00  0.00    +0.000 A 
BRANCH  14  21
ATOM     20  C   UNL     1       5.201   4.530  19.025  0.00  0.00    +0.000 C 
ATOM     21  O   UNL     1       3.890   4.673  18.472  0.00  0.00    +0.000 OA
ENDBRANCH  14  21
BRANCH  19  22
ATOM     22  O   UNL     1       2.164   4.871  20.825  0.00  0.00    +0.000 OA
ATOM     23  C   UNL     1       1.122   3.928  20.621  0.00  0.00    +0.000 C 
ENDBRANCH  19  22
ENDBRANCH   1  17
BRANCH   5  24
ATOM     24  N   UNL     1       2.210  12.560  18.880  0.00  0.00    +0.000 N 
ATOM     25  H   UNL     1       2.853  11.908  19.345  0.00  0.00    +0.000 HD
BRANCH  24  26
ATOM     26  N   UNL     1       2.850  13.478  18.097  0.00  0.00    +0.000 N 
ATOM     27  C   UNL     1       2.750  14.829  18.525  0.00  0.00    +0.000 A 
ATOM     28  N   UNL     1       2.782  15.082  19.850  0.00  0.00    +0.000 NA
ATOM     29  C   UNL     1       2.552  16.344  20.258  0.00  0.00    +0.000 A 
ATOM     30  C   UNL     1       2.644  16.629  21.725  0.00  0.00    +0.000 C 
ATOM     31  C   UNL     1       2.229  17.349  19.367  0.00  0.00    +0.000 A 
ATOM     32  C   UNL     1       2.169  16.995  18.034  0.00  0.00    +0.000 A 
ATOM     33  C   UNL     1       1.763  17.992  16.993  0.00  0.00    +0.000 C 
ATOM     34  N   UNL     1       2.438  15.745  17.599  0.00  0.00    +0.000 NA
ATOM     35  H   UNL     1       2.533  13.509  17.126  0.00  0.00    +0.000 HD
ENDBRANCH  24  26
ENDBRANCH   5  24
TORSDOF 5
ENDMDL
MODEL 5
REMARK VINA RESULT:      -7.8      7.679     11.746
REMARK  Name = 
REMARK  9 active torsions:
REMARK  status: ('A' for Active; 'I' for Inactive)
REMARK    1  A    between atoms: C_1  and  O_2
REMARK    2  A    between atoms: O_2  and  C_3
REMARK    3  A    between atoms: C_6  and  N_7
REMARK    4  A    between atoms: C_11  and  N_12
REMARK    5  A    between atoms: N_12  and  N_13
REMARK    6  A    between atoms: C_16  and  C_17
REMARK    7  A    between atoms: C_19  and  C_20
REMARK    8  A    between atoms: C_31  and  O_32
REMARK    9  A    between atoms: O_32  and  C_33
REMARK                            x       y       z     vdW  Elec       q    Type
REMARK                         _______ _______ _______ _____ _____    ______ ____
ROOT
ATOM      1  N   UNL     1      -2.028  13.433  22.264  0.00  0.00    +0.000 N 
ATOM      2  C   UNL     1      -1.134  13.681  21.216  0.00  0.00    +0.000 C 
ATOM      3  O   UNL     1      -0.325  14.602  21.145  0.00  0.00    +0.000 OA
ATOM      4  C   UNL     1      -1.011  12.477  20.349  0.00  0.00    +0.000 C 
ATOM      5  C   UNL     1      -1.930  12.120  19.437  0.00  0.00    +0.000 C 
ATOM      6  C   UNL     1      -0.499  11.316  21.078  0.00  0.00    +0.000 A 
ATOM      7  C   UNL     1       0.422  10.397  20.583  0.00  0.00    +0.000 A 
ATOM      8  C   UNL     1       0.766   9.300  21.366  0.00  0.00    +0.000 A 
ATOM      9  C   UNL     1       0.181   9.117  22.622  0.00  0.00    +0.000 A 
ATOM     10  C   UNL     1      -0.769  10.022  23.104  0.00  0.00    +0.000 A 
ATOM     11  C   UNL     1      -1.111  11.131  22.332  0.00  0.00    +0.000 A 
ATOM     12  C   UNL     1      -2.130  12.141  22.815  0.00  0.00    +0.000 C 
ATOM     13  O   UNL     1      -2.950  11.791  23.659  0.00  0.00    +0.000 OA
ENDROOT
BRANCH   1  17
ATOM     14  C   UNL     1      -3.498  16.592  24.690  0.00  0.00    +0.000 A 
ATOM     15  C   UNL     1      -4.052  16.343  23.423  0.00  0.00    +0.000 A 
ATOM     16  C   UNL     1      -3.555  15.318  22.607  0.00  0.00    +0.000 A 
ATOM     17  C   UNL     1      -2.476  14.542  23.035  0.00  0.00    +0.000 A 
ATOM     18  C   UNL     1      -1.897  14.807  24.279  0.00  0.00    +0.000 A 
ATOM     19  C   UNL     1      -2.394  15.828  25.112  0.00  0.00    +0.000 A 
BRANCH  14  21
ATOM     20  C   UNL     1      -5.309  18.048  25.267  0.00  0.00    +0.000 C 
ATOM     21  O   UNL     1      -3.986  17.567  25.519  0.00  0.00    +0.000 OA
ENDBRANCH  14  21
BRANCH  19  22
ATOM     22  O   UNL     1      -1.709  15.906  26.298  0.00  0.00    +0.000 OA
ATOM     23  C   UNL     1      -0.575  16.753  26.405  0.00  0.00    +0.000 C 
ENDBRANCH  19  22
ENDBRANCH   1  17
BRANCH   5  24
ATOM     24  N   UNL     1      -3.139  12.649  19.087  0.00  0.00    +0.000 N 
ATOM     25  H   UNL     1      -3.302  13.595  19.453  0.00  0.00    +0.000 HD
BRANCH  24  26
ATOM     26  N   UNL     1      -4.249  12.098  18.512  0.00  0.00    +0.000 N 
ATOM     27  C   UNL     1      -5.399  12.024  19.343  0.00  0.00    +0.000 A 
ATOM     28  N   UNL     1      -5.638  13.044  20.193  0.00  0.00    +0.000 NA
ATOM     29  C   UNL     1      -6.649  12.911  21.071  0.00  0.00    +0.000 A 
ATOM     30  C   UNL     1      -6.945  14.068  21.975  0.00  0.00    +0.000 C 
ATOM     31  C   UNL     1      -7.390  11.748  21.157  0.00  0.00    +0.000 A 
ATOM     32  C   UNL     1      -7.049  10.734  20.284  0.00  0.00    +0.000 A 
ATOM     33  C   UNL     1      -7.744   9.409  20.338  0.00  0.00    +0.000 C 
ATOM     34  N   UNL     1      -6.066  10.864  19.367  0.00  0.00    +0.000 NA
ATOM     35  H   UNL     1      -4.130  11.140  18.181  0.00  0.00    +0.000 HD
ENDBRANCH  24  26
ENDBRANCH   5  24
TORSDOF 5
ENDMDL
MODEL 6
REMARK VINA RESULT:      -7.7      3.997      6.742
REMARK  Name = 
REMARK  9 active torsions:
REMARK  status: ('A' for Active; 'I' for Inactive)
REMARK    1  A    between atoms: C_1  and  O_2
REMARK    2  A    between atoms: O_2  and  C_3
REMARK    3  A    between atoms: C_6  and  N_7
REMARK    4  A    between atoms: C_11  and  N_12
REMARK    5  A    between atoms: N_12  and  N_13
REMARK    6  A    between atoms: C_16  and  C_17
REMARK    7  A    between atoms: C_19  and  C_20
REMARK    8  A    between atoms: C_31  and  O_32
REMARK    9  A    between atoms: O_32  and  C_33
REMARK                            x       y       z     vdW  Elec       q    Type
REMARK                         _______ _______ _______ _____ _____    ______ ____
ROOT
ATOM      1  N   UNL     1       1.185   9.224  20.061  0.00  0.00    +0.000 N 
ATOM      2  C   UNL     1       0.414   9.805  19.048  0.00  0.00    +0.000 C 
ATOM      3  O   UNL     1      -0.206   9.214  18.167  0.00  0.00    +0.000 OA
ATOM      4  C   UNL     1       0.123  11.227  19.375  0.00  0.00    +0.000 C 
ATOM      5  C   UNL     1       1.012  12.224  19.225  0.00  0.00    +0.000 C 
ATOM      6  C   UNL     1      -0.636  11.369  20.618  0.00  0.00    +0.000 A 
ATOM      7  C   UNL     1      -1.679  12.266  20.828  0.00  0.00    +0.000 A 
ATOM      8  C   UNL     1      -2.265  12.337  22.087  0.00  0.00    +0.000 A 
ATOM      9  C   UNL     1      -1.797  11.531  23.129  0.00  0.00    +0.000 A 
ATOM     10  C   UNL     1      -0.727  10.655  22.928  0.00  0.00    +0.000 A 
ATOM     11  C   UNL     1      -0.142  10.568  21.665  0.00  0.00    +0.000 A 
ATOM     12  C   UNL     1       1.015   9.630  21.398  0.00  0.00    +0.000 C 
ATOM     13  O   UNL     1       1.706   9.264  22.345  0.00  0.00    +0.000 OA
ENDROOT
BRANCH   1  17
ATOM     14  C   UNL     1       2.796   5.407  19.129  0.00  0.00    +0.000 A 
ATOM     15  C   UNL     1       2.004   5.592  20.275  0.00  0.00    +0.000 A 
ATOM     16  C   UNL     1       1.490   6.853  20.601  0.00  0.00    +0.000 A 
ATOM     17  C   UNL     1       1.783   7.959  19.801  0.00  0.00    +0.000 A 
ATOM     18  C   UNL     1       2.600   7.791  18.680  0.00  0.00    +0.000 A 
ATOM     19  C   UNL     1       3.114   6.525  18.336  0.00  0.00    +0.000 A 
BRANCH  14  21
ATOM     20  C   UNL     1       4.536   3.776  19.335  0.00  0.00    +0.000 C 
ATOM     21  O   UNL     1       3.284   4.179  18.771  0.00  0.00    +0.000 OA
ENDBRANCH  14  21
BRANCH  19  22
ATOM     22  O   UNL     1       3.864   6.568  17.187  0.00  0.00    +0.000 OA
ATOM     23  C   UNL     1       5.267   6.773  17.267  0.00  0.00    +0.000 C 
ENDBRANCH  19  22
ENDBRANCH   1  17
BRANCH   5  24
ATOM     24  N   UNL     1       2.316  12.245  18.821  0.00  0.00    +0.000 N 
ATOM     25  H   UNL     1       2.944  11.680  19.407  0.00  0.00    +0.000 HD
BRANCH  24  26
ATOM     26  N   UNL     1       2.982  13.017  17.912  0.00  0.00    +0.000 N 
ATOM     27  C   UNL     1       3.171  14.375  18.281  0.00  0.00    +0.000 A 
ATOM     28  N   UNL     1       3.434  14.654  19.574  0.00  0.00    +0.000 NA
ATOM     29  C   UNL     1       3.479  15.947  19.946  0.00  0.00    +0.000 A 
ATOM     30  C   UNL     1       3.825  16.252  21.370  0.00  0.00    +0.000 C 
ATOM     31  C   UNL     1       3.204  16.970  19.057  0.00  0.00    +0.000 A 
ATOM     32  C   UNL     1       2.896  16.596  17.764  0.00  0.00    +0.000 A 
ATOM     33  C   UNL     1       2.519  17.620  16.739  0.00  0.00    +0.000 C 
ATOM     34  N   UNL     1       2.888  15.307  17.361  0.00  0.00    +0.000 NA
ATOM     35  H   UNL     1       2.540  13.075  16.994  0.00  0.00    +0.000 HD
ENDBRANCH  24  26
ENDBRANCH   5  24
TORSDOF 5
ENDMDL
MODEL 7
REMARK VINA RESULT:      -7.7      3.792      7.230
REMARK  Name = 
REMARK  9 active torsions:
REMARK  status: ('A' for Active; 'I' for Inactive)
REMARK    1  A    between atoms: C_1  and  O_2
REMARK    2  A    between atoms: O_2  and  C_3
REMARK    3  A    between atoms: C_6  and  N_7
REMARK    4  A    between atoms: C_11  and  N_12
REMARK    5  A    between atoms: N_12  and  N_13
REMARK    6  A    between atoms: C_16  and  C_17
REMARK    7  A    between atoms: C_19  and  C_20
REMARK    8  A    between atoms: C_31  and  O_32
REMARK    9  A    between atoms: O_32  and  C_33
REMARK                            x       y       z     vdW  Elec       q    Type
REMARK                         _______ _______ _______ _____ _____    ______ ____
ROOT
ATOM      1  N   UNL     1       0.564  10.108  19.518  0.00  0.00    +0.000 N 
ATOM      2  C   UNL     1      -0.452  10.470  18.625  0.00  0.00    +0.000 C 
ATOM      3  O   UNL     1      -1.084   9.716  17.889  0.00  0.00    +0.000 OA
ATOM      4  C   UNL     1      -0.946  11.839  18.935  0.00  0.00    +0.000 C 
ATOM      5  C   UNL     1      -0.291  12.962  18.593  0.00  0.00    +0.000 C 
ATOM      6  C   UNL     1      -1.510  11.936  20.282  0.00  0.00    +0.000 A 
ATOM      7  C   UNL     1      -2.655  12.650  20.626  0.00  0.00    +0.000 A 
ATOM      8  C   UNL     1      -3.036  12.709  21.962  0.00  0.00    +0.000 A 
ATOM      9  C   UNL     1      -2.268  12.077  22.944  0.00  0.00    +0.000 A 
ATOM     10  C   UNL     1      -1.100  11.390  22.603  0.00  0.00    +0.000 A 
ATOM     11  C   UNL     1      -0.717  11.314  21.264  0.00  0.00    +0.000 A 
ATOM     12  C   UNL     1       0.536  10.576  20.846  0.00  0.00    +0.000 C 
ATOM     13  O   UNL     1       1.425  10.408  21.676  0.00  0.00    +0.000 OA
ENDROOT
BRANCH   1  17
ATOM     14  C   UNL     1       3.037   6.740  18.764  0.00  0.00    +0.000 A 
ATOM     15  C   UNL     1       3.015   7.828  17.875  0.00  0.00    +0.000 A 
ATOM     16  C   UNL     1       2.183   8.932  18.105  0.00  0.00    +0.000 A 
ATOM     17  C   UNL     1       1.337   8.952  19.215  0.00  0.00    +0.000 A 
ATOM     18  C   UNL     1       1.326   7.859  20.085  0.00  0.00    +0.000 A 
ATOM     19  C   UNL     1       2.166   6.749  19.869  0.00  0.00    +0.000 A 
BRANCH  14  21
ATOM     20  C   UNL     1       3.630   4.842  17.432  0.00  0.00    +0.000 C 
ATOM     21  O   UNL     1       3.863   5.664  18.579  0.00  0.00    +0.000 OA
ENDBRANCH  14  21
BRANCH  19  22
ATOM     22  O   UNL     1       2.027   5.799  20.850  0.00  0.00    +0.000 OA
ATOM     23  C   UNL     1       1.340   4.589  20.569  0.00  0.00    +0.000 C 
ENDBRANCH  19  22
ENDBRANCH   1  17
BRANCH   5  24
ATOM     24  N   UNL     1       0.905  13.181  17.974  0.00  0.00    +0.000 N 
ATOM     25  H   UNL     1       0.827  13.359  16.965  0.00  0.00    +0.000 HD
BRANCH  24  26
ATOM     26  N   UNL     1       2.196  13.022  18.391  0.00  0.00    +0.000 N 
ATOM     27  C   UNL     1       2.622  13.900  19.422  0.00  0.00    +0.000 A 
ATOM     28  N   UNL     1       1.741  14.220  20.392  0.00  0.00    +0.000 NA
ATOM     29  C   UNL     1       2.101  15.155  21.291  0.00  0.00    +0.000 A 
ATOM     30  C   UNL     1       1.141  15.466  22.397  0.00  0.00    +0.000 C 
ATOM     31  C   UNL     1       3.308  15.823  21.202  0.00  0.00    +0.000 A 
ATOM     32  C   UNL     1       4.131  15.470  20.151  0.00  0.00    +0.000 A 
ATOM     33  C   UNL     1       5.431  16.178  19.925  0.00  0.00    +0.000 C 
ATOM     34  N   UNL     1       3.807  14.505  19.264  0.00  0.00    +0.000 NA
ATOM     35  H   UNL     1       2.900  13.146  17.662  0.00  0.00    +0.000 HD
ENDBRANCH  24  26
ENDBRANCH   5  24
TORSDOF 5
ENDMDL
MODEL 8
REMARK VINA RESULT:      -7.6      8.303     11.533
REMARK  Name = 
REMARK  9 active torsions:
REMARK  status: ('A' for Active; 'I' for Inactive)
REMARK    1  A    between atoms: C_1  and  O_2
REMARK    2  A    between atoms: O_2  and  C_3
REMARK    3  A    between atoms: C_6  and  N_7
REMARK    4  A    between atoms: C_11  and  N_12
REMARK    5  A    between atoms: N_12  and  N_13
REMARK    6  A    between atoms: C_16  and  C_17
REMARK    7  A    between atoms: C_19  and  C_20
REMARK    8  A    between atoms: C_31  and  O_32
REMARK    9  A    between atoms: O_32  and  C_33
REMARK                            x       y       z     vdW  Elec       q    Type
REMARK                         _______ _______ _______ _____ _____    ______ ____
ROOT
ATOM      1  N   UNL     1      -2.940  13.454  21.762  0.00  0.00    +0.000 N 
ATOM      2  C   UNL     1      -2.676  12.605  22.844  0.00  0.00    +0.000 C 
ATOM      3  O   UNL     1      -1.860  11.687  22.873  0.00  0.00    +0.000 OA
ATOM      4  C   UNL     1      -3.240  13.176  24.096  0.00  0.00    +0.000 C 
ATOM      5  C   UNL     1      -4.545  13.125  24.417  0.00  0.00    +0.000 C 
ATOM      6  C   UNL     1      -2.658  14.477  24.427  0.00  0.00    +0.000 A 
ATOM      7  C   UNL     1      -2.309  14.902  25.706  0.00  0.00    +0.000 A 
ATOM      8  C   UNL     1      -1.827  16.195  25.879  0.00  0.00    +0.000 A 
ATOM      9  C   UNL     1      -1.714  17.058  24.785  0.00  0.00    +0.000 A 
ATOM     10  C   UNL     1      -2.096  16.643  23.507  0.00  0.00    +0.000 A 
ATOM     11  C   UNL     1      -2.568  15.344  23.322  0.00  0.00    +0.000 A 
ATOM     12  C   UNL     1      -2.988  14.848  21.955  0.00  0.00    +0.000 C 
ATOM     13  O   UNL     1      -3.313  15.671  21.104  0.00  0.00    +0.000 OA
ENDROOT
BRANCH   1  17
ATOM     14  C   UNL     1      -2.247  11.738  17.940  0.00  0.00    +0.000 A 
ATOM     15  C   UNL     1      -1.206  12.368  18.645  0.00  0.00    +0.000 A 
ATOM     16  C   UNL     1      -1.434  12.957  19.895  0.00  0.00    +0.000 A 
ATOM     17  C   UNL     1      -2.715  12.952  20.450  0.00  0.00    +0.000 A 
ATOM     18  C   UNL     1      -3.763  12.360  19.740  0.00  0.00    +0.000 A 
ATOM     19  C   UNL     1      -3.544  11.755  18.487  0.00  0.00    +0.000 A 
BRANCH  14  21
ATOM     20  C   UNL     1      -1.975   9.699  16.716  0.00  0.00    +0.000 C 
ATOM     21  O   UNL     1      -2.044  11.128  16.732  0.00  0.00    +0.000 OA
ENDBRANCH  14  21
BRANCH  19  22
ATOM     22  O   UNL     1      -4.692  11.207  17.971  0.00  0.00    +0.000 OA
ATOM     23  C   UNL     1      -5.353  11.843  16.888  0.00  0.00    +0.000 C 
ENDBRANCH  19  22
ENDBRANCH   1  17
BRANCH   5  24
ATOM     24  N   UNL     1      -5.638  12.638  23.761  0.00  0.00    +0.000 N 
ATOM     25  H   UNL     1      -5.552  11.653  23.479  0.00  0.00    +0.000 HD
BRANCH  24  26
ATOM     26  N   UNL     1      -6.741  13.250  23.238  0.00  0.00    +0.000 N 
ATOM     27  C   UNL     1      -7.153  12.786  21.960  0.00  0.00    +0.000 A 
ATOM     28  N   UNL     1      -7.049  11.467  21.696  0.00  0.00    +0.000 NA
ATOM     29  C   UNL     1      -7.312  11.050  20.443  0.00  0.00    +0.000 A 
ATOM     30  C   UNL     1      -7.247   9.580  20.170  0.00  0.00    +0.000 C 
ATOM     31  C   UNL     1      -7.619  11.939  19.430  0.00  0.00    +0.000 A 
ATOM     32  C   UNL     1      -7.658  13.275  19.774  0.00  0.00    +0.000 A 
ATOM     33  C   UNL     1      -7.917  14.326  18.739  0.00  0.00    +0.000 C 
ATOM     34  N   UNL     1      -7.439  13.710  21.034  0.00  0.00    +0.000 NA
ATOM     35  H   UNL     1      -6.652  14.259  23.110  0.00  0.00    +0.000 HD
ENDBRANCH  24  26
ENDBRANCH   5  24
TORSDOF 5
ENDMDL
MODEL 9
REMARK VINA RESULT:      -7.6      5.601     10.821
REMARK  Name = 
REMARK  9 active torsions:
REMARK  status: ('A' for Active; 'I' for Inactive)
REMARK    1  A    between atoms: C_1  and  O_2
REMARK    2  A    between atoms: O_2  and  C_3
REMARK    3  A    between atoms: C_6  and  N_7
REMARK    4  A    between atoms: C_11  and  N_12
REMARK    5  A    between atoms: N_12  and  N_13
REMARK    6  A    between atoms: C_16  and  C_17
REMARK    7  A    between atoms: C_19  and  C_20
REMARK    8  A    between atoms: C_31  and  O_32
REMARK    9  A    between atoms: O_32  and  C_33
REMARK                            x       y       z     vdW  Elec       q    Type
REMARK                         _______ _______ _______ _____ _____    ______ ____
ROOT
ATOM      1  N   UNL     1       1.143  14.142  20.728  0.00  0.00    +0.000 N 
ATOM      2  C   UNL     1       0.737  14.394  19.413  0.00  0.00    +0.000 C 
ATOM      3  O   UNL     1      -0.270  15.004  19.060  0.00  0.00    +0.000 OA
ATOM      4  C   UNL     1       1.866  14.160  18.472  0.00  0.00    +0.000 C 
ATOM      5  C   UNL     1       2.266  12.938  18.079  0.00  0.00    +0.000 C 
ATOM      6  C   UNL     1       3.006  15.037  18.740  0.00  0.00    +0.000 A 
ATOM      7  C   UNL     1       3.789  15.659  17.772  0.00  0.00    +0.000 A 
ATOM      8  C   UNL     1       4.887  16.413  18.174  0.00  0.00    +0.000 A 
ATOM      9  C   UNL     1       5.206  16.526  19.530  0.00  0.00    +0.000 A 
ATOM     10  C   UNL     1       4.441  15.873  20.500  0.00  0.00    +0.000 A 
ATOM     11  C   UNL     1       3.331  15.126  20.107  0.00  0.00    +0.000 A 
ATOM     12  C   UNL     1       2.468  14.407  21.121  0.00  0.00    +0.000 C 
ATOM     13  O   UNL     1       2.955  14.126  22.213  0.00  0.00    +0.000 OA
ENDROOT
BRANCH   1  17
ATOM     14  C   UNL     1      -2.022  13.871  23.546  0.00  0.00    +0.000 A 
ATOM     15  C   UNL     1      -1.445  15.113  23.232  0.00  0.00    +0.000 A 
ATOM     16  C   UNL     1      -0.385  15.206  22.321  0.00  0.00    +0.000 A 
ATOM     17  C   UNL     1       0.136  14.054  21.731  0.00  0.00    +0.000 A 
ATOM     18  C   UNL     1      -0.407  12.811  22.066  0.00  0.00    +0.000 A 
ATOM     19  C   UNL     1      -1.481  12.705  22.972  0.00  0.00    +0.000 A 
BRANCH  14  21
ATOM     20  C   UNL     1      -4.385  14.039  23.895  0.00  0.00    +0.000 C 
ATOM     21  O   UNL     1      -3.080  13.756  24.408  0.00  0.00    +0.000 OA
ENDBRANCH  14  21
BRANCH  19  22
ATOM     22  O   UNL     1      -1.887  11.405  23.141  0.00  0.00    +0.000 OA
ATOM     23  C   UNL     1      -0.932  10.356  23.102  0.00  0.00    +0.000 C 
ENDBRANCH  19  22
ENDBRANCH   1  17
BRANCH   5  24
ATOM     24  N   UNL     1       1.852  11.680  18.409  0.00  0.00    +0.000 N 
ATOM     25  H   UNL     1       1.855  11.491  19.419  0.00  0.00    +0.000 HD
BRANCH  24  26
ATOM     26  N   UNL     1       1.619  10.565  17.656  0.00  0.00    +0.000 N 
ATOM     27  C   UNL     1       1.758   9.325  18.334  0.00  0.00    +0.000 A 
ATOM     28  N   UNL     1       1.344   9.249  19.616  0.00  0.00    +0.000 NA
ATOM     29  C   UNL     1       1.599   8.117  20.297  0.00  0.00    +0.000 A 
ATOM     30  C   UNL     1       1.089   8.018  21.701  0.00  0.00    +0.000 C 
ATOM     31  C   UNL     1       2.317   7.077  19.738  0.00  0.00    +0.000 A 
ATOM     32  C   UNL     1       2.747   7.255  18.438  0.00  0.00    +0.000 A 
ATOM     33  C   UNL     1       3.588   6.218  17.759  0.00  0.00    +0.000 C 
ATOM     34  N   UNL     1       2.464   8.365  17.723  0.00  0.00    +0.000 NA
ATOM     35  H   UNL     1       2.226  10.463  16.841  0.00  0.00    +0.000 HD
ENDBRANCH  24  26
ENDBRANCH   5  24
TORSDOF 5
ENDMDL
