MODEL 1
REMARK VINA RESULT:      -7.4      0.000      0.000
REMARK  Name = 
REMARK  4 active torsions:
REMARK  status: ('A' for Active; 'I' for Inactive)
REMARK    1  A    between atoms: C_2  and  O_3
REMARK    2  A    between atoms: C_2  and  C_4
REMARK    3  A    between atoms: C_7  and  C_8
REMARK    4  A    between atoms: C_15  and  O_16
REMARK                            x       y       z     vdW  Elec       q    Type
REMARK                         _______ _______ _______ _____ _____    ______ ____
ROOT
ATOM      1  C   UNK     1       4.010   3.893  17.406  0.00  0.00    +0.000 A 
ATOM      2  C   UNK     1       2.748   4.367  17.081  0.00  0.00    +0.000 A 
ATOM      3  C   UNK     1       1.736   4.182  18.014  0.00  0.00    +0.000 A 
ATOM      4  C   UNK     1       2.009   3.555  19.236  0.00  0.00    +0.000 A 
ATOM      5  C   UNK     1       1.008   3.400  20.210  0.00  0.00    +0.000 A 
ATOM      6  C   UNK     1       1.288   2.798  21.433  0.00  0.00    +0.000 A 
ATOM      7  C   UNK     1       2.574   2.337  21.695  0.00  0.00    +0.000 A 
ATOM      8  C   UNK     1       3.568   2.488  20.723  0.00  0.00    +0.000 A 
ATOM      9  C   UNK     1       3.323   3.091  19.484  0.00  0.00    +0.000 A 
ATOM     10  N   UNK     1       4.293   3.253  18.564  0.00  0.00    +0.000 NA
ENDROOT
BRANCH   1  14
ATOM     11  C   UNK     1       6.287   4.972  14.686  0.00  0.00    +0.000 C 
ATOM     12  C   UNK     1       7.424   5.047  15.693  0.00  0.00    +0.000 C 
ATOM     13  S   UNK     1       6.711   4.568  17.262  0.00  0.00    +0.000 S 
ATOM     14  C   UNK     1       5.162   4.229  16.533  0.00  0.00    +0.000 C 
ATOM     15  N   UNK     1       5.071   4.306  15.241  0.00  0.00    +0.000 NA
BRANCH  11  17
ATOM     16  O   UNK     1       7.452   4.758  12.559  0.00  0.00    +0.000 OA
ATOM     17  C   UNK     1       6.720   4.254  13.415  0.00  0.00    +0.000 C 
BRANCH  17  18
ATOM     18  O   UNK     1       6.244   2.992  13.289  0.00  0.00    +0.000 OA
ATOM     19  H   UNK     1       6.336   2.668  12.367  0.00  0.00    +0.000 HD
ENDBRANCH  17  18
ENDBRANCH  11  17
ENDBRANCH   1  14
BRANCH   8  20
ATOM     20  O   UNK     1       4.839   2.038  21.008  0.00  0.00    +0.000 OA
ATOM     21  H   UNK     1       5.093   1.356  20.367  0.00  0.00    +0.000 HD
ENDBRANCH   8  20
TORSDOF 4
ENDMDL
MODEL 2
REMARK VINA RESULT:      -7.2      5.126      7.327
REMARK  Name = 
REMARK  4 active torsions:
REMARK  status: ('A' for Active; 'I' for Inactive)
REMARK    1  A    between atoms: C_2  and  O_3
REMARK    2  A    between atoms: C_2  and  C_4
REMARK    3  A    between atoms: C_7  and  C_8
REMARK    4  A    between atoms: C_15  and  O_16
REMARK                            x       y       z     vdW  Elec       q    Type
REMARK                         _______ _______ _______ _____ _____    ______ ____
ROOT
ATOM      1  C   UNK     1       2.164   6.849  19.503  0.00  0.00    +0.000 A 
ATOM      2  C   UNK     1       3.033   6.989  18.430  0.00  0.00    +0.000 A 
ATOM      3  C   UNK     1       3.411   5.833  17.760  0.00  0.00    +0.000 A 
ATOM      4  C   UNK     1       2.908   4.588  18.159  0.00  0.00    +0.000 A 
ATOM      5  C   UNK     1       3.244   3.414  17.464  0.00  0.00    +0.000 A 
ATOM      6  C   UNK     1       2.723   2.182  17.849  0.00  0.00    +0.000 A 
ATOM      7  C   UNK     1       1.862   2.109  18.938  0.00  0.00    +0.000 A 
ATOM      8  C   UNK     1       1.531   3.277  19.632  0.00  0.00    +0.000 A 
ATOM      9  C   UNK     1       2.034   4.533  19.271  0.00  0.00    +0.000 A 
ATOM     10  N   UNK     1       1.691   5.656  19.930  0.00  0.00    +0.000 NA
ENDROOT
BRANCH   1  14
ATOM     11  C   UNK     1       1.063   9.566  21.771  0.00  0.00    +0.000 C 
ATOM     12  C   UNK     1       0.817  10.452  20.560  0.00  0.00    +0.000 C 
ATOM     13  S   UNK     1       1.255   9.458  19.139  0.00  0.00    +0.000 S 
ATOM     14  C   UNK     1       1.583   8.061  20.131  0.00  0.00    +0.000 C 
ATOM     15  N   UNK     1       1.322   8.144  21.399  0.00  0.00    +0.000 NA
BRANCH  11  17
ATOM     16  O   UNK     1      -0.361  10.611  23.447  0.00  0.00    +0.000 OA
ATOM     17  C   UNK     1      -0.105   9.628  22.747  0.00  0.00    +0.000 C 
BRANCH  17  18
ATOM     18  O   UNK     1      -0.866   8.508  22.789  0.00  0.00    +0.000 OA
ATOM     19  H   UNK     1      -0.878   8.120  23.692  0.00  0.00    +0.000 HD
ENDBRANCH  17  18
ENDBRANCH  11  17
ENDBRANCH   1  14
BRANCH   8  20
ATOM     20  O   UNK     1       0.665   3.185  20.699  0.00  0.00    +0.000 OA
ATOM     21  H   UNK     1       1.091   3.539  21.495  0.00  0.00    +0.000 HD
ENDBRANCH   8  20
TORSDOF 4
ENDMDL
MODEL 3
REMARK VINA RESULT:      -7.0      1.599      1.804
REMARK  Name = 
REMARK  4 active torsions:
REMARK  status: ('A' for Active; 'I' for Inactive)
REMARK    1  A    between atoms: C_2  and  O_3
REMARK    2  A    between atoms: C_2  and  C_4
REMARK    3  A    between atoms: C_7  and  C_8
REMARK    4  A    between atoms: C_15  and  O_16
REMARK                            x       y       z     vdW  Elec       q    Type
REMARK                         _______ _______ _______ _____ _____    ______ ____
ROOT
ATOM      1  C   UNK     1       4.328   4.695  17.333  0.00  0.00    +0.000 A 
ATOM      2  C   UNK     1       4.430   5.823  18.134  0.00  0.00    +0.000 A 
ATOM      3  C   UNK     1       3.723   5.824  19.329  0.00  0.00    +0.000 A 
ATOM      4  C   UNK     1       2.958   4.710  19.698  0.00  0.00    +0.000 A 
ATOM      5  C   UNK     1       2.274   4.675  20.925  0.00  0.00    +0.000 A 
ATOM      6  C   UNK     1       1.534   3.557  21.300  0.00  0.00    +0.000 A 
ATOM      7  C   UNK     1       1.466   2.460  20.448  0.00  0.00    +0.000 A 
ATOM      8  C   UNK     1       2.145   2.497  19.225  0.00  0.00    +0.000 A 
ATOM      9  C   UNK     1       2.900   3.603  18.818  0.00  0.00    +0.000 A 
ATOM     10  N   UNK     1       3.569   3.620  17.649  0.00  0.00    +0.000 NA
ENDROOT
BRANCH   1  14
ATOM     11  C   UNK     1       5.842   4.644  13.950  0.00  0.00    +0.000 C 
ATOM     12  C   UNK     1       7.222   4.620  14.589  0.00  0.00    +0.000 C 
ATOM     13  S   UNK     1       6.936   4.636  16.354  0.00  0.00    +0.000 S 
ATOM     14  C   UNK     1       5.206   4.564  16.144  0.00  0.00    +0.000 C 
ATOM     15  N   UNK     1       4.747   4.418  14.939  0.00  0.00    +0.000 NA
BRANCH  11  17
ATOM     16  O   UNK     1       4.714   3.449  12.154  0.00  0.00    +0.000 OA
ATOM     17  C   UNK     1       5.732   3.616  12.832  0.00  0.00    +0.000 C 
BRANCH  17  18
ATOM     18  O   UNK     1       6.854   2.887  12.620  0.00  0.00    +0.000 OA
ATOM     19  H   UNK     1       7.105   2.889  11.671  0.00  0.00    +0.000 HD
ENDBRANCH  17  18
ENDBRANCH  11  17
ENDBRANCH   1  14
BRANCH   8  20
ATOM     20  O   UNK     1       2.077   1.394  18.402  0.00  0.00    +0.000 OA
ATOM     21  H   UNK     1       2.973   1.081  18.205  0.00  0.00    +0.000 HD
ENDBRANCH   8  20
TORSDOF 4
ENDMDL
MODEL 4
REMARK VINA RESULT:      -6.8      1.573      1.811
REMARK  Name = 
REMARK  4 active torsions:
REMARK  status: ('A' for Active; 'I' for Inactive)
REMARK    1  A    between atoms: C_2  and  O_3
REMARK    2  A    between atoms: C_2  and  C_4
REMARK    3  A    between atoms: C_7  and  C_8
REMARK    4  A    between atoms: C_15  and  O_16
REMARK                            x       y       z     vdW  Elec       q    Type
REMARK                         _______ _______ _______ _____ _____    ______ ____
ROOT
ATOM      1  C   UNK     1       4.519   3.566  17.313  0.00  0.00    +0.000 A 
ATOM      2  C   UNK     1       3.997   2.282  17.251  0.00  0.00    +0.000 A 
ATOM      3  C   UNK     1       2.960   1.971  18.120  0.00  0.00    +0.000 A 
ATOM      4  C   UNK     1       2.464   2.939  19.002  0.00  0.00    +0.000 A 
ATOM      5  C   UNK     1       1.384   2.656  19.855  0.00  0.00    +0.000 A 
ATOM      6  C   UNK     1       0.877   3.627  20.714  0.00  0.00    +0.000 A 
ATOM      7  C   UNK     1       1.449   4.895  20.733  0.00  0.00    +0.000 A 
ATOM      8  C   UNK     1       2.526   5.174  19.886  0.00  0.00    +0.000 A 
ATOM      9  C   UNK     1       3.059   4.223  19.008  0.00  0.00    +0.000 A 
ATOM     10  N   UNK     1       4.081   4.509  18.179  0.00  0.00    +0.000 NA
ENDROOT
BRANCH   1  14
ATOM     11  C   UNK     1       6.265   4.784  14.278  0.00  0.00    +0.000 C 
ATOM     12  C   UNK     1       7.492   5.082  15.127  0.00  0.00    +0.000 C 
ATOM     13  S   UNK     1       7.052   4.606  16.794  0.00  0.00    +0.000 S 
ATOM     14  C   UNK     1       5.494   4.007  16.285  0.00  0.00    +0.000 C 
ATOM     15  N   UNK     1       5.237   3.989  15.013  0.00  0.00    +0.000 NA
BRANCH  11  17
ATOM     16  O   UNK     1       7.398   4.525  12.139  0.00  0.00    +0.000 OA
ATOM     17  C   UNK     1       6.643   4.056  12.995  0.00  0.00    +0.000 C 
BRANCH  17  18
ATOM     18  O   UNK     1       6.090   2.827  12.859  0.00  0.00    +0.000 OA
ATOM     19  H   UNK     1       5.272   2.744  13.395  0.00  0.00    +0.000 HD
ENDBRANCH  17  18
ENDBRANCH  11  17
ENDBRANCH   1  14
BRANCH   8  20
ATOM     20  O   UNK     1       3.069   6.440  19.909  0.00  0.00    +0.000 OA
ATOM     21  H   UNK     1       3.650   6.531  20.680  0.00  0.00    +0.000 HD
ENDBRANCH   8  20
TORSDOF 4
ENDMDL
MODEL 5
REMARK VINA RESULT:      -6.8      6.188      8.351
REMARK  Name = 
REMARK  4 active torsions:
REMARK  status: ('A' for Active; 'I' for Inactive)
REMARK    1  A    between atoms: C_2  and  O_3
REMARK    2  A    between atoms: C_2  and  C_4
REMARK    3  A    between atoms: C_7  and  C_8
REMARK    4  A    between atoms: C_15  and  O_16
REMARK                            x       y       z     vdW  Elec       q    Type
REMARK                         _______ _______ _______ _____ _____    ______ ____
ROOT
ATOM      1  C   UNK     1       1.691   8.616  19.441  0.00  0.00    +0.000 A 
ATOM      2  C   UNK     1       2.126   8.902  18.155  0.00  0.00    +0.000 A 
ATOM      3  C   UNK     1       2.861   7.925  17.498  0.00  0.00    +0.000 A 
ATOM      4  C   UNK     1       3.123   6.699  18.122  0.00  0.00    +0.000 A 
ATOM      5  C   UNK     1       3.825   5.681  17.454  0.00  0.00    +0.000 A 
ATOM      6  C   UNK     1       4.063   4.455  18.068  0.00  0.00    +0.000 A 
ATOM      7  C   UNK     1       3.605   4.233  19.363  0.00  0.00    +0.000 A 
ATOM      8  C   UNK     1       2.910   5.248  20.028  0.00  0.00    +0.000 A 
ATOM      9  C   UNK     1       2.650   6.492  19.440  0.00  0.00    +0.000 A 
ATOM     10  N   UNK     1       1.959   7.454  20.080  0.00  0.00    +0.000 NA
ENDROOT
BRANCH   1  14
ATOM     11  C   UNK     1      -0.065  10.964  21.710  0.00  0.00    +0.000 C 
ATOM     12  C   UNK     1      -0.966  11.376  20.556  0.00  0.00    +0.000 C 
ATOM     13  S   UNK     1      -0.423  10.410  19.153  0.00  0.00    +0.000 S 
ATOM     14  C   UNK     1       0.748   9.544  20.114  0.00  0.00    +0.000 C 
ATOM     15  N   UNK     1       0.762   9.763  21.393  0.00  0.00    +0.000 NA
BRANCH  11  17
ATOM     16  O   UNK     1      -1.925  11.282  23.249  0.00  0.00    +0.000 OA
ATOM     17  C   UNK     1      -0.872  10.701  22.975  0.00  0.00    +0.000 C 
BRANCH  17  18
ATOM     18  O   UNK     1      -0.348   9.756  23.793  0.00  0.00    +0.000 OA
ATOM     19  H   UNK     1       0.627   9.699  23.691  0.00  0.00    +0.000 HD
ENDBRANCH  17  18
ENDBRANCH  11  17
ENDBRANCH   1  14
BRANCH   8  20
ATOM     20  O   UNK     1       2.451   5.003  21.304  0.00  0.00    +0.000 OA
ATOM     21  H   UNK     1       2.814   4.162  21.623  0.00  0.00    +0.000 HD
ENDBRANCH   8  20
TORSDOF 4
ENDMDL
MODEL 6
REMARK VINA RESULT:      -6.8      5.314      6.354
REMARK  Name = 
REMARK  4 active torsions:
REMARK  status: ('A' for Active; 'I' for Inactive)
REMARK    1  A    between atoms: C_2  and  O_3
REMARK    2  A    between atoms: C_2  and  C_4
REMARK    3  A    between atoms: C_7  and  C_8
REMARK    4  A    between atoms: C_15  and  O_16
REMARK                            x       y       z     vdW  Elec       q    Type
REMARK                         _______ _______ _______ _____ _____    ______ ____
ROOT
ATOM      1  C   UNK     1       2.543   6.907  18.786  0.00  0.00    +0.000 A 
ATOM      2  C   UNK     1       3.558   6.808  17.845  0.00  0.00    +0.000 A 
ATOM      3  C   UNK     1       3.913   5.535  17.421  0.00  0.00    +0.000 A 
ATOM      4  C   UNK     1       3.246   4.411  17.923  0.00  0.00    +0.000 A 
ATOM      5  C   UNK     1       3.561   3.119  17.470  0.00  0.00    +0.000 A 
ATOM      6  C   UNK     1       2.880   2.005  17.954  0.00  0.00    +0.000 A 
ATOM      7  C   UNK     1       1.876   2.171  18.902  0.00  0.00    +0.000 A 
ATOM      8  C   UNK     1       1.566   3.458  19.355  0.00  0.00    +0.000 A 
ATOM      9  C   UNK     1       2.228   4.599  18.889  0.00  0.00    +0.000 A 
ATOM     10  N   UNK     1       1.906   5.836  19.313  0.00  0.00    +0.000 NA
ENDROOT
BRANCH   1  14
ATOM     11  C   UNK     1       1.110  10.326  18.816  0.00  0.00    +0.000 C 
ATOM     12  C   UNK     1       0.732  10.134  20.277  0.00  0.00    +0.000 C 
ATOM     13  S   UNK     1       1.284   8.488  20.705  0.00  0.00    +0.000 S 
ATOM     14  C   UNK     1       1.998   8.243  19.132  0.00  0.00    +0.000 C 
ATOM     15  N   UNK     1       2.005   9.245  18.308  0.00  0.00    +0.000 NA
BRANCH  11  17
ATOM     16  O   UNK     1       1.698  12.619  19.382  0.00  0.00    +0.000 OA
ATOM     17  C   UNK     1       1.772  11.678  18.588  0.00  0.00    +0.000 C 
BRANCH  17  18
ATOM     18  O   UNK     1       2.473  11.777  17.433  0.00  0.00    +0.000 OA
ATOM     19  H   UNK     1       2.458  12.695  17.086  0.00  0.00    +0.000 HD
ENDBRANCH  17  18
ENDBRANCH  11  17
ENDBRANCH   1  14
BRANCH   8  20
ATOM     20  O   UNK     1       0.558   3.602  20.283  0.00  0.00    +0.000 OA
ATOM     21  H   UNK     1       0.775   4.329  20.887  0.00  0.00    +0.000 HD
ENDBRANCH   8  20
TORSDOF 4
ENDMDL
MODEL 7
REMARK VINA RESULT:      -6.6      4.495      5.236
REMARK  Name = 
REMARK  4 active torsions:
REMARK  status: ('A' for Active; 'I' for Inactive)
REMARK    1  A    between atoms: C_2  and  O_3
REMARK    2  A    between atoms: C_2  and  C_4
REMARK    3  A    between atoms: C_7  and  C_8
REMARK    4  A    between atoms: C_15  and  O_16
REMARK                            x       y       z     vdW  Elec       q    Type
REMARK                         _______ _______ _______ _____ _____    ______ ____
ROOT
ATOM      1  C   UNK     1       2.945   6.567  19.008  0.00  0.00    +0.000 A 
ATOM      2  C   UNK     1       2.423   6.107  20.208  0.00  0.00    +0.000 A 
ATOM      3  C   UNK     1       1.528   6.934  20.873  0.00  0.00    +0.000 A 
ATOM      4  C   UNK     1       1.167   8.171  20.324  0.00  0.00    +0.000 A 
ATOM      5  C   UNK     1       0.227   8.999  20.960  0.00  0.00    +0.000 A 
ATOM      6  C   UNK     1      -0.148  10.217  20.400  0.00  0.00    +0.000 A 
ATOM      7  C   UNK     1       0.418  10.624  19.196  0.00  0.00    +0.000 A 
ATOM      8  C   UNK     1       1.356   9.800  18.566  0.00  0.00    +0.000 A 
ATOM      9  C   UNK     1       1.754   8.568  19.099  0.00  0.00    +0.000 A 
ATOM     10  N   UNK     1       2.641   7.771  18.472  0.00  0.00    +0.000 NA
ENDROOT
BRANCH   1  14
ATOM     11  C   UNK     1       5.616   4.631  17.314  0.00  0.00    +0.000 C 
ATOM     12  C   UNK     1       4.576   3.605  16.889  0.00  0.00    +0.000 C 
ATOM     13  S   UNK     1       3.021   4.194  17.547  0.00  0.00    +0.000 S 
ATOM     14  C   UNK     1       3.755   5.650  18.167  0.00  0.00    +0.000 C 
ATOM     15  N   UNK     1       5.003   5.867  17.884  0.00  0.00    +0.000 NA
BRANCH  11  17
ATOM     16  O   UNK     1       6.155   5.666  15.178  0.00  0.00    +0.000 OA
ATOM     17  C   UNK     1       6.527   5.009  16.153  0.00  0.00    +0.000 C 
BRANCH  17  18
ATOM     18  O   UNK     1       7.803   4.573  16.271  0.00  0.00    +0.000 OA
ATOM     19  H   UNK     1       8.283   5.064  16.974  0.00  0.00    +0.000 HD
ENDBRANCH  17  18
ENDBRANCH  11  17
ENDBRANCH   1  14
BRANCH   8  20
ATOM     20  O   UNK     1       1.894  10.214  17.367  0.00  0.00    +0.000 OA
ATOM     21  H   UNK     1       2.421  11.016  17.507  0.00  0.00    +0.000 HD
ENDBRANCH   8  20
TORSDOF 4
ENDMDL
MODEL 8
REMARK VINA RESULT:      -6.6      4.780      6.274
REMARK  Name = 
REMARK  4 active torsions:
REMARK  status: ('A' for Active; 'I' for Inactive)
REMARK    1  A    between atoms: C_2  and  O_3
REMARK    2  A    between atoms: C_2  and  C_4
REMARK    3  A    between atoms: C_7  and  C_8
REMARK    4  A    between atoms: C_15  and  O_16
REMARK                            x       y       z     vdW  Elec       q    Type
REMARK                         _______ _______ _______ _____ _____    ______ ____
ROOT
ATOM      1  C   UNK     1       2.397   6.940  19.484  0.00  0.00    +0.000 A 
ATOM      2  C   UNK     1       1.758   6.743  20.700  0.00  0.00    +0.000 A 
ATOM      3  C   UNK     1       0.981   7.785  21.188  0.00  0.00    +0.000 A 
ATOM      4  C   UNK     1       0.848   8.971  20.456  0.00  0.00    +0.000 A 
ATOM      5  C   UNK     1       0.028  10.017  20.913  0.00  0.00    +0.000 A 
ATOM      6  C   UNK     1      -0.121  11.185  20.171  0.00  0.00    +0.000 A 
ATOM      7  C   UNK     1       0.554  11.323  18.963  0.00  0.00    +0.000 A 
ATOM      8  C   UNK     1       1.372  10.283  18.510  0.00  0.00    +0.000 A 
ATOM      9  C   UNK     1       1.543   9.094  19.229  0.00  0.00    +0.000 A 
ATOM     10  N   UNK     1       2.314   8.088  18.773  0.00  0.00    +0.000 NA
ENDROOT
BRANCH   1  14
ATOM     11  C   UNK     1       3.397   3.681  18.027  0.00  0.00    +0.000 C 
ATOM     12  C   UNK     1       4.483   4.391  17.233  0.00  0.00    +0.000 C 
ATOM     13  S   UNK     1       4.347   6.120  17.670  0.00  0.00    +0.000 S 
ATOM     14  C   UNK     1       3.083   5.799  18.829  0.00  0.00    +0.000 C 
ATOM     15  N   UNK     1       2.773   4.561  19.059  0.00  0.00    +0.000 NA
BRANCH  11  17
ATOM     16  O   UNK     1       3.449   1.300  18.529  0.00  0.00    +0.000 OA
ATOM     17  C   UNK     1       3.934   2.422  18.695  0.00  0.00    +0.000 C 
BRANCH  17  18
ATOM     18  O   UNK     1       5.009   2.620  19.494  0.00  0.00    +0.000 OA
ATOM     19  H   UNK     1       5.091   1.907  20.163  0.00  0.00    +0.000 HD
ENDBRANCH  17  18
ENDBRANCH  11  17
ENDBRANCH   1  14
BRANCH   8  20
ATOM     20  O   UNK     1       2.019  10.434  17.304  0.00  0.00    +0.000 OA
ATOM     21  H   UNK     1       2.017  11.369  17.049  0.00  0.00    +0.000 HD
ENDBRANCH   8  20
TORSDOF 4
ENDMDL
MODEL 9
REMARK VINA RESULT:      -6.6      4.845      6.287
REMARK  Name = 
REMARK  4 active torsions:
REMARK  status: ('A' for Active; 'I' for Inactive)
REMARK    1  A    between atoms: C_2  and  O_3
REMARK    2  A    between atoms: C_2  and  C_4
REMARK    3  A    between atoms: C_7  and  C_8
REMARK    4  A    between atoms: C_15  and  O_16
REMARK                            x       y       z     vdW  Elec       q    Type
REMARK                         _______ _______ _______ _____ _____    ______ ____
ROOT
ATOM      1  C   UNK     1       2.229   6.766  19.382  0.00  0.00    +0.000 A 
ATOM      2  C   UNK     1       1.722   6.619  20.665  0.00  0.00    +0.000 A 
ATOM      3  C   UNK     1       1.122   7.729  21.245  0.00  0.00    +0.000 A 
ATOM      4  C   UNK     1       1.028   8.933  20.536  0.00  0.00    +0.000 A 
ATOM      5  C   UNK     1       0.383  10.051  21.090  0.00  0.00    +0.000 A 
ATOM      6  C   UNK     1       0.270  11.239  20.373  0.00  0.00    +0.000 A 
ATOM      7  C   UNK     1       0.806  11.324  19.093  0.00  0.00    +0.000 A 
ATOM      8  C   UNK     1       1.450  10.211  18.543  0.00  0.00    +0.000 A 
ATOM      9  C   UNK     1       1.580   9.000  19.234  0.00  0.00    +0.000 A 
ATOM     10  N   UNK     1       2.182   7.926  18.688  0.00  0.00    +0.000 NA
ENDROOT
BRANCH   1  14
ATOM     11  C   UNK     1       2.610   3.573  17.537  0.00  0.00    +0.000 C 
ATOM     12  C   UNK     1       3.979   4.033  17.061  0.00  0.00    +0.000 C 
ATOM     13  S   UNK     1       4.217   5.656  17.774  0.00  0.00    +0.000 S 
ATOM     14  C   UNK     1       2.708   5.569  18.647  0.00  0.00    +0.000 C 
ATOM     15  N   UNK     1       2.045   4.455  18.601  0.00  0.00    +0.000 NA
BRANCH  11  17
ATOM     16  O   UNK     1       3.679   1.452  18.069  0.00  0.00    +0.000 OA
ATOM     17  C   UNK     1       2.654   2.137  18.044  0.00  0.00    +0.000 C 
BRANCH  17  18
ATOM     18  O   UNK     1       1.466   1.656  18.482  0.00  0.00    +0.000 OA
ATOM     19  H   UNK     1       0.718   2.039  17.975  0.00  0.00    +0.000 HD
ENDBRANCH  17  18
ENDBRANCH  11  17
ENDBRANCH   1  14
BRANCH   8  20
ATOM     20  O   UNK     1       1.961  10.310  17.268  0.00  0.00    +0.000 OA
ATOM     21  H   UNK     1       2.087  11.244  17.041  0.00  0.00    +0.000 HD
ENDBRANCH   8  20
TORSDOF 4
ENDMDL
