MODEL 1
REMARK VINA RESULT:      -8.4      0.000      0.000
REMARK  Name = 
REMARK  7 active torsions:
REMARK  status: ('A' for Active; 'I' for Inactive)
REMARK    1  A    between atoms: C_1  and  O_2
REMARK    2  A    between atoms: O_2  and  C_3
REMARK    3  A    between atoms: C_6  and  C_7
REMARK    4  A    between atoms: N_12  and  C_13
REMARK    5  A    between atoms: C_16  and  C_17
REMARK    6  A    between atoms: C_17  and  C_18
REMARK    7  A    between atoms: C_18  and  N_19
REMARK                            x       y       z     vdW  Elec       q    Type
REMARK                         _______ _______ _______ _____ _____    ______ ____
ROOT
ATOM      1  C   UNL     1       1.697   6.935  19.573  0.00  0.00    +0.000 A 
ATOM      2  C   UNL     1       2.132   7.291  18.295  0.00  0.00    +0.000 A 
ATOM      3  C   UNL     1       2.205   8.636  17.907  0.00  0.00    +0.000 A 
ATOM      4  C   UNL     1       1.858   9.670  18.785  0.00  0.00    +0.000 A 
ATOM      5  C   UNL     1       1.490   9.320  20.087  0.00  0.00    +0.000 A 
ATOM      6  C   UNL     1       1.421   7.975  20.471  0.00  0.00    +0.000 A 
ENDROOT
BRANCH   1  12
ATOM      7  C   UNL     1       4.986   4.136  19.320  0.00  0.00    +0.000 C 
ATOM      8  C   UNL     1       4.758   2.653  19.588  0.00  0.00    +0.000 C 
ATOM      9  C   UNL     1       3.880   2.411  20.794  0.00  0.00    +0.000 C 
ATOM     10  S   UNL     1       2.233   3.104  20.532  0.00  0.00    +0.000 S 
ATOM     11  C   UNL     1       2.672   4.681  19.933  0.00  0.00    +0.000 C 
ATOM     12  N   UNL     1       1.628   5.578  19.925  0.00  0.00    +0.000 N 
ATOM     13  N   UNL     1       3.831   4.975  19.505  0.00  0.00    +0.000 NA
ATOM     14  H   UNL     1       0.715   5.202  20.122  0.00  0.00    +0.000 HD
BRANCH   7  18
ATOM     15  C   UNL     1       6.481   4.730  15.291  0.00  0.00    +0.000 A 
ATOM     16  C   UNL     1       7.329   4.899  16.380  0.00  0.00    +0.000 A 
ATOM     17  C   UNL     1       6.853   4.696  17.676  0.00  0.00    +0.000 A 
ATOM     18  C   UNL     1       5.512   4.332  17.905  0.00  0.00    +0.000 A 
ATOM     19  C   UNL     1       4.666   4.180  16.803  0.00  0.00    +0.000 A 
ATOM     20  C   UNL     1       5.146   4.379  15.503  0.00  0.00    +0.000 A 
BRANCH  15  22
ATOM     21  C   UNL     1       6.664   4.076  13.033  0.00  0.00    +0.000 C 
ATOM     22  O   UNL     1       7.043   4.975  14.068  0.00  0.00    +0.000 OA
ENDBRANCH  15  22
ENDBRANCH   7  18
ENDBRANCH   1  12
BRANCH   4  23
ATOM     23  C   UNL     1       1.848  11.130  18.381  0.00  0.00    +0.000 C 
BRANCH  23  24
ATOM     24  C   UNL     1       0.684  11.967  18.943  0.00  0.00    +0.000 C 
BRANCH  24  25
ATOM     25  N   UNL     1      -0.401  12.069  17.973  0.00  0.00    +0.000 N 
ATOM     26  C   UNL     1      -1.700  11.963  18.346  0.00  0.00    +0.000 A 
ATOM     27  N   UNL     1      -2.583  11.471  17.512  0.00  0.00    +0.000 NA
ATOM     28  C   UNL     1      -3.860  11.556  18.035  0.00  0.00    +0.000 A 
ATOM     29  C   UNL     1      -5.045  11.155  17.384  0.00  0.00    +0.000 A 
ATOM     30  C   UNL     1      -6.282  11.344  18.005  0.00  0.00    +0.000 A 
ATOM     31  C   UNL     1      -6.352  11.917  19.270  0.00  0.00    +0.000 A 
ATOM     32  C   UNL     1      -5.188  12.298  19.952  0.00  0.00    +0.000 A 
ATOM     33  C   UNL     1      -3.949  12.109  19.312  0.00  0.00    +0.000 A 
ATOM     34  S   UNL     1      -2.356  12.474  19.859  0.00  0.00    +0.000 S 
ATOM     35  H   UNL     1      -0.220  11.586  17.100  0.00  0.00    +0.000 HD
ENDBRANCH  24  25
ENDBRANCH  23  24
ENDBRANCH   4  23
TORSDOF 6
ENDMDL
MODEL 2
REMARK VINA RESULT:      -8.4      3.026     10.348
REMARK  Name = 
REMARK  7 active torsions:
REMARK  status: ('A' for Active; 'I' for Inactive)
REMARK    1  A    between atoms: C_1  and  O_2
REMARK    2  A    between atoms: O_2  and  C_3
REMARK    3  A    between atoms: C_6  and  C_7
REMARK    4  A    between atoms: N_12  and  C_13
REMARK    5  A    between atoms: C_16  and  C_17
REMARK    6  A    between atoms: C_17  and  C_18
REMARK    7  A    between atoms: C_18  and  N_19
REMARK                            x       y       z     vdW  Elec       q    Type
REMARK                         _______ _______ _______ _____ _____    ______ ____
ROOT
ATOM      1  C   UNL     1       1.423   9.422  19.803  0.00  0.00    +0.000 A 
ATOM      2  C   UNL     1       1.775   9.234  18.466  0.00  0.00    +0.000 A 
ATOM      3  C   UNL     1       2.256   7.997  18.015  0.00  0.00    +0.000 A 
ATOM      4  C   UNL     1       2.390   6.905  18.880  0.00  0.00    +0.000 A 
ATOM      5  C   UNL     1       1.972   7.070  20.203  0.00  0.00    +0.000 A 
ATOM      6  C   UNL     1       1.489   8.307  20.649  0.00  0.00    +0.000 A 
ENDROOT
BRANCH   1  12
ATOM      7  C   UNL     1      -2.582  10.919  19.141  0.00  0.00    +0.000 C 
ATOM      8  C   UNL     1      -2.938  12.354  19.509  0.00  0.00    +0.000 C 
ATOM      9  C   UNL     1      -2.380  12.763  20.853  0.00  0.00    +0.000 C 
ATOM     10  S   UNL     1      -0.574  12.714  20.833  0.00  0.00    +0.000 S 
ATOM     11  C   UNL     1      -0.334  11.151  20.100  0.00  0.00    +0.000 C 
ATOM     12  N   UNL     1       0.953  10.676  20.223  0.00  0.00    +0.000 N 
ATOM     13  N   UNL     1      -1.240  10.518  19.475  0.00  0.00    +0.000 NA
ATOM     14  H   UNL     1       1.634  11.324  20.584  0.00  0.00    +0.000 HD
BRANCH   7  18
ATOM     15  C   UNL     1      -3.183  10.305  14.889  0.00  0.00    +0.000 A 
ATOM     16  C   UNL     1      -2.172   9.621  15.555  0.00  0.00    +0.000 A 
ATOM     17  C   UNL     1      -1.986   9.808  16.925  0.00  0.00    +0.000 A 
ATOM     18  C   UNL     1      -2.803  10.696  17.652  0.00  0.00    +0.000 A 
ATOM     19  C   UNL     1      -3.805  11.389  16.968  0.00  0.00    +0.000 A 
ATOM     20  C   UNL     1      -3.995  11.196  15.594  0.00  0.00    +0.000 A 
BRANCH  15  22
ATOM     21  C   UNL     1      -4.569   9.775  13.056  0.00  0.00    +0.000 C 
ATOM     22  O   UNL     1      -3.265  10.065  13.545  0.00  0.00    +0.000 OA
ENDBRANCH  15  22
ENDBRANCH   7  18
ENDBRANCH   1  12
BRANCH   4  23
ATOM     23  C   UNL     1       2.978   5.576  18.451  0.00  0.00    +0.000 C 
BRANCH  23  24
ATOM     24  C   UNL     1       4.509   5.459  18.567  0.00  0.00    +0.000 C 
BRANCH  24  25
ATOM     25  N   UNL     1       5.170   6.144  17.461  0.00  0.00    +0.000 N 
ATOM     26  C   UNL     1       5.528   5.487  16.331  0.00  0.00    +0.000 A 
ATOM     27  N   UNL     1       6.576   5.880  15.649  0.00  0.00    +0.000 NA
ATOM     28  C   UNL     1       6.702   5.160  14.475  0.00  0.00    +0.000 A 
ATOM     29  C   UNL     1       7.694   5.354  13.493  0.00  0.00    +0.000 A 
ATOM     30  C   UNL     1       7.679   4.589  12.323  0.00  0.00    +0.000 A 
ATOM     31  C   UNL     1       6.694   3.628  12.126  0.00  0.00    +0.000 A 
ATOM     32  C   UNL     1       5.713   3.394  13.100  0.00  0.00    +0.000 A 
ATOM     33  C   UNL     1       5.736   4.176  14.270  0.00  0.00    +0.000 A 
ATOM     34  S   UNL     1       4.685   4.151  15.636  0.00  0.00    +0.000 S 
ATOM     35  H   UNL     1       5.882   6.804  17.754  0.00  0.00    +0.000 HD
ENDBRANCH  24  25
ENDBRANCH  23  24
ENDBRANCH   4  23
TORSDOF 6
ENDMDL
MODEL 3
REMARK VINA RESULT:      -8.3      7.147     11.928
REMARK  Name = 
REMARK  7 active torsions:
REMARK  status: ('A' for Active; 'I' for Inactive)
REMARK    1  A    between atoms: C_1  and  O_2
REMARK    2  A    between atoms: O_2  and  C_3
REMARK    3  A    between atoms: C_6  and  C_7
REMARK    4  A    between atoms: N_12  and  C_13
REMARK    5  A    between atoms: C_16  and  C_17
REMARK    6  A    between atoms: C_17  and  C_18
REMARK    7  A    between atoms: C_18  and  N_19
REMARK                            x       y       z     vdW  Elec       q    Type
REMARK                         _______ _______ _______ _____ _____    ______ ____
ROOT
ATOM      1  C   UNL     1       9.930  13.147  17.577  0.00  0.00    +0.000 A 
ATOM      2  C   UNL     1      10.887  12.227  18.007  0.00  0.00    +0.000 A 
ATOM      3  C   UNL     1      10.518  10.933  18.400  0.00  0.00    +0.000 A 
ATOM      4  C   UNL     1       9.184  10.511  18.364  0.00  0.00    +0.000 A 
ATOM      5  C   UNL     1       8.233  11.406  17.867  0.00  0.00    +0.000 A 
ATOM      6  C   UNL     1       8.606  12.697  17.474  0.00  0.00    +0.000 A 
ENDROOT
BRANCH   1  12
ATOM      7  C   UNL     1       8.424  16.819  19.299  0.00  0.00    +0.000 C 
ATOM      8  C   UNL     1       8.823  18.166  18.709  0.00  0.00    +0.000 C 
ATOM      9  C   UNL     1      10.295  18.241  18.378  0.00  0.00    +0.000 C 
ATOM     10  S   UNL     1      10.726  17.025  17.114  0.00  0.00    +0.000 S 
ATOM     11  C   UNL     1       9.935  15.621  17.779  0.00  0.00    +0.000 C 
ATOM     12  N   UNL     1      10.333  14.437  17.199  0.00  0.00    +0.000 N 
ATOM     13  N   UNL     1       9.046  15.675  18.684  0.00  0.00    +0.000 NA
ATOM     14  H   UNL     1      10.912  14.515  16.379  0.00  0.00    +0.000 HD
BRANCH   7  18
ATOM     15  C   UNL     1       4.117  16.320  19.135  0.00  0.00    +0.000 A 
ATOM     16  C   UNL     1       4.672  17.335  19.907  0.00  0.00    +0.000 A 
ATOM     17  C   UNL     1       6.056  17.505  19.951  0.00  0.00    +0.000 A 
ATOM     18  C   UNL     1       6.913  16.649  19.231  0.00  0.00    +0.000 A 
ATOM     19  C   UNL     1       6.344  15.624  18.471  0.00  0.00    +0.000 A 
ATOM     20  C   UNL     1       4.955  15.458  18.423  0.00  0.00    +0.000 A 
BRANCH  15  22
ATOM     21  C   UNL     1       2.200  15.068  18.573  0.00  0.00    +0.000 C 
ATOM     22  O   UNL     1       2.754  16.230  19.180  0.00  0.00    +0.000 OA
ENDBRANCH  15  22
ENDBRANCH   7  18
ENDBRANCH   1  12
BRANCH   4  23
ATOM     23  C   UNL     1       8.733   9.149  18.853  0.00  0.00    +0.000 C 
BRANCH  23  24
ATOM     24  C   UNL     1       8.005   8.278  17.813  0.00  0.00    +0.000 C 
BRANCH  24  25
ATOM     25  N   UNL     1       7.934   6.889  18.254  0.00  0.00    +0.000 N 
ATOM     26  C   UNL     1       6.783   6.177  18.175  0.00  0.00    +0.000 A 
ATOM     27  N   UNL     1       6.538   5.230  19.048  0.00  0.00    +0.000 NA
ATOM     28  C   UNL     1       5.378   4.549  18.728  0.00  0.00    +0.000 A 
ATOM     29  C   UNL     1       4.847   3.450  19.432  0.00  0.00    +0.000 A 
ATOM     30  C   UNL     1       3.690   2.816  18.972  0.00  0.00    +0.000 A 
ATOM     31  C   UNL     1       3.051   3.271  17.824  0.00  0.00    +0.000 A 
ATOM     32  C   UNL     1       3.540   4.381  17.120  0.00  0.00    +0.000 A 
ATOM     33  C   UNL     1       4.710   5.005  17.591  0.00  0.00    +0.000 A 
ATOM     34  S   UNL     1       5.568   6.362  16.963  0.00  0.00    +0.000 S 
ATOM     35  H   UNL     1       8.431   6.705  19.118  0.00  0.00    +0.000 HD
ENDBRANCH  24  25
ENDBRANCH  23  24
ENDBRANCH   4  23
TORSDOF 6
ENDMDL
MODEL 4
REMARK VINA RESULT:      -8.2      3.246     10.466
REMARK  Name = 
REMARK  7 active torsions:
REMARK  status: ('A' for Active; 'I' for Inactive)
REMARK    1  A    between atoms: C_1  and  O_2
REMARK    2  A    between atoms: O_2  and  C_3
REMARK    3  A    between atoms: C_6  and  C_7
REMARK    4  A    between atoms: N_12  and  C_13
REMARK    5  A    between atoms: C_16  and  C_17
REMARK    6  A    between atoms: C_17  and  C_18
REMARK    7  A    between atoms: C_18  and  N_19
REMARK                            x       y       z     vdW  Elec       q    Type
REMARK                         _______ _______ _______ _____ _____    ______ ____
ROOT
ATOM      1  C   UNL     1      -0.841  11.908  22.272  0.00  0.00    +0.000 A 
ATOM      2  C   UNL     1      -0.920  10.851  23.180  0.00  0.00    +0.000 A 
ATOM      3  C   UNL     1      -0.108   9.717  23.040  0.00  0.00    +0.000 A 
ATOM      4  C   UNL     1       0.817   9.606  21.995  0.00  0.00    +0.000 A 
ATOM      5  C   UNL     1       0.948  10.692  21.125  0.00  0.00    +0.000 A 
ATOM      6  C   UNL     1       0.137  11.824  21.271  0.00  0.00    +0.000 A 
ENDROOT
BRANCH   1  12
ATOM      7  C   UNL     1      -4.753  12.370  20.483  0.00  0.00    +0.000 C 
ATOM      8  C   UNL     1      -5.507  13.688  20.611  0.00  0.00    +0.000 C 
ATOM      9  C   UNL     1      -5.434  14.265  22.006  0.00  0.00    +0.000 C 
ATOM     10  S   UNL     1      -3.726  14.653  22.446  0.00  0.00    +0.000 S 
ATOM     11  C   UNL     1      -2.954  13.170  21.950  0.00  0.00    +0.000 C 
ATOM     12  N   UNL     1      -1.675  13.025  22.438  0.00  0.00    +0.000 N 
ATOM     13  N   UNL     1      -3.495  12.317  21.182  0.00  0.00    +0.000 NA
ATOM     14  H   UNL     1      -1.278  13.830  22.895  0.00  0.00    +0.000 HD
BRANCH   7  18
ATOM     15  C   UNL     1      -4.048  11.491  16.294  0.00  0.00    +0.000 A 
ATOM     16  C   UNL     1      -3.040  11.282  17.229  0.00  0.00    +0.000 A 
ATOM     17  C   UNL     1      -3.269  11.552  18.578  0.00  0.00    +0.000 A 
ATOM     18  C   UNL     1      -4.512  12.051  19.015  0.00  0.00    +0.000 A 
ATOM     19  C   UNL     1      -5.511  12.272  18.064  0.00  0.00    +0.000 A 
ATOM     20  C   UNL     1      -5.282  11.995  16.711  0.00  0.00    +0.000 A 
BRANCH  15  22
ATOM     21  C   UNL     1      -2.862  10.087  14.817  0.00  0.00    +0.000 C 
ATOM     22  O   UNL     1      -3.710  11.215  14.998  0.00  0.00    +0.000 OA
ENDBRANCH  15  22
ENDBRANCH   7  18
ENDBRANCH   1  12
BRANCH   4  23
ATOM     23  C   UNL     1       1.657   8.366  21.761  0.00  0.00    +0.000 C 
BRANCH  23  24
ATOM     24  C   UNL     1       1.021   7.294  20.859  0.00  0.00    +0.000 C 
BRANCH  24  25
ATOM     25  N   UNL     1       1.957   6.204  20.602  0.00  0.00    +0.000 N 
ATOM     26  C   UNL     1       2.632   6.109  19.430  0.00  0.00    +0.000 A 
ATOM     27  N   UNL     1       2.967   4.932  18.962  0.00  0.00    +0.000 NA
ATOM     28  C   UNL     1       3.745   5.054  17.826  0.00  0.00    +0.000 A 
ATOM     29  C   UNL     1       4.308   3.988  17.094  0.00  0.00    +0.000 A 
ATOM     30  C   UNL     1       5.121   4.251  15.989  0.00  0.00    +0.000 A 
ATOM     31  C   UNL     1       5.372   5.561  15.598  0.00  0.00    +0.000 A 
ATOM     32  C   UNL     1       4.801   6.639  16.290  0.00  0.00    +0.000 A 
ATOM     33  C   UNL     1       3.990   6.361  17.405  0.00  0.00    +0.000 A 
ATOM     34  S   UNL     1       3.160   7.438  18.464  0.00  0.00    +0.000 S 
ATOM     35  H   UNL     1       1.634   5.299  20.925  0.00  0.00    +0.000 HD
ENDBRANCH  24  25
ENDBRANCH  23  24
ENDBRANCH   4  23
TORSDOF 6
ENDMDL
MODEL 5
REMARK VINA RESULT:      -8.2      3.433     10.821
REMARK  Name = 
REMARK  7 active torsions:
REMARK  status: ('A' for Active; 'I' for Inactive)
REMARK    1  A    between atoms: C_1  and  O_2
REMARK    2  A    between atoms: O_2  and  C_3
REMARK    3  A    between atoms: C_6  and  C_7
REMARK    4  A    between atoms: N_12  and  C_13
REMARK    5  A    between atoms: C_16  and  C_17
REMARK    6  A    between atoms: C_17  and  C_18
REMARK    7  A    between atoms: C_18  and  N_19
REMARK                            x       y       z     vdW  Elec       q    Type
REMARK                         _______ _______ _______ _____ _____    ______ ____
ROOT
ATOM      1  C   UNL     1      -1.322  12.416  22.464  0.00  0.00    +0.000 A 
ATOM      2  C   UNL     1      -0.332  12.381  21.482  0.00  0.00    +0.000 A 
ATOM      3  C   UNL     1       0.523  11.277  21.359  0.00  0.00    +0.000 A 
ATOM      4  C   UNL     1       0.410  10.168  22.206  0.00  0.00    +0.000 A 
ATOM      5  C   UNL     1      -0.625  10.170  23.145  0.00  0.00    +0.000 A 
ATOM      6  C   UNL     1      -1.479  11.274  23.262  0.00  0.00    +0.000 A 
ENDROOT
BRANCH   1  12
ATOM      7  C   UNL     1      -5.262  12.746  20.707  0.00  0.00    +0.000 C 
ATOM      8  C   UNL     1      -6.017  14.069  20.754  0.00  0.00    +0.000 C 
ATOM      9  C   UNL     1      -5.925  14.743  22.103  0.00  0.00    +0.000 C 
ATOM     10  S   UNL     1      -4.211  15.163  22.489  0.00  0.00    +0.000 S 
ATOM     11  C   UNL     1      -3.443  13.650  22.087  0.00  0.00    +0.000 C 
ATOM     12  N   UNL     1      -2.156  13.541  22.564  0.00  0.00    +0.000 N 
ATOM     13  N   UNL     1      -3.993  12.744  21.388  0.00  0.00    +0.000 NA
ATOM     14  H   UNL     1      -1.754  14.376  22.957  0.00  0.00    +0.000 HD
BRANCH   7  18
ATOM     15  C   UNL     1      -4.613  11.573  16.582  0.00  0.00    +0.000 A 
ATOM     16  C   UNL     1      -3.686  11.225  17.559  0.00  0.00    +0.000 A 
ATOM     17  C   UNL     1      -3.900  11.591  18.888  0.00  0.00    +0.000 A 
ATOM     18  C   UNL     1      -5.042  12.325  19.261  0.00  0.00    +0.000 A 
ATOM     19  C   UNL     1      -5.958  12.682  18.268  0.00  0.00    +0.000 A 
ATOM     20  C   UNL     1      -5.746  12.309  16.935  0.00  0.00    +0.000 A 
BRANCH  15  22
ATOM     21  C   UNL     1      -2.997  10.625  15.149  0.00  0.00    +0.000 C 
ATOM     22  O   UNL     1      -4.296  11.184  15.310  0.00  0.00    +0.000 OA
ENDBRANCH  15  22
ENDBRANCH   7  18
ENDBRANCH   1  12
BRANCH   4  23
ATOM     23  C   UNL     1       1.363   8.990  22.159  0.00  0.00    +0.000 C 
BRANCH  23  24
ATOM     24  C   UNL     1       1.316   8.149  20.871  0.00  0.00    +0.000 C 
BRANCH  24  25
ATOM     25  N   UNL     1       1.632   6.751  21.148  0.00  0.00    +0.000 N 
ATOM     26  C   UNL     1       2.075   5.917  20.175  0.00  0.00    +0.000 A 
ATOM     27  N   UNL     1       1.797   4.638  20.234  0.00  0.00    +0.000 NA
ATOM     28  C   UNL     1       2.433   3.946  19.220  0.00  0.00    +0.000 A 
ATOM     29  C   UNL     1       2.382   2.552  19.016  0.00  0.00    +0.000 A 
ATOM     30  C   UNL     1       3.116   1.969  17.979  0.00  0.00    +0.000 A 
ATOM     31  C   UNL     1       3.891   2.759  17.139  0.00  0.00    +0.000 A 
ATOM     32  C   UNL     1       3.937   4.151  17.300  0.00  0.00    +0.000 A 
ATOM     33  C   UNL     1       3.199   4.724  18.352  0.00  0.00    +0.000 A 
ATOM     34  S   UNL     1       3.049   6.375  18.826  0.00  0.00    +0.000 S 
ATOM     35  H   UNL     1       0.968   6.294  21.762  0.00  0.00    +0.000 HD
ENDBRANCH  24  25
ENDBRANCH  23  24
ENDBRANCH   4  23
TORSDOF 6
ENDMDL
MODEL 6
REMARK VINA RESULT:      -8.2      6.256      9.806
REMARK  Name = 
REMARK  7 active torsions:
REMARK  status: ('A' for Active; 'I' for Inactive)
REMARK    1  A    between atoms: C_1  and  O_2
REMARK    2  A    between atoms: O_2  and  C_3
REMARK    3  A    between atoms: C_6  and  C_7
REMARK    4  A    between atoms: N_12  and  C_13
REMARK    5  A    between atoms: C_16  and  C_17
REMARK    6  A    between atoms: C_17  and  C_18
REMARK    7  A    between atoms: C_18  and  N_19
REMARK                            x       y       z     vdW  Elec       q    Type
REMARK                         _______ _______ _______ _____ _____    ______ ____
ROOT
ATOM      1  C   UNL     1       6.760   5.997  18.275  0.00  0.00    +0.000 A 
ATOM      2  C   UNL     1       6.471   6.931  17.280  0.00  0.00    +0.000 A 
ATOM      3  C   UNL     1       7.198   8.126  17.180  0.00  0.00    +0.000 A 
ATOM      4  C   UNL     1       8.243   8.421  18.063  0.00  0.00    +0.000 A 
ATOM      5  C   UNL     1       8.580   7.456  19.016  0.00  0.00    +0.000 A 
ATOM      6  C   UNL     1       7.853   6.263  19.111  0.00  0.00    +0.000 A 
ENDROOT
BRANCH   1  12
ATOM      7  C   UNL     1       2.456   5.769  17.898  0.00  0.00    +0.000 C 
ATOM      8  C   UNL     1       1.730   4.452  18.146  0.00  0.00    +0.000 C 
ATOM      9  C   UNL     1       2.432   3.274  17.510  0.00  0.00    +0.000 C 
ATOM     10  S   UNL     1       4.075   3.051  18.226  0.00  0.00    +0.000 S 
ATOM     11  C   UNL     1       4.649   4.695  18.157  0.00  0.00    +0.000 C 
ATOM     12  N   UNL     1       6.007   4.814  18.351  0.00  0.00    +0.000 N 
ATOM     13  N   UNL     1       3.892   5.699  17.984  0.00  0.00    +0.000 NA
ATOM     14  H   UNL     1       6.489   3.982  18.648  0.00  0.00    +0.000 HD
BRANCH   7  18
ATOM     15  C   UNL     1       1.002   8.773  20.669  0.00  0.00    +0.000 A 
ATOM     16  C   UNL     1       1.135   7.451  21.081  0.00  0.00    +0.000 A 
ATOM     17  C   UNL     1       1.615   6.486  20.196  0.00  0.00    +0.000 A 
ATOM     18  C   UNL     1       1.958   6.827  18.872  0.00  0.00    +0.000 A 
ATOM     19  C   UNL     1       1.805   8.155  18.466  0.00  0.00    +0.000 A 
ATOM     20  C   UNL     1       1.329   9.123  19.358  0.00  0.00    +0.000 A 
BRANCH  15  22
ATOM     21  C   UNL     1       0.874   9.346  22.953  0.00  0.00    +0.000 C 
ATOM     22  O   UNL     1       0.504   9.632  21.610  0.00  0.00    +0.000 OA
ENDBRANCH  15  22
ENDBRANCH   7  18
ENDBRANCH   1  12
BRANCH   4  23
ATOM     23  C   UNL     1       9.001   9.733  18.040  0.00  0.00    +0.000 C 
BRANCH  23  24
ATOM     24  C   UNL     1       9.348  10.325  19.418  0.00  0.00    +0.000 C 
BRANCH  24  25
ATOM     25  N   UNL     1      10.468  11.255  19.319  0.00  0.00    +0.000 N 
ATOM     26  C   UNL     1      10.311  12.504  18.816  0.00  0.00    +0.000 A 
ATOM     27  N   UNL     1      11.305  13.088  18.191  0.00  0.00    +0.000 NA
ATOM     28  C   UNL     1      10.985  14.391  17.860  0.00  0.00    +0.000 A 
ATOM     29  C   UNL     1      11.839  15.311  17.219  0.00  0.00    +0.000 A 
ATOM     30  C   UNL     1      11.409  16.621  16.987  0.00  0.00    +0.000 A 
ATOM     31  C   UNL     1      10.136  17.020  17.378  0.00  0.00    +0.000 A 
ATOM     32  C   UNL     1       9.256  16.118  17.991  0.00  0.00    +0.000 A 
ATOM     33  C   UNL     1       9.704  14.805  18.224  0.00  0.00    +0.000 A 
ATOM     34  S   UNL     1       8.890  13.473  18.956  0.00  0.00    +0.000 S 
ATOM     35  H   UNL     1      11.331  10.828  19.003  0.00  0.00    +0.000 HD
ENDBRANCH  24  25
ENDBRANCH  23  24
ENDBRANCH   4  23
TORSDOF 6
ENDMDL
MODEL 7
REMARK VINA RESULT:      -8.1      6.114      9.695
REMARK  Name = 
REMARK  7 active torsions:
REMARK  status: ('A' for Active; 'I' for Inactive)
REMARK    1  A    between atoms: C_1  and  O_2
REMARK    2  A    between atoms: O_2  and  C_3
REMARK    3  A    between atoms: C_6  and  C_7
REMARK    4  A    between atoms: N_12  and  C_13
REMARK    5  A    between atoms: C_16  and  C_17
REMARK    6  A    between atoms: C_17  and  C_18
REMARK    7  A    between atoms: C_18  and  N_19
REMARK                            x       y       z     vdW  Elec       q    Type
REMARK                         _______ _______ _______ _____ _____    ______ ____
ROOT
ATOM      1  C   UNL     1       6.688   5.650  18.639  0.00  0.00    +0.000 A 
ATOM      2  C   UNL     1       6.258   6.482  17.605  0.00  0.00    +0.000 A 
ATOM      3  C   UNL     1       6.932   7.675  17.311  0.00  0.00    +0.000 A 
ATOM      4  C   UNL     1       8.066   8.070  18.032  0.00  0.00    +0.000 A 
ATOM      5  C   UNL     1       8.541   7.205  19.021  0.00  0.00    +0.000 A 
ATOM      6  C   UNL     1       7.865   6.012  19.309  0.00  0.00    +0.000 A 
ENDROOT
BRANCH   1  12
ATOM      7  C   UNL     1       2.381   5.253  18.558  0.00  0.00    +0.000 C 
ATOM      8  C   UNL     1       1.719   3.960  19.016  0.00  0.00    +0.000 C 
ATOM      9  C   UNL     1       2.425   2.729  18.495  0.00  0.00    +0.000 C 
ATOM     10  S   UNL     1       4.113   2.648  19.131  0.00  0.00    +0.000 S 
ATOM     11  C   UNL     1       4.622   4.285  18.817  0.00  0.00    +0.000 C 
ATOM     12  N   UNL     1       5.984   4.467  18.912  0.00  0.00    +0.000 N 
ATOM     13  N   UNL     1       3.821   5.236  18.564  0.00  0.00    +0.000 NA
ATOM     14  H   UNL     1       6.512   3.694  19.283  0.00  0.00    +0.000 HD
BRANCH   7  18
ATOM     15  C   UNL     1       1.047   8.569  21.016  0.00  0.00    +0.000 A 
ATOM     16  C   UNL     1       1.582   8.808  19.755  0.00  0.00    +0.000 A 
ATOM     17  C   UNL     1       2.000   7.742  18.958  0.00  0.00    +0.000 A 
ATOM     18  C   UNL     1       1.901   6.414  19.417  0.00  0.00    +0.000 A 
ATOM     19  C   UNL     1       1.377   6.188  20.692  0.00  0.00    +0.000 A 
ATOM     20  C   UNL     1       0.953   7.259  21.489  0.00  0.00    +0.000 A 
BRANCH  15  22
ATOM     21  C   UNL     1      -0.251   9.471  22.766  0.00  0.00    +0.000 C 
ATOM     22  O   UNL     1       0.690   9.685  21.721  0.00  0.00    +0.000 OA
ENDBRANCH  15  22
ENDBRANCH   7  18
ENDBRANCH   1  12
BRANCH   4  23
ATOM     23  C   UNL     1       8.777   9.388  17.799  0.00  0.00    +0.000 C 
BRANCH  23  24
ATOM     24  C   UNL     1       9.090  10.207  19.064  0.00  0.00    +0.000 C 
BRANCH  24  25
ATOM     25  N   UNL     1      10.245  11.073  18.853  0.00  0.00    +0.000 N 
ATOM     26  C   UNL     1      10.102  12.382  18.531  0.00  0.00    +0.000 A 
ATOM     27  N   UNL     1      11.007  12.978  17.793  0.00  0.00    +0.000 NA
ATOM     28  C   UNL     1      10.740  14.330  17.677  0.00  0.00    +0.000 A 
ATOM     29  C   UNL     1      11.533  15.269  16.988  0.00  0.00    +0.000 A 
ATOM     30  C   UNL     1      11.178  16.621  16.991  0.00  0.00    +0.000 A 
ATOM     31  C   UNL     1      10.037  17.044  17.664  0.00  0.00    +0.000 A 
ATOM     32  C   UNL     1       9.215  16.128  18.333  0.00  0.00    +0.000 A 
ATOM     33  C   UNL     1       9.588  14.771  18.328  0.00  0.00    +0.000 A 
ATOM     34  S   UNL     1       8.817  13.410  19.052  0.00  0.00    +0.000 S 
ATOM     35  H   UNL     1      10.996  10.637  18.329  0.00  0.00    +0.000 HD
ENDBRANCH  24  25
ENDBRANCH  23  24
ENDBRANCH   4  23
TORSDOF 6
ENDMDL
MODEL 8
REMARK VINA RESULT:      -8.1      6.366     11.161
REMARK  Name = 
REMARK  7 active torsions:
REMARK  status: ('A' for Active; 'I' for Inactive)
REMARK    1  A    between atoms: C_1  and  O_2
REMARK    2  A    between atoms: O_2  and  C_3
REMARK    3  A    between atoms: C_6  and  C_7
REMARK    4  A    between atoms: N_12  and  C_13
REMARK    5  A    between atoms: C_16  and  C_17
REMARK    6  A    between atoms: C_17  and  C_18
REMARK    7  A    between atoms: C_18  and  N_19
REMARK                            x       y       z     vdW  Elec       q    Type
REMARK                         _______ _______ _______ _____ _____    ______ ____
ROOT
ATOM      1  C   UNL     1       9.533  12.669  18.496  0.00  0.00    +0.000 A 
ATOM      2  C   UNL     1       8.565  12.136  17.644  0.00  0.00    +0.000 A 
ATOM      3  C   UNL     1       8.228  10.777  17.696  0.00  0.00    +0.000 A 
ATOM      4  C   UNL     1       8.838   9.907  18.609  0.00  0.00    +0.000 A 
ATOM      5  C   UNL     1       9.756  10.452  19.510  0.00  0.00    +0.000 A 
ATOM      6  C   UNL     1      10.088  11.812  19.456  0.00  0.00    +0.000 A 
ENDROOT
BRANCH   1  12
ATOM      7  C   UNL     1       7.167  15.879  20.173  0.00  0.00    +0.000 C 
ATOM      8  C   UNL     1       7.531  17.332  19.891  0.00  0.00    +0.000 C 
ATOM      9  C   UNL     1       9.017  17.589  19.998  0.00  0.00    +0.000 C 
ATOM     10  S   UNL     1       9.918  16.627  18.763  0.00  0.00    +0.000 S 
ATOM     11  C   UNL     1       9.167  15.072  18.999  0.00  0.00    +0.000 C 
ATOM     12  N   UNL     1       9.852  14.033  18.411  0.00  0.00    +0.000 N 
ATOM     13  N   UNL     1       8.071  14.905  19.619  0.00  0.00    +0.000 NA
ATOM     14  H   UNL     1      10.612  14.289  17.802  0.00  0.00    +0.000 HD
BRANCH   7  18
ATOM     15  C   UNL     1       3.166  15.019  18.735  0.00  0.00    +0.000 A 
ATOM     16  C   UNL     1       3.369  15.352  20.069  0.00  0.00    +0.000 A 
ATOM     17  C   UNL     1       4.654  15.641  20.531  0.00  0.00    +0.000 A 
ATOM     18  C   UNL     1       5.762  15.589  19.663  0.00  0.00    +0.000 A 
ATOM     19  C   UNL     1       5.547  15.238  18.328  0.00  0.00    +0.000 A 
ATOM     20  C   UNL     1       4.256  14.954  17.865  0.00  0.00    +0.000 A 
BRANCH  15  22
ATOM     21  C   UNL     1       1.343  13.538  18.957  0.00  0.00    +0.000 C 
ATOM     22  O   UNL     1       1.872  14.733  18.394  0.00  0.00    +0.000 OA
ENDBRANCH  15  22
ENDBRANCH   7  18
ENDBRANCH   1  12
BRANCH   4  23
ATOM     23  C   UNL     1       8.560   8.418  18.645  0.00  0.00    +0.000 C 
BRANCH  23  24
ATOM     24  C   UNL     1       7.668   7.881  17.512  0.00  0.00    +0.000 C 
BRANCH  24  25
ATOM     25  N   UNL     1       7.486   6.437  17.629  0.00  0.00    +0.000 N 
ATOM     26  C   UNL     1       6.268   5.892  17.865  0.00  0.00    +0.000 A 
ATOM     27  N   UNL     1       6.172   4.769  18.534  0.00  0.00    +0.000 NA
ATOM     28  C   UNL     1       4.865   4.321  18.566  0.00  0.00    +0.000 A 
ATOM     29  C   UNL     1       4.418   3.126  19.166  0.00  0.00    +0.000 A 
ATOM     30  C   UNL     1       3.071   2.762  19.082  0.00  0.00    +0.000 A 
ATOM     31  C   UNL     1       2.164   3.579  18.416  0.00  0.00    +0.000 A 
ATOM     32  C   UNL     1       2.576   4.787  17.835  0.00  0.00    +0.000 A 
ATOM     33  C   UNL     1       3.936   5.137  17.921  0.00  0.00    +0.000 A 
ATOM     34  S   UNL     1       4.760   6.524  17.314  0.00  0.00    +0.000 S 
ATOM     35  H   UNL     1       8.215   5.973  18.159  0.00  0.00    +0.000 HD
ENDBRANCH  24  25
ENDBRANCH  23  24
ENDBRANCH   4  23
TORSDOF 6
ENDMDL
MODEL 9
REMARK VINA RESULT:      -8.1      6.011     11.012
REMARK  Name = 
REMARK  7 active torsions:
REMARK  status: ('A' for Active; 'I' for Inactive)
REMARK    1  A    between atoms: C_1  and  O_2
REMARK    2  A    between atoms: O_2  and  C_3
REMARK    3  A    between atoms: C_6  and  C_7
REMARK    4  A    between atoms: N_12  and  C_13
REMARK    5  A    between atoms: C_16  and  C_17
REMARK    6  A    between atoms: C_17  and  C_18
REMARK    7  A    between atoms: C_18  and  N_19
REMARK                            x       y       z     vdW  Elec       q    Type
REMARK                         _______ _______ _______ _____ _____    ______ ____
ROOT
ATOM      1  C   UNL     1       9.177  12.713  18.611  0.00  0.00    +0.000 A 
ATOM      2  C   UNL     1       9.817  11.947  19.587  0.00  0.00    +0.000 A 
ATOM      3  C   UNL     1       9.668  10.554  19.622  0.00  0.00    +0.000 A 
ATOM      4  C   UNL     1       8.885   9.879  18.678  0.00  0.00    +0.000 A 
ATOM      5  C   UNL     1       8.300  10.635  17.659  0.00  0.00    +0.000 A 
ATOM      6  C   UNL     1       8.455  12.027  17.625  0.00  0.00    +0.000 A 
ENDROOT
BRANCH   1  12
ATOM      7  C   UNL     1       6.422  15.537  20.387  0.00  0.00    +0.000 C 
ATOM      8  C   UNL     1       6.626  17.035  20.196  0.00  0.00    +0.000 C 
ATOM      9  C   UNL     1       8.070  17.450  20.362  0.00  0.00    +0.000 C 
ATOM     10  S   UNL     1       9.105  16.668  19.105  0.00  0.00    +0.000 S 
ATOM     11  C   UNL     1       8.529  15.028  19.233  0.00  0.00    +0.000 C 
ATOM     12  N   UNL     1       9.342  14.107  18.610  0.00  0.00    +0.000 N 
ATOM     13  N   UNL     1       7.445  14.704  19.809  0.00  0.00    +0.000 NA
ATOM     14  H   UNL     1      10.083  14.481  18.040  0.00  0.00    +0.000 HD
BRANCH   7  18
ATOM     15  C   UNL     1       2.586  14.317  18.771  0.00  0.00    +0.000 A 
ATOM     16  C   UNL     1       2.833  14.209  20.136  0.00  0.00    +0.000 A 
ATOM     17  C   UNL     1       4.062  14.613  20.659  0.00  0.00    +0.000 A 
ATOM     18  C   UNL     1       5.073  15.121  19.820  0.00  0.00    +0.000 A 
ATOM     19  C   UNL     1       4.818  15.210  18.449  0.00  0.00    +0.000 A 
ATOM     20  C   UNL     1       3.582  14.810  17.926  0.00  0.00    +0.000 A 
BRANCH  15  22
ATOM     21  C   UNL     1       0.340  13.897  19.356  0.00  0.00    +0.000 C 
ATOM     22  O   UNL     1       1.358  13.873  18.363  0.00  0.00    +0.000 OA
ENDBRANCH  15  22
ENDBRANCH   7  18
ENDBRANCH   1  12
BRANCH   4  23
ATOM     23  C   UNL     1       8.634   8.385  18.727  0.00  0.00    +0.000 C 
BRANCH  23  24
ATOM     24  C   UNL     1       7.675   7.837  17.655  0.00  0.00    +0.000 C 
BRANCH  24  25
ATOM     25  N   UNL     1       7.496   6.396  17.802  0.00  0.00    +0.000 N 
ATOM     26  C   UNL     1       6.272   5.849  18.003  0.00  0.00    +0.000 A 
ATOM     27  N   UNL     1       6.155   4.743  18.696  0.00  0.00    +0.000 NA
ATOM     28  C   UNL     1       4.850   4.288  18.687  0.00  0.00    +0.000 A 
ATOM     29  C   UNL     1       4.385   3.106  19.299  0.00  0.00    +0.000 A 
ATOM     30  C   UNL     1       3.045   2.732  19.172  0.00  0.00    +0.000 A 
ATOM     31  C   UNL     1       2.161   3.527  18.450  0.00  0.00    +0.000 A 
ATOM     32  C   UNL     1       2.589   4.722  17.856  0.00  0.00    +0.000 A 
ATOM     33  C   UNL     1       3.943   5.083  17.987  0.00  0.00    +0.000 A 
ATOM     34  S   UNL     1       4.783   6.459  17.378  0.00  0.00    +0.000 S 
ATOM     35  H   UNL     1       8.206   5.950  18.371  0.00  0.00    +0.000 HD
ENDBRANCH  24  25
ENDBRANCH  23  24
ENDBRANCH   4  23
TORSDOF 6
ENDMDL
