MODEL 1
REMARK VINA RESULT:      -7.8      0.000      0.000
REMARK  Name = 
REMARK  6 active torsions:
REMARK  status: ('A' for Active; 'I' for Inactive)
REMARK    1  A    between atoms: C_1  and  O_2
REMARK    2  A    between atoms: O_2  and  C_3
REMARK    3  A    between atoms: C_8  and  C_9
REMARK    4  A    between atoms: N_11  and  N_12
REMARK    5  A    between atoms: C_17  and  C_18
REMARK    6  A    between atoms: C_21  and  C_22
REMARK                            x       y       z     vdW  Elec       q    Type
REMARK                         _______ _______ _______ _____ _____    ______ ____
ROOT
ATOM      1  C   UNL     1       4.508   3.578  17.294  0.00  0.00    +0.000 C 
ATOM      2  O   UNL     1       3.695   2.701  17.015  0.00  0.00    +0.000 OA
ATOM      3  N   UNL     1       4.490   4.267  18.491  0.00  0.00    +0.000 N 
ATOM      4  H   UNL     1       5.088   5.068  18.664  0.00  0.00    +0.000 HD
ENDROOT
BRANCH   1  10
ATOM      5  C   UNL     1       5.942   4.069  13.863  0.00  0.00    +0.000 A 
ATOM      6  C   UNL     1       7.105   4.796  14.089  0.00  0.00    +0.000 A 
ATOM      7  C   UNL     1       7.481   5.116  15.398  0.00  0.00    +0.000 A 
ATOM      8  C   UNL     1       6.690   4.729  16.490  0.00  0.00    +0.000 A 
ATOM      9 BR   UNL     1       7.367   5.197  18.205  0.00  0.00    +0.000 Br
ATOM     10  C   UNL     1       5.503   4.016  16.270  0.00  0.00    +0.000 A 
ATOM     11  C   UNL     1       5.166   3.673  14.946  0.00  0.00    +0.000 A 
BRANCH   5  13
ATOM     12  C   UNL     1       6.253   2.804  11.871  0.00  0.00    +0.000 C 
ATOM     13  O   UNL     1       5.450   3.677  12.653  0.00  0.00    +0.000 OA
ENDBRANCH   5  13
ENDBRANCH   1  10
BRANCH   3  14
ATOM     14  N   UNL     1       3.579   3.911  19.500  0.00  0.00    +0.000 N 
ATOM     15  C   UNL     1       3.858   2.897  20.406  0.00  0.00    +0.000 C 
ATOM     16  O   UNL     1       4.962   2.407  20.625  0.00  0.00    +0.000 OA
ATOM     17  C   UNL     1       2.602   2.449  21.116  0.00  0.00    +0.000 C 
ATOM     18  S   UNL     1       1.322   3.689  20.779  0.00  0.00    +0.000 S 
ATOM     19  C   UNL     1       2.222   4.392  19.375  0.00  0.00    +0.000 C 
BRANCH  19  20
ATOM     20  C   UNL     1       2.131   5.908  19.330  0.00  0.00    +0.000 A 
ATOM     21  C   UNL     1       2.367   6.634  18.148  0.00  0.00    +0.000 A 
ATOM     22  C   UNL     1       2.152   8.014  18.099  0.00  0.00    +0.000 A 
ATOM     23  C   UNL     1       1.720   8.703  19.236  0.00  0.00    +0.000 A 
ATOM     24  C   UNL     1       1.439  10.175  19.183  0.00  0.00    +0.000 C 
ATOM     25  C   UNL     1       1.570   8.001  20.437  0.00  0.00    +0.000 A 
ATOM     26  C   UNL     1       1.772   6.620  20.485  0.00  0.00    +0.000 A 
ENDBRANCH  19  20
ENDBRANCH   3  14
TORSDOF 4
ENDMDL
MODEL 2
REMARK VINA RESULT:      -7.8      1.045      1.110
REMARK  Name = 
REMARK  6 active torsions:
REMARK  status: ('A' for Active; 'I' for Inactive)
REMARK    1  A    between atoms: C_1  and  O_2
REMARK    2  A    between atoms: O_2  and  C_3
REMARK    3  A    between atoms: C_8  and  C_9
REMARK    4  A    between atoms: N_11  and  N_12
REMARK    5  A    between atoms: C_17  and  C_18
REMARK    6  A    between atoms: C_21  and  C_22
REMARK                            x       y       z     vdW  Elec       q    Type
REMARK                         _______ _______ _______ _____ _____    ______ ____
ROOT
ATOM      1  C   UNL     1       5.229   4.673  18.239  0.00  0.00    +0.000 C 
ATOM      2  O   UNL     1       5.592   5.270  19.249  0.00  0.00    +0.000 OA
ATOM      3  N   UNL     1       4.211   3.741  18.243  0.00  0.00    +0.000 N 
ATOM      4  H   UNL     1       3.999   3.168  17.433  0.00  0.00    +0.000 HD
ENDROOT
BRANCH   1  10
ATOM      5  C   UNL     1       6.115   4.094  14.640  0.00  0.00    +0.000 A 
ATOM      6  C   UNL     1       7.102   5.038  14.385  0.00  0.00    +0.000 A 
ATOM      7  C   UNL     1       7.543   5.878  15.413  0.00  0.00    +0.000 A 
ATOM      8  C   UNL     1       6.989   5.796  16.699  0.00  0.00    +0.000 A 
ATOM      9 BR   UNL     1       7.735   6.972  17.994  0.00  0.00    +0.000 Br
ATOM     10  C   UNL     1       5.977   4.862  16.961  0.00  0.00    +0.000 A 
ATOM     11  C   UNL     1       5.577   4.002  15.919  0.00  0.00    +0.000 A 
BRANCH   5  13
ATOM     12  C   UNL     1       5.995   3.320  12.394  0.00  0.00    +0.000 C 
ATOM     13  O   UNL     1       5.588   3.205  13.750  0.00  0.00    +0.000 OA
ENDBRANCH   5  13
ENDBRANCH   1  10
BRANCH   3  14
ATOM     14  N   UNL     1       3.466   3.508  19.411  0.00  0.00    +0.000 N 
ATOM     15  C   UNL     1       3.846   2.546  20.336  0.00  0.00    +0.000 C 
ATOM     16  O   UNL     1       4.948   2.009  20.408  0.00  0.00    +0.000 OA
ATOM     17  C   UNL     1       2.708   2.220  21.274  0.00  0.00    +0.000 C 
ATOM     18  S   UNL     1       1.448   3.505  21.055  0.00  0.00    +0.000 S 
ATOM     19  C   UNL     1       2.131   4.057  19.473  0.00  0.00    +0.000 C 
BRANCH  19  20
ATOM     20  C   UNL     1       2.102   5.569  19.326  0.00  0.00    +0.000 A 
ATOM     21  C   UNL     1       2.252   6.199  18.077  0.00  0.00    +0.000 A 
ATOM     22  C   UNL     1       2.095   7.582  17.948  0.00  0.00    +0.000 A 
ATOM     23  C   UNL     1       1.808   8.368  19.067  0.00  0.00    +0.000 A 
ATOM     24  C   UNL     1       1.587   9.846  18.934  0.00  0.00    +0.000 C 
ATOM     25  C   UNL     1       1.745   7.759  20.325  0.00  0.00    +0.000 A 
ATOM     26  C   UNL     1       1.890   6.376  20.455  0.00  0.00    +0.000 A 
ENDBRANCH  19  20
ENDBRANCH   3  14
TORSDOF 4
ENDMDL
MODEL 3
REMARK VINA RESULT:      -7.4      3.266      7.126
REMARK  Name = 
REMARK  6 active torsions:
REMARK  status: ('A' for Active; 'I' for Inactive)
REMARK    1  A    between atoms: C_1  and  O_2
REMARK    2  A    between atoms: O_2  and  C_3
REMARK    3  A    between atoms: C_8  and  C_9
REMARK    4  A    between atoms: N_11  and  N_12
REMARK    5  A    between atoms: C_17  and  C_18
REMARK    6  A    between atoms: C_21  and  C_22
REMARK                            x       y       z     vdW  Elec       q    Type
REMARK                         _______ _______ _______ _____ _____    ______ ____
ROOT
ATOM      1  C   UNL     1       1.960   6.384  20.160  0.00  0.00    +0.000 C 
ATOM      2  O   UNL     1       2.147   5.712  21.171  0.00  0.00    +0.000 OA
ATOM      3  N   UNL     1       2.289   5.943  18.893  0.00  0.00    +0.000 N 
ATOM      4  H   UNL     1       2.242   6.548  18.080  0.00  0.00    +0.000 HD
ENDROOT
BRANCH   1  10
ATOM      5  C   UNL     1       0.331   9.331  21.813  0.00  0.00    +0.000 A 
ATOM      6  C   UNL     1       0.493  10.360  20.892  0.00  0.00    +0.000 A 
ATOM      7  C   UNL     1       1.115  10.103  19.665  0.00  0.00    +0.000 A 
ATOM      8  C   UNL     1       1.596   8.823  19.355  0.00  0.00    +0.000 A 
ATOM      9 BR   UNL     1       2.367   8.629  17.627  0.00  0.00    +0.000 Br
ATOM     10  C   UNL     1       1.458   7.785  20.286  0.00  0.00    +0.000 A 
ATOM     11  C   UNL     1       0.795   8.059  21.499  0.00  0.00    +0.000 A 
BRANCH   5  13
ATOM     12  C   UNL     1      -1.140  10.511  23.263  0.00  0.00    +0.000 C 
ATOM     13  O   UNL     1      -0.256   9.423  23.040  0.00  0.00    +0.000 OA
ENDBRANCH   5  13
ENDBRANCH   1  10
BRANCH   3  14
ATOM     14  N   UNL     1       2.770   4.636  18.700  0.00  0.00    +0.000 N 
ATOM     15  C   UNL     1       1.933   3.607  18.294  0.00  0.00    +0.000 C 
ATOM     16  O   UNL     1       0.814   3.735  17.804  0.00  0.00    +0.000 OA
ATOM     17  C   UNL     1       2.577   2.262  18.534  0.00  0.00    +0.000 C 
ATOM     18  S   UNL     1       4.331   2.562  18.884  0.00  0.00    +0.000 S 
ATOM     19  C   UNL     1       4.070   4.317  19.241  0.00  0.00    +0.000 C 
BRANCH  19  20
ATOM     20  C   UNL     1       5.179   5.191  18.682  0.00  0.00    +0.000 A 
ATOM     21  C   UNL     1       5.006   5.958  17.514  0.00  0.00    +0.000 A 
ATOM     22  C   UNL     1       5.993   6.851  17.090  0.00  0.00    +0.000 A 
ATOM     23  C   UNL     1       7.185   6.982  17.808  0.00  0.00    +0.000 A 
ATOM     24  C   UNL     1       8.231   7.973  17.392  0.00  0.00    +0.000 C 
ATOM     25  C   UNL     1       7.400   6.158  18.918  0.00  0.00    +0.000 A 
ATOM     26  C   UNL     1       6.410   5.273  19.351  0.00  0.00    +0.000 A 
ENDBRANCH  19  20
ENDBRANCH   3  14
TORSDOF 4
ENDMDL
MODEL 4
REMARK VINA RESULT:      -7.2      2.858      6.934
REMARK  Name = 
REMARK  6 active torsions:
REMARK  status: ('A' for Active; 'I' for Inactive)
REMARK    1  A    between atoms: C_1  and  O_2
REMARK    2  A    between atoms: O_2  and  C_3
REMARK    3  A    between atoms: C_8  and  C_9
REMARK    4  A    between atoms: N_11  and  N_12
REMARK    5  A    between atoms: C_17  and  C_18
REMARK    6  A    between atoms: C_21  and  C_22
REMARK                            x       y       z     vdW  Elec       q    Type
REMARK                         _______ _______ _______ _____ _____    ______ ____
ROOT
ATOM      1  C   UNL     1       2.042   6.439  20.185  0.00  0.00    +0.000 C 
ATOM      2  O   UNL     1       2.195   6.129  21.363  0.00  0.00    +0.000 OA
ATOM      3  N   UNL     1       2.322   5.581  19.140  0.00  0.00    +0.000 N 
ATOM      4  H   UNL     1       2.306   5.884  18.172  0.00  0.00    +0.000 HD
ENDROOT
BRANCH   1  10
ATOM      5  C   UNL     1       0.364   9.765  20.632  0.00  0.00    +0.000 A 
ATOM      6  C   UNL     1       0.788  10.501  19.531  0.00  0.00    +0.000 A 
ATOM      7  C   UNL     1       1.616   9.906  18.573  0.00  0.00    +0.000 A 
ATOM      8  C   UNL     1       2.043   8.578  18.715  0.00  0.00    +0.000 A 
ATOM      9 BR   UNL     1       3.121   7.903  17.301  0.00  0.00    +0.000 Br
ATOM     10  C   UNL     1       1.640   7.834  19.833  0.00  0.00    +0.000 A 
ATOM     11  C   UNL     1       0.776   8.444  20.764  0.00  0.00    +0.000 A 
BRANCH   5  13
ATOM     12  C   UNL     1      -0.268   9.610  22.920  0.00  0.00    +0.000 C 
ATOM     13  O   UNL     1      -0.444  10.200  21.640  0.00  0.00    +0.000 OA
ENDBRANCH   5  13
ENDBRANCH   1  10
BRANCH   3  14
ATOM     14  N   UNL     1       2.707   4.254  19.396  0.00  0.00    +0.000 N 
ATOM     15  C   UNL     1       1.802   3.312  19.863  0.00  0.00    +0.000 C 
ATOM     16  O   UNL     1       0.579   3.413  19.843  0.00  0.00    +0.000 OA
ATOM     17  C   UNL     1       2.520   2.106  20.422  0.00  0.00    +0.000 C 
ATOM     18  S   UNL     1       4.250   2.217  19.889  0.00  0.00    +0.000 S 
ATOM     19  C   UNL     1       4.122   3.974  19.475  0.00  0.00    +0.000 C 
BRANCH  19  20
ATOM     20  C   UNL     1       4.870   4.322  18.199  0.00  0.00    +0.000 A 
ATOM     21  C   UNL     1       6.152   4.902  18.222  0.00  0.00    +0.000 A 
ATOM     22  C   UNL     1       6.873   5.097  17.041  0.00  0.00    +0.000 A 
ATOM     23  C   UNL     1       6.320   4.738  15.808  0.00  0.00    +0.000 A 
ATOM     24  C   UNL     1       7.102   4.895  14.538  0.00  0.00    +0.000 C 
ATOM     25  C   UNL     1       5.011   4.244  15.771  0.00  0.00    +0.000 A 
ATOM     26  C   UNL     1       4.294   4.038  16.952  0.00  0.00    +0.000 A 
ENDBRANCH  19  20
ENDBRANCH   3  14
TORSDOF 4
ENDMDL
MODEL 5
REMARK VINA RESULT:      -7.2      2.809      6.720
REMARK  Name = 
REMARK  6 active torsions:
REMARK  status: ('A' for Active; 'I' for Inactive)
REMARK    1  A    between atoms: C_1  and  O_2
REMARK    2  A    between atoms: O_2  and  C_3
REMARK    3  A    between atoms: C_8  and  C_9
REMARK    4  A    between atoms: N_11  and  N_12
REMARK    5  A    between atoms: C_17  and  C_18
REMARK    6  A    between atoms: C_21  and  C_22
REMARK                            x       y       z     vdW  Elec       q    Type
REMARK                         _______ _______ _______ _____ _____    ______ ____
ROOT
ATOM      1  C   UNL     1       2.165   6.600  19.906  0.00  0.00    +0.000 C 
ATOM      2  O   UNL     1       2.207   6.418  21.120  0.00  0.00    +0.000 OA
ATOM      3  N   UNL     1       2.489   5.621  18.988  0.00  0.00    +0.000 N 
ATOM      4  H   UNL     1       2.567   5.814  17.996  0.00  0.00    +0.000 HD
ENDROOT
BRANCH   1  10
ATOM      5  C   UNL     1       0.557   9.988  19.806  0.00  0.00    +0.000 A 
ATOM      6  C   UNL     1       1.145  10.602  18.706  0.00  0.00    +0.000 A 
ATOM      7  C   UNL     1       2.069   9.897  17.928  0.00  0.00    +0.000 A 
ATOM      8  C   UNL     1       2.429   8.581  18.252  0.00  0.00    +0.000 A 
ATOM      9 BR   UNL     1       3.658   7.747  17.064  0.00  0.00    +0.000 Br
ATOM     10  C   UNL     1       1.860   7.961  19.373  0.00  0.00    +0.000 A 
ATOM     11  C   UNL     1       0.904   8.678  20.118  0.00  0.00    +0.000 A 
BRANCH   5  13
ATOM     12  C   UNL     1      -1.102  11.651  20.178  0.00  0.00    +0.000 C 
ATOM     13  O   UNL     1      -0.359  10.538  20.653  0.00  0.00    +0.000 OA
ENDBRANCH   5  13
ENDBRANCH   1  10
BRANCH   3  14
ATOM     14  N   UNL     1       2.790   4.317  19.419  0.00  0.00    +0.000 N 
ATOM     15  C   UNL     1       1.826   3.501  19.994  0.00  0.00    +0.000 C 
ATOM     16  O   UNL     1       0.612   3.674  19.947  0.00  0.00    +0.000 OA
ATOM     17  C   UNL     1       2.465   2.336  20.713  0.00  0.00    +0.000 C 
ATOM     18  S   UNL     1       4.200   2.269  20.189  0.00  0.00    +0.000 S 
ATOM     19  C   UNL     1       4.184   3.962  19.549  0.00  0.00    +0.000 C 
BRANCH  19  20
ATOM     20  C   UNL     1       4.957   4.095  18.248  0.00  0.00    +0.000 A 
ATOM     21  C   UNL     1       4.404   3.712  17.011  0.00  0.00    +0.000 A 
ATOM     22  C   UNL     1       5.082   3.961  15.815  0.00  0.00    +0.000 A 
ATOM     23  C   UNL     1       6.337   4.576  15.828  0.00  0.00    +0.000 A 
ATOM     24  C   UNL     1       7.052   4.894  14.549  0.00  0.00    +0.000 C 
ATOM     25  C   UNL     1       6.930   4.878  17.058  0.00  0.00    +0.000 A 
ATOM     26  C   UNL     1       6.249   4.641  18.255  0.00  0.00    +0.000 A 
ENDBRANCH  19  20
ENDBRANCH   3  14
TORSDOF 4
ENDMDL
MODEL 6
REMARK VINA RESULT:      -7.1      3.465      7.020
REMARK  Name = 
REMARK  6 active torsions:
REMARK  status: ('A' for Active; 'I' for Inactive)
REMARK    1  A    between atoms: C_1  and  O_2
REMARK    2  A    between atoms: O_2  and  C_3
REMARK    3  A    between atoms: C_8  and  C_9
REMARK    4  A    between atoms: N_11  and  N_12
REMARK    5  A    between atoms: C_17  and  C_18
REMARK    6  A    between atoms: C_21  and  C_22
REMARK                            x       y       z     vdW  Elec       q    Type
REMARK                         _______ _______ _______ _____ _____    ______ ____
ROOT
ATOM      1  C   UNL     1       2.758   8.146  17.915  0.00  0.00    +0.000 C 
ATOM      2  O   UNL     1       2.633   8.186  16.694  0.00  0.00    +0.000 OA
ATOM      3  N   UNL     1       3.496   7.174  18.563  0.00  0.00    +0.000 N 
ATOM      4  H   UNL     1       3.496   7.079  19.573  0.00  0.00    +0.000 HD
ENDROOT
BRANCH   1  10
ATOM      5  C   UNL     1       1.234  11.433  18.888  0.00  0.00    +0.000 A 
ATOM      6  C   UNL     1       0.562  11.150  20.072  0.00  0.00    +0.000 A 
ATOM      7  C   UNL     1       0.624   9.862  20.616  0.00  0.00    +0.000 A 
ATOM      8  C   UNL     1       1.342   8.843  19.974  0.00  0.00    +0.000 A 
ATOM      9 BR   UNL     1       1.370   7.165  20.871  0.00  0.00    +0.000 Br
ATOM     10  C   UNL     1       2.003   9.112  18.768  0.00  0.00    +0.000 A 
ATOM     11  C   UNL     1       1.957  10.425  18.260  0.00  0.00    +0.000 A 
BRANCH   5  13
ATOM     12  C   UNL     1       2.508  13.333  18.236  0.00  0.00    +0.000 C 
ATOM     13  O   UNL     1       1.273  12.632  18.241  0.00  0.00    +0.000 OA
ENDBRANCH   5  13
ENDBRANCH   1  10
BRANCH   3  14
ATOM     14  N   UNL     1       4.229   6.231  17.824  0.00  0.00    +0.000 N 
ATOM     15  C   UNL     1       5.457   6.545  17.260  0.00  0.00    +0.000 C 
ATOM     16  O   UNL     1       6.157   7.513  17.545  0.00  0.00    +0.000 OA
ATOM     17  C   UNL     1       5.848   5.526  16.216  0.00  0.00    +0.000 C 
ATOM     18  S   UNL     1       4.742   4.103  16.415  0.00  0.00    +0.000 S 
ATOM     19  C   UNL     1       3.538   5.039  17.390  0.00  0.00    +0.000 C 
BRANCH  19  20
ATOM     20  C   UNL     1       2.971   4.227  18.542  0.00  0.00    +0.000 A 
ATOM     21  C   UNL     1       3.799   3.621  19.504  0.00  0.00    +0.000 A 
ATOM     22  C   UNL     1       3.253   2.988  20.624  0.00  0.00    +0.000 A 
ATOM     23  C   UNL     1       1.867   2.925  20.795  0.00  0.00    +0.000 A 
ATOM     24  C   UNL     1       1.269   2.293  22.017  0.00  0.00    +0.000 C 
ATOM     25  C   UNL     1       1.037   3.447  19.797  0.00  0.00    +0.000 A 
ATOM     26  C   UNL     1       1.581   4.091  18.683  0.00  0.00    +0.000 A 
ENDBRANCH  19  20
ENDBRANCH   3  14
TORSDOF 4
ENDMDL
MODEL 7
REMARK VINA RESULT:      -7.1      5.208      7.764
REMARK  Name = 
REMARK  6 active torsions:
REMARK  status: ('A' for Active; 'I' for Inactive)
REMARK    1  A    between atoms: C_1  and  O_2
REMARK    2  A    between atoms: O_2  and  C_3
REMARK    3  A    between atoms: C_8  and  C_9
REMARK    4  A    between atoms: N_11  and  N_12
REMARK    5  A    between atoms: C_17  and  C_18
REMARK    6  A    between atoms: C_21  and  C_22
REMARK                            x       y       z     vdW  Elec       q    Type
REMARK                         _______ _______ _______ _____ _____    ______ ____
ROOT
ATOM      1  C   UNL     1       1.186   9.202  21.100  0.00  0.00    +0.000 C 
ATOM      2  O   UNL     1       1.840   9.567  22.073  0.00  0.00    +0.000 OA
ATOM      3  N   UNL     1      -0.023   9.772  20.751  0.00  0.00    +0.000 N 
ATOM      4  H   UNL     1      -0.612   9.387  20.020  0.00  0.00    +0.000 HD
ENDROOT
BRANCH   1  10
ATOM      5  C   UNL     1       1.961   5.598  20.409  0.00  0.00    +0.000 A 
ATOM      6  C   UNL     1       2.325   5.587  19.067  0.00  0.00    +0.000 A 
ATOM      7  C   UNL     1       2.368   6.787  18.349  0.00  0.00    +0.000 A 
ATOM      8  C   UNL     1       2.029   8.004  18.959  0.00  0.00    +0.000 A 
ATOM      9 BR   UNL     1       2.189   9.549  17.860  0.00  0.00    +0.000 Br
ATOM     10  C   UNL     1       1.639   8.022  20.305  0.00  0.00    +0.000 A 
ATOM     11  C   UNL     1       1.640   6.806  21.017  0.00  0.00    +0.000 A 
BRANCH   5  13
ATOM     12  C   UNL     1       1.267   3.344  20.725  0.00  0.00    +0.000 C 
ATOM     13  O   UNL     1       1.880   4.518  21.238  0.00  0.00    +0.000 OA
ENDBRANCH   5  13
ENDBRANCH   1  10
BRANCH   3  14
ATOM     14  N   UNL     1      -0.513  10.884  21.457  0.00  0.00    +0.000 N 
ATOM     15  C   UNL     1      -1.070  10.754  22.722  0.00  0.00    +0.000 C 
ATOM     16  O   UNL     1      -0.959   9.783  23.464  0.00  0.00    +0.000 OA
ATOM     17  C   UNL     1      -1.858  11.988  23.092  0.00  0.00    +0.000 C 
ATOM     18  S   UNL     1      -1.422  13.282  21.900  0.00  0.00    +0.000 S 
ATOM     19  C   UNL     1      -0.722  12.106  20.716  0.00  0.00    +0.000 C 
BRANCH  19  20
ATOM     20  C   UNL     1       0.545  12.629  20.061  0.00  0.00    +0.000 A 
ATOM     21  C   UNL     1       0.652  12.786  18.667  0.00  0.00    +0.000 A 
ATOM     22  C   UNL     1       1.778  13.387  18.097  0.00  0.00    +0.000 A 
ATOM     23  C   UNL     1       2.831  13.824  18.905  0.00  0.00    +0.000 A 
ATOM     24  C   UNL     1       4.022  14.516  18.312  0.00  0.00    +0.000 C 
ATOM     25  C   UNL     1       2.770  13.590  20.283  0.00  0.00    +0.000 A 
ATOM     26  C   UNL     1       1.640  13.000  20.856  0.00  0.00    +0.000 A 
ENDBRANCH  19  20
ENDBRANCH   3  14
TORSDOF 4
ENDMDL
MODEL 8
REMARK VINA RESULT:      -7.0      5.206      7.821
REMARK  Name = 
REMARK  6 active torsions:
REMARK  status: ('A' for Active; 'I' for Inactive)
REMARK    1  A    between atoms: C_1  and  O_2
REMARK    2  A    between atoms: O_2  and  C_3
REMARK    3  A    between atoms: C_8  and  C_9
REMARK    4  A    between atoms: N_11  and  N_12
REMARK    5  A    between atoms: C_17  and  C_18
REMARK    6  A    between atoms: C_21  and  C_22
REMARK                            x       y       z     vdW  Elec       q    Type
REMARK                         _______ _______ _______ _____ _____    ______ ____
ROOT
ATOM      1  C   UNL     1       1.123   9.292  21.116  0.00  0.00    +0.000 C 
ATOM      2  O   UNL     1       1.750   9.621  22.120  0.00  0.00    +0.000 OA
ATOM      3  N   UNL     1      -0.103   9.835  20.785  0.00  0.00    +0.000 N 
ATOM      4  H   UNL     1      -0.667   9.474  20.023  0.00  0.00    +0.000 HD
ENDROOT
BRANCH   1  10
ATOM      5  C   UNL     1       2.090   5.777  20.231  0.00  0.00    +0.000 A 
ATOM      6  C   UNL     1       2.440   5.857  18.889  0.00  0.00    +0.000 A 
ATOM      7  C   UNL     1       2.409   7.094  18.234  0.00  0.00    +0.000 A 
ATOM      8  C   UNL     1       2.010   8.256  18.910  0.00  0.00    +0.000 A 
ATOM      9 BR   UNL     1       2.073   9.862  17.892  0.00  0.00    +0.000 Br
ATOM     10  C   UNL     1       1.632   8.182  20.257  0.00  0.00    +0.000 A 
ATOM     11  C   UNL     1       1.708   6.933  20.904  0.00  0.00    +0.000 A 
BRANCH   5  13
ATOM     12  C   UNL     1       1.143   3.638  20.663  0.00  0.00    +0.000 C 
ATOM     13  O   UNL     1       2.076   4.654  21.004  0.00  0.00    +0.000 OA
ENDBRANCH   5  13
ENDBRANCH   1  10
BRANCH   3  14
ATOM     14  N   UNL     1      -0.646  10.881  21.550  0.00  0.00    +0.000 N 
ATOM     15  C   UNL     1      -1.162  10.661  22.819  0.00  0.00    +0.000 C 
ATOM     16  O   UNL     1      -0.971   9.668  23.515  0.00  0.00    +0.000 OA
ATOM     17  C   UNL     1      -2.019  11.824  23.261  0.00  0.00    +0.000 C 
ATOM     18  S   UNL     1      -1.695  13.194  22.119  0.00  0.00    +0.000 S 
ATOM     19  C   UNL     1      -0.951  12.118  20.869  0.00  0.00    +0.000 C 
BRANCH  19  20
ATOM     20  C   UNL     1       0.263  12.750  20.210  0.00  0.00    +0.000 A 
ATOM     21  C   UNL     1       1.437  13.036  20.931  0.00  0.00    +0.000 A 
ATOM     22  C   UNL     1       2.584  13.498  20.280  0.00  0.00    +0.000 A 
ATOM     23  C   UNL     1       2.576  13.709  18.898  0.00  0.00    +0.000 A 
ATOM     24  C   UNL     1       3.814  14.156  18.180  0.00  0.00    +0.000 C 
ATOM     25  C   UNL     1       1.386  13.512  18.190  0.00  0.00    +0.000 A 
ATOM     26  C   UNL     1       0.242  13.038  18.837  0.00  0.00    +0.000 A 
ENDBRANCH  19  20
ENDBRANCH   3  14
TORSDOF 4
ENDMDL
MODEL 9
REMARK VINA RESULT:      -6.9      4.893      7.401
REMARK  Name = 
REMARK  6 active torsions:
REMARK  status: ('A' for Active; 'I' for Inactive)
REMARK    1  A    between atoms: C_1  and  O_2
REMARK    2  A    between atoms: O_2  and  C_3
REMARK    3  A    between atoms: C_8  and  C_9
REMARK    4  A    between atoms: N_11  and  N_12
REMARK    5  A    between atoms: C_17  and  C_18
REMARK    6  A    between atoms: C_21  and  C_22
REMARK                            x       y       z     vdW  Elec       q    Type
REMARK                         _______ _______ _______ _____ _____    ______ ____
ROOT
ATOM      1  C   UNL     1       0.656   8.274  20.853  0.00  0.00    +0.000 C 
ATOM      2  O   UNL     1      -0.542   8.034  20.975  0.00  0.00    +0.000 OA
ATOM      3  N   UNL     1       1.205   9.514  21.117  0.00  0.00    +0.000 N 
ATOM      4  H   UNL     1       2.171   9.735  20.901  0.00  0.00    +0.000 HD
ENDROOT
BRANCH   1  10
ATOM      5  C   UNL     1       2.423   4.969  20.673  0.00  0.00    +0.000 A 
ATOM      6  C   UNL     1       3.108   5.024  19.464  0.00  0.00    +0.000 A 
ATOM      7  C   UNL     1       3.043   6.182  18.681  0.00  0.00    +0.000 A 
ATOM      8  C   UNL     1       2.280   7.285  19.087  0.00  0.00    +0.000 A 
ATOM      9 BR   UNL     1       2.339   8.797  17.935  0.00  0.00    +0.000 Br
ATOM     10  C   UNL     1       1.566   7.231  20.292  0.00  0.00    +0.000 A 
ATOM     11  C   UNL     1       1.678   6.069  21.082  0.00  0.00    +0.000 A 
BRANCH   5  13
ATOM     12  C   UNL     1       1.434   2.900  21.308  0.00  0.00    +0.000 C 
ATOM     13  O   UNL     1       2.393   3.921  21.545  0.00  0.00    +0.000 OA
ENDBRANCH   5  13
ENDBRANCH   1  10
BRANCH   3  14
ATOM     14  N   UNL     1       0.408  10.544  21.644  0.00  0.00    +0.000 N 
ATOM     15  C   UNL     1      -0.177  10.441  22.899  0.00  0.00    +0.000 C 
ATOM     16  O   UNL     1       0.128   9.636  23.774  0.00  0.00    +0.000 OA
ATOM     17  C   UNL     1      -1.272  11.467  23.068  0.00  0.00    +0.000 C 
ATOM     18  S   UNL     1      -1.101  12.663  21.717  0.00  0.00    +0.000 S 
ATOM     19  C   UNL     1      -0.056  11.563  20.731  0.00  0.00    +0.000 C 
BRANCH  19  20
ATOM     20  C   UNL     1       1.077  12.305  20.043  0.00  0.00    +0.000 A 
ATOM     21  C   UNL     1       1.272  12.242  18.651  0.00  0.00    +0.000 A 
ATOM     22  C   UNL     1       2.240  13.033  18.026  0.00  0.00    +0.000 A 
ATOM     23  C   UNL     1       3.051  13.886  18.780  0.00  0.00    +0.000 A 
ATOM     24  C   UNL     1       4.059  14.776  18.116  0.00  0.00    +0.000 C 
ATOM     25  C   UNL     1       2.923  13.887  20.173  0.00  0.00    +0.000 A 
ATOM     26  C   UNL     1       1.947  13.107  20.799  0.00  0.00    +0.000 A 
ENDBRANCH  19  20
ENDBRANCH   3  14
TORSDOF 4
ENDMDL
