MODEL 1
REMARK VINA RESULT:      -8.5      0.000      0.000
REMARK  Name = 
REMARK  5 active torsions:
REMARK  status: ('A' for Active; 'I' for Inactive)
REMARK    1  A    between atoms: C_2  and  C_3
REMARK    2  A    between atoms: C_3  and  N_4
REMARK    3  A    between atoms: N_7  and  C_8
REMARK    4  A    between atoms: C_8  and  C_9
REMARK    5  A    between atoms: N_25  and  C_26
REMARK                            x       y       z     vdW  Elec       q    Type
REMARK                         _______ _______ _______ _____ _____    ______ ____
ROOT
ATOM      1  N   UNL     1       3.618   5.972  17.859  0.00  0.00    +0.000 N 
ATOM      2  C   UNL     1       4.729   6.386  17.112  0.00  0.00    +0.000 A 
ATOM      3  O   UNL     1       4.576   7.170  16.173  0.00  0.00    +0.000 OA
ATOM      4  N   UNL     1       5.981   5.865  17.461  0.00  0.00    +0.000 N 
ATOM      5  C   UNL     1       6.199   4.827  18.384  0.00  0.00    +0.000 A 
ATOM      6  O   UNL     1       7.304   4.356  18.617  0.00  0.00    +0.000 OA
ATOM      7  C   UNL     1       4.985   4.398  19.016  0.00  0.00    +0.000 A 
ATOM      8  O   UNL     1       4.915   3.393  19.930  0.00  0.00    +0.000 OA
ATOM      9  C   UNL     1       3.595   3.297  20.294  0.00  0.00    +0.000 A 
ATOM     10  C   UNL     1       3.070   2.372  21.197  0.00  0.00    +0.000 A 
ATOM     11  C   UNL     1       1.693   2.431  21.433  0.00  0.00    +0.000 A 
ATOM     12  C   UNL     1       0.894   3.381  20.800  0.00  0.00    +0.000 A 
ATOM     13  C   UNL     1       1.453   4.301  19.902  0.00  0.00    +0.000 A 
ATOM     14  C   UNL     1       2.835   4.259  19.629  0.00  0.00    +0.000 A 
ATOM     15  C   UNL     1       3.755   4.947  18.789  0.00  0.00    +0.000 A 
ENDROOT
BRANCH   1  16
ATOM     16  C   UNL     1       2.339   6.623  17.598  0.00  0.00    +0.000 C 
BRANCH  16  18
ATOM     17  O   UNL     1       2.380   7.798  19.671  0.00  0.00    +0.000 OA
ATOM     18  C   UNL     1       2.111   7.851  18.472  0.00  0.00    +0.000 C 
ATOM     19  N   UNL     1       1.646   8.966  17.790  0.00  0.00    +0.000 N 
ATOM     20  H   UNL     1       1.314   8.828  16.838  0.00  0.00    +0.000 HD
BRANCH  19  21
ATOM     21  C   UNL     1       1.421  10.234  18.369  0.00  0.00    +0.000 A 
ATOM     22  C   UNL     1       0.325  10.507  19.190  0.00  0.00    +0.000 A 
ATOM     23  C   UNL     1       0.069  11.807  19.628  0.00  0.00    +0.000 A 
ATOM     24  C   UNL     1       0.933  12.840  19.286  0.00  0.00    +0.000 A 
ATOM     25  C   UNL     1       2.081  12.563  18.541  0.00  0.00    +0.000 A 
ATOM     26  C   UNL     1       2.329  11.261  18.092  0.00  0.00    +0.000 A 
ENDBRANCH  19  21
ENDBRANCH  16  18
ENDBRANCH   1  16
BRANCH   4  27
ATOM     27  C   UNL     1       7.150   6.417  16.782  0.00  0.00    +0.000 C 
BRANCH  27  28
ATOM     28  C   UNL     1       7.696   7.572  17.549  0.00  0.00    +0.000 A 
ATOM     29  C   UNL     1       8.472   7.672  18.686  0.00  0.00    +0.000 A 
ATOM     30  C   UNL     1       8.739   9.051  18.866  0.00  0.00    +0.000 A 
ATOM     31  C   UNL     1       8.062   9.707  17.866  0.00  0.00    +0.000 A 
ATOM     32  O   UNL     1       7.415   8.818  17.068  0.00  0.00    +0.000 OA
ENDBRANCH  27  28
ENDBRANCH   4  27
TORSDOF 5
ENDMDL
MODEL 2
REMARK VINA RESULT:      -8.3      1.306      1.639
REMARK  Name = 
REMARK  5 active torsions:
REMARK  status: ('A' for Active; 'I' for Inactive)
REMARK    1  A    between atoms: C_2  and  C_3
REMARK    2  A    between atoms: C_3  and  N_4
REMARK    3  A    between atoms: N_7  and  C_8
REMARK    4  A    between atoms: C_8  and  C_9
REMARK    5  A    between atoms: N_25  and  C_26
REMARK                            x       y       z     vdW  Elec       q    Type
REMARK                         _______ _______ _______ _____ _____    ______ ____
ROOT
ATOM      1  N   UNL     1       3.697   6.063  17.857  0.00  0.00    +0.000 N 
ATOM      2  C   UNL     1       4.822   6.473  17.130  0.00  0.00    +0.000 A 
ATOM      3  O   UNL     1       4.690   7.269  16.197  0.00  0.00    +0.000 OA
ATOM      4  N   UNL     1       6.064   5.935  17.489  0.00  0.00    +0.000 N 
ATOM      5  C   UNL     1       6.258   4.885  18.404  0.00  0.00    +0.000 A 
ATOM      6  O   UNL     1       7.355   4.400  18.647  0.00  0.00    +0.000 OA
ATOM      7  C   UNL     1       5.031   4.463  19.015  0.00  0.00    +0.000 A 
ATOM      8  O   UNL     1       4.939   3.449  19.918  0.00  0.00    +0.000 OA
ATOM      9  C   UNL     1       3.613   3.364  20.263  0.00  0.00    +0.000 A 
ATOM     10  C   UNL     1       3.066   2.435  21.150  0.00  0.00    +0.000 A 
ATOM     11  C   UNL     1       1.686   2.506  21.368  0.00  0.00    +0.000 A 
ATOM     12  C   UNL     1       0.906   3.472  20.735  0.00  0.00    +0.000 A 
ATOM     13  C   UNL     1       1.487   4.395  19.854  0.00  0.00    +0.000 A 
ATOM     14  C   UNL     1       2.871   4.341  19.598  0.00  0.00    +0.000 A 
ATOM     15  C   UNL     1       3.810   5.027  18.778  0.00  0.00    +0.000 A 
ENDROOT
BRANCH   1  16
ATOM     16  C   UNL     1       2.428   6.730  17.586  0.00  0.00    +0.000 C 
BRANCH  16  18
ATOM     17  O   UNL     1       2.689   9.032  18.149  0.00  0.00    +0.000 OA
ATOM     18  C   UNL     1       2.201   7.950  18.472  0.00  0.00    +0.000 C 
ATOM     19  N   UNL     1       1.394   7.719  19.576  0.00  0.00    +0.000 N 
ATOM     20  H   UNL     1       1.189   6.750  19.812  0.00  0.00    +0.000 HD
BRANCH  19  21
ATOM     21  C   UNL     1       0.989   8.703  20.505  0.00  0.00    +0.000 A 
ATOM     22  C   UNL     1       1.284   8.624  21.867  0.00  0.00    +0.000 A 
ATOM     23  C   UNL     1       0.748   9.546  22.767  0.00  0.00    +0.000 A 
ATOM     24  C   UNL     1      -0.052  10.584  22.306  0.00  0.00    +0.000 A 
ATOM     25  C   UNL     1      -0.280  10.726  20.936  0.00  0.00    +0.000 A 
ATOM     26  C   UNL     1       0.248   9.792  20.036  0.00  0.00    +0.000 A 
ENDBRANCH  19  21
ENDBRANCH  16  18
ENDBRANCH   1  16
BRANCH   4  27
ATOM     27  C   UNL     1       7.247   6.482  16.832  0.00  0.00    +0.000 C 
BRANCH  27  28
ATOM     28  C   UNL     1       7.771   7.647  17.597  0.00  0.00    +0.000 A 
ATOM     29  C   UNL     1       8.519   7.764  18.752  0.00  0.00    +0.000 A 
ATOM     30  C   UNL     1       8.780   9.145  18.921  0.00  0.00    +0.000 A 
ATOM     31  C   UNL     1       8.125   9.787  17.896  0.00  0.00    +0.000 A 
ATOM     32  O   UNL     1       7.501   8.886  17.094  0.00  0.00    +0.000 OA
ENDBRANCH  27  28
ENDBRANCH   4  27
TORSDOF 5
ENDMDL
MODEL 3
REMARK VINA RESULT:      -8.3      1.534      2.395
REMARK  Name = 
REMARK  5 active torsions:
REMARK  status: ('A' for Active; 'I' for Inactive)
REMARK    1  A    between atoms: C_2  and  C_3
REMARK    2  A    between atoms: C_3  and  N_4
REMARK    3  A    between atoms: N_7  and  C_8
REMARK    4  A    between atoms: C_8  and  C_9
REMARK    5  A    between atoms: N_25  and  C_26
REMARK                            x       y       z     vdW  Elec       q    Type
REMARK                         _______ _______ _______ _____ _____    ______ ____
ROOT
ATOM      1  N   UNL     1       3.599   5.789  17.688  0.00  0.00    +0.000 N 
ATOM      2  C   UNL     1       4.665   6.093  16.830  0.00  0.00    +0.000 A 
ATOM      3  O   UNL     1       4.479   6.841  15.867  0.00  0.00    +0.000 OA
ATOM      4  N   UNL     1       5.907   5.508  17.101  0.00  0.00    +0.000 N 
ATOM      5  C   UNL     1       6.139   4.502  18.056  0.00  0.00    +0.000 A 
ATOM      6  O   UNL     1       7.230   3.971  18.221  0.00  0.00    +0.000 OA
ATOM      7  C   UNL     1       4.960   4.185  18.808  0.00  0.00    +0.000 A 
ATOM      8  O   UNL     1       4.908   3.231  19.777  0.00  0.00    +0.000 OA
ATOM      9  C   UNL     1       3.621   3.240  20.254  0.00  0.00    +0.000 A 
ATOM     10  C   UNL     1       3.120   2.395  21.245  0.00  0.00    +0.000 A 
ATOM     11  C   UNL     1       1.774   2.556  21.591  0.00  0.00    +0.000 A 
ATOM     12  C   UNL     1       0.984   3.525  20.978  0.00  0.00    +0.000 A 
ATOM     13  C   UNL     1       1.519   4.363  19.989  0.00  0.00    +0.000 A 
ATOM     14  C   UNL     1       2.866   4.218  19.605  0.00  0.00    +0.000 A 
ATOM     15  C   UNL     1       3.751   4.803  18.656  0.00  0.00    +0.000 A 
ENDROOT
BRANCH   1  16
ATOM     16  C   UNL     1       2.344   6.510  17.500  0.00  0.00    +0.000 C 
BRANCH  16  18
ATOM     17  O   UNL     1       2.653   7.681  19.553  0.00  0.00    +0.000 OA
ATOM     18  C   UNL     1       2.225   7.734  18.401  0.00  0.00    +0.000 C 
ATOM     19  N   UNL     1       1.663   8.846  17.791  0.00  0.00    +0.000 N 
ATOM     20  H   UNL     1       1.208   8.708  16.891  0.00  0.00    +0.000 HD
BRANCH  19  21
ATOM     21  C   UNL     1       1.508  10.112  18.399  0.00  0.00    +0.000 A 
ATOM     22  C   UNL     1       0.546  10.366  19.378  0.00  0.00    +0.000 A 
ATOM     23  C   UNL     1       0.338  11.663  19.852  0.00  0.00    +0.000 A 
ATOM     24  C   UNL     1       1.120  12.710  19.383  0.00  0.00    +0.000 A 
ATOM     25  C   UNL     1       2.144  12.452  18.470  0.00  0.00    +0.000 A 
ATOM     26  C   UNL     1       2.344  11.154  17.986  0.00  0.00    +0.000 A 
ENDBRANCH  19  21
ENDBRANCH  16  18
ENDBRANCH   1  16
BRANCH   4  27
ATOM     27  C   UNL     1       7.045   5.949  16.299  0.00  0.00    +0.000 C 
BRANCH  27  28
ATOM     28  C   UNL     1       7.063   5.238  14.991  0.00  0.00    +0.000 A 
ATOM     29  C   UNL     1       6.312   4.206  14.463  0.00  0.00    +0.000 A 
ATOM     30  C   UNL     1       6.750   4.037  13.128  0.00  0.00    +0.000 A 
ATOM     31  C   UNL     1       7.778   4.931  12.945  0.00  0.00    +0.000 A 
ATOM     32  O   UNL     1       7.983   5.656  14.075  0.00  0.00    +0.000 OA
ENDBRANCH  27  28
ENDBRANCH   4  27
TORSDOF 5
ENDMDL
MODEL 4
REMARK VINA RESULT:      -8.0      1.977      2.847
REMARK  Name = 
REMARK  5 active torsions:
REMARK  status: ('A' for Active; 'I' for Inactive)
REMARK    1  A    between atoms: C_2  and  C_3
REMARK    2  A    between atoms: C_3  and  N_4
REMARK    3  A    between atoms: N_7  and  C_8
REMARK    4  A    between atoms: C_8  and  C_9
REMARK    5  A    between atoms: N_25  and  C_26
REMARK                            x       y       z     vdW  Elec       q    Type
REMARK                         _______ _______ _______ _____ _____    ______ ____
ROOT
ATOM      1  N   UNL     1       3.659   5.839  17.662  0.00  0.00    +0.000 N 
ATOM      2  C   UNL     1       4.726   6.132  16.803  0.00  0.00    +0.000 A 
ATOM      3  O   UNL     1       4.546   6.883  15.841  0.00  0.00    +0.000 OA
ATOM      4  N   UNL     1       5.963   5.533  17.070  0.00  0.00    +0.000 N 
ATOM      5  C   UNL     1       6.186   4.524  18.024  0.00  0.00    +0.000 A 
ATOM      6  O   UNL     1       7.271   3.980  18.185  0.00  0.00    +0.000 OA
ATOM      7  C   UNL     1       5.005   4.219  18.778  0.00  0.00    +0.000 A 
ATOM      8  O   UNL     1       4.945   3.265  19.746  0.00  0.00    +0.000 OA
ATOM      9  C   UNL     1       3.659   3.287  20.226  0.00  0.00    +0.000 A 
ATOM     10  C   UNL     1       3.151   2.447  21.218  0.00  0.00    +0.000 A 
ATOM     11  C   UNL     1       1.808   2.622  21.567  0.00  0.00    +0.000 A 
ATOM     12  C   UNL     1       1.027   3.601  20.957  0.00  0.00    +0.000 A 
ATOM     13  C   UNL     1       1.569   4.434  19.968  0.00  0.00    +0.000 A 
ATOM     14  C   UNL     1       2.914   4.274  19.580  0.00  0.00    +0.000 A 
ATOM     15  C   UNL     1       3.803   4.850  18.629  0.00  0.00    +0.000 A 
ENDROOT
BRANCH   1  16
ATOM     16  C   UNL     1       2.411   6.573  17.478  0.00  0.00    +0.000 C 
BRANCH  16  18
ATOM     17  O   UNL     1       2.982   8.796  18.124  0.00  0.00    +0.000 OA
ATOM     18  C   UNL     1       2.309   7.799  18.379  0.00  0.00    +0.000 C 
ATOM     19  N   UNL     1       1.395   7.678  19.416  0.00  0.00    +0.000 N 
ATOM     20  H   UNL     1       1.025   6.750  19.609  0.00  0.00    +0.000 HD
BRANCH  19  21
ATOM     21  C   UNL     1       1.078   8.698  20.340  0.00  0.00    +0.000 A 
ATOM     22  C   UNL     1       1.268   8.557  21.716  0.00  0.00    +0.000 A 
ATOM     23  C   UNL     1       0.815   9.536  22.602  0.00  0.00    +0.000 A 
ATOM     24  C   UNL     1       0.206  10.686  22.116  0.00  0.00    +0.000 A 
ATOM     25  C   UNL     1       0.091  10.879  20.739  0.00  0.00    +0.000 A 
ATOM     26  C   UNL     1       0.535   9.891  19.852  0.00  0.00    +0.000 A 
ENDBRANCH  19  21
ENDBRANCH  16  18
ENDBRANCH   1  16
BRANCH   4  27
ATOM     27  C   UNL     1       7.103   5.963  16.266  0.00  0.00    +0.000 C 
BRANCH  27  28
ATOM     28  C   UNL     1       7.112   5.248  14.959  0.00  0.00    +0.000 A 
ATOM     29  C   UNL     1       6.355   4.218  14.436  0.00  0.00    +0.000 A 
ATOM     30  C   UNL     1       6.787   4.045  13.099  0.00  0.00    +0.000 A 
ATOM     31  C   UNL     1       7.817   4.936  12.910  0.00  0.00    +0.000 A 
ATOM     32  O   UNL     1       8.030   5.662  14.037  0.00  0.00    +0.000 OA
ENDBRANCH  27  28
ENDBRANCH   4  27
TORSDOF 5
ENDMDL
MODEL 5
REMARK VINA RESULT:      -7.5      2.602      6.516
REMARK  Name = 
REMARK  5 active torsions:
REMARK  status: ('A' for Active; 'I' for Inactive)
REMARK    1  A    between atoms: C_2  and  C_3
REMARK    2  A    between atoms: C_3  and  N_4
REMARK    3  A    between atoms: N_7  and  C_8
REMARK    4  A    between atoms: C_8  and  C_9
REMARK    5  A    between atoms: N_25  and  C_26
REMARK                            x       y       z     vdW  Elec       q    Type
REMARK                         _______ _______ _______ _____ _____    ______ ____
ROOT
ATOM      1  N   UNL     1       6.456   5.152  17.649  0.00  0.00    +0.000 N 
ATOM      2  C   UNL     1       5.671   4.887  18.780  0.00  0.00    +0.000 A 
ATOM      3  O   UNL     1       6.134   5.088  19.905  0.00  0.00    +0.000 OA
ATOM      4  N   UNL     1       4.383   4.380  18.576  0.00  0.00    +0.000 N 
ATOM      5  C   UNL     1       3.868   3.946  17.341  0.00  0.00    +0.000 A 
ATOM      6  O   UNL     1       2.756   3.450  17.213  0.00  0.00    +0.000 OA
ATOM      7  C   UNL     1       4.790   4.160  16.263  0.00  0.00    +0.000 A 
ATOM      8  O   UNL     1       4.546   3.809  14.971  0.00  0.00    +0.000 OA
ATOM      9  C   UNL     1       5.657   4.183  14.257  0.00  0.00    +0.000 A 
ATOM     10  C   UNL     1       5.843   3.984  12.888  0.00  0.00    +0.000 A 
ATOM     11  C   UNL     1       7.051   4.434  12.344  0.00  0.00    +0.000 A 
ATOM     12  C   UNL     1       8.009   5.061  13.136  0.00  0.00    +0.000 A 
ATOM     13  C   UNL     1       7.789   5.252  14.507  0.00  0.00    +0.000 A 
ATOM     14  C   UNL     1       6.591   4.796  15.093  0.00  0.00    +0.000 A 
ATOM     15  C   UNL     1       6.015   4.750  16.393  0.00  0.00    +0.000 A 
ENDROOT
BRANCH   1  16
ATOM     16  C   UNL     1       7.738   5.819  17.848  0.00  0.00    +0.000 C 
BRANCH  16  18
ATOM     17  O   UNL     1       6.735   7.838  17.074  0.00  0.00    +0.000 OA
ATOM     18  C   UNL     1       7.638   7.336  17.741  0.00  0.00    +0.000 C 
ATOM     19  N   UNL     1       8.590   8.030  18.474  0.00  0.00    +0.000 N 
ATOM     20  H   UNL     1       9.372   7.498  18.849  0.00  0.00    +0.000 HD
BRANCH  19  21
ATOM     21  C   UNL     1       8.661   9.437  18.584  0.00  0.00    +0.000 A 
ATOM     22  C   UNL     1       8.182  10.297  17.594  0.00  0.00    +0.000 A 
ATOM     23  C   UNL     1       8.396  11.674  17.682  0.00  0.00    +0.000 A 
ATOM     24  C   UNL     1       9.053  12.207  18.784  0.00  0.00    +0.000 A 
ATOM     25  C   UNL     1       9.457  11.366  19.822  0.00  0.00    +0.000 A 
ATOM     26  C   UNL     1       9.253   9.984  19.727  0.00  0.00    +0.000 A 
ENDBRANCH  19  21
ENDBRANCH  16  18
ENDBRANCH   1  16
BRANCH   4  27
ATOM     27  C   UNL     1       3.519   4.253  19.746  0.00  0.00    +0.000 C 
BRANCH  27  28
ATOM     28  C   UNL     1       2.730   5.501  19.943  0.00  0.00    +0.000 A 
ATOM     29  C   UNL     1       1.748   5.869  20.841  0.00  0.00    +0.000 A 
ATOM     30  C   UNL     1       1.453   7.228  20.575  0.00  0.00    +0.000 A 
ATOM     31  C   UNL     1       2.227   7.584  19.496  0.00  0.00    +0.000 A 
ATOM     32  O   UNL     1       2.996   6.538  19.098  0.00  0.00    +0.000 OA
ENDBRANCH  27  28
ENDBRANCH   4  27
TORSDOF 5
ENDMDL
MODEL 6
REMARK VINA RESULT:      -7.3      2.859      5.200
REMARK  Name = 
REMARK  5 active torsions:
REMARK  status: ('A' for Active; 'I' for Inactive)
REMARK    1  A    between atoms: C_2  and  C_3
REMARK    2  A    between atoms: C_3  and  N_4
REMARK    3  A    between atoms: N_7  and  C_8
REMARK    4  A    between atoms: C_8  and  C_9
REMARK    5  A    between atoms: N_25  and  C_26
REMARK                            x       y       z     vdW  Elec       q    Type
REMARK                         _______ _______ _______ _____ _____    ______ ____
ROOT
ATOM      1  N   UNL     1       1.829   9.216  18.799  0.00  0.00    +0.000 N 
ATOM      2  C   UNL     1       2.376   8.163  18.054  0.00  0.00    +0.000 A 
ATOM      3  O   UNL     1       2.685   8.346  16.874  0.00  0.00    +0.000 OA
ATOM      4  N   UNL     1       2.531   6.925  18.689  0.00  0.00    +0.000 N 
ATOM      5  C   UNL     1       2.023   6.596  19.959  0.00  0.00    +0.000 A 
ATOM      6  O   UNL     1       2.125   5.482  20.455  0.00  0.00    +0.000 OA
ATOM      7  C   UNL     1       1.385   7.713  20.595  0.00  0.00    +0.000 A 
ATOM      8  O   UNL     1       0.792   7.656  21.818  0.00  0.00    +0.000 OA
ATOM      9  C   UNL     1       0.312   8.917  22.069  0.00  0.00    +0.000 A 
ATOM     10  C   UNL     1      -0.395   9.301  23.210  0.00  0.00    +0.000 A 
ATOM     11  C   UNL     1      -0.806  10.636  23.278  0.00  0.00    +0.000 A 
ATOM     12  C   UNL     1      -0.506  11.535  22.257  0.00  0.00    +0.000 A 
ATOM     13  C   UNL     1       0.211  11.120  21.127  0.00  0.00    +0.000 A 
ATOM     14  C   UNL     1       0.626   9.777  21.017  0.00  0.00    +0.000 A 
ATOM     15  C   UNL     1       1.303   8.968  20.062  0.00  0.00    +0.000 A 
ENDROOT
BRANCH   1  16
ATOM     16  C   UNL     1       1.804  10.542  18.191  0.00  0.00    +0.000 C 
BRANCH  16  18
ATOM     17  O   UNL     1       0.172  12.279  18.235  0.00  0.00    +0.000 OA
ATOM     18  C   UNL     1       0.390  11.088  18.021  0.00  0.00    +0.000 C 
ATOM     19  N   UNL     1      -0.538  10.156  17.580  0.00  0.00    +0.000 N 
ATOM     20  H   UNL     1      -0.263   9.177  17.596  0.00  0.00    +0.000 HD
BRANCH  19  21
ATOM     21  C   UNL     1      -1.891  10.436  17.287  0.00  0.00    +0.000 A 
ATOM     22  C   UNL     1      -2.438  10.277  16.013  0.00  0.00    +0.000 A 
ATOM     23  C   UNL     1      -3.741  10.695  15.739  0.00  0.00    +0.000 A 
ATOM     24  C   UNL     1      -4.526  11.235  16.749  0.00  0.00    +0.000 A 
ATOM     25  C   UNL     1      -4.021  11.317  18.048  0.00  0.00    +0.000 A 
ATOM     26  C   UNL     1      -2.709  10.909  18.318  0.00  0.00    +0.000 A 
ENDBRANCH  19  21
ENDBRANCH  16  18
ENDBRANCH   1  16
BRANCH   4  27
ATOM     27  C   UNL     1       3.241   5.881  17.957  0.00  0.00    +0.000 C 
BRANCH  27  28
ATOM     28  C   UNL     1       4.694   5.921  18.280  0.00  0.00    +0.000 A 
ATOM     29  C   UNL     1       5.463   5.329  19.263  0.00  0.00    +0.000 A 
ATOM     30  C   UNL     1       6.806   5.680  18.984  0.00  0.00    +0.000 A 
ATOM     31  C   UNL     1       6.766   6.510  17.888  0.00  0.00    +0.000 A 
ATOM     32  O   UNL     1       5.487   6.671  17.462  0.00  0.00    +0.000 OA
ENDBRANCH  27  28
ENDBRANCH   4  27
TORSDOF 5
ENDMDL
MODEL 7
REMARK VINA RESULT:      -7.2      5.440     11.062
REMARK  Name = 
REMARK  5 active torsions:
REMARK  status: ('A' for Active; 'I' for Inactive)
REMARK    1  A    between atoms: C_2  and  C_3
REMARK    2  A    between atoms: C_3  and  N_4
REMARK    3  A    between atoms: N_7  and  C_8
REMARK    4  A    between atoms: C_8  and  C_9
REMARK    5  A    between atoms: N_25  and  C_26
REMARK                            x       y       z     vdW  Elec       q    Type
REMARK                         _______ _______ _______ _____ _____    ______ ____
ROOT
ATOM      1  N   UNL     1      -3.100  12.187  18.770  0.00  0.00    +0.000 N 
ATOM      2  C   UNL     1      -4.434  11.944  18.418  0.00  0.00    +0.000 A 
ATOM      3  O   UNL     1      -4.704  11.555  17.279  0.00  0.00    +0.000 OA
ATOM      4  N   UNL     1      -5.418  12.177  19.386  0.00  0.00    +0.000 N 
ATOM      5  C   UNL     1      -5.201  12.802  20.628  0.00  0.00    +0.000 A 
ATOM      6  O   UNL     1      -6.099  13.044  21.423  0.00  0.00    +0.000 OA
ATOM      7  C   UNL     1      -3.818  13.110  20.848  0.00  0.00    +0.000 A 
ATOM      8  O   UNL     1      -3.343  13.735  21.959  0.00  0.00    +0.000 OA
ATOM      9  C   UNL     1      -1.985  13.837  21.790  0.00  0.00    +0.000 A 
ATOM     10  C   UNL     1      -1.102  14.440  22.687  0.00  0.00    +0.000 A 
ATOM     11  C   UNL     1       0.251  14.448  22.331  0.00  0.00    +0.000 A 
ATOM     12  C   UNL     1       0.687  13.865  21.143  0.00  0.00    +0.000 A 
ATOM     13  C   UNL     1      -0.225  13.261  20.267  0.00  0.00    +0.000 A 
ATOM     14  C   UNL     1      -1.598  13.251  20.585  0.00  0.00    +0.000 A 
ATOM     15  C   UNL     1      -2.807  12.805  19.981  0.00  0.00    +0.000 A 
ENDROOT
BRANCH   1  16
ATOM     16  C   UNL     1      -2.062  11.805  17.819  0.00  0.00    +0.000 C 
BRANCH  16  18
ATOM     17  O   UNL     1      -2.006   9.458  18.228  0.00  0.00    +0.000 OA
ATOM     18  C   UNL     1      -1.362  10.505  18.198  0.00  0.00    +0.000 C 
ATOM     19  N   UNL     1      -0.001  10.631  18.438  0.00  0.00    +0.000 N 
ATOM     20  H   UNL     1       0.372  11.573  18.537  0.00  0.00    +0.000 HD
BRANCH  19  21
ATOM     21  C   UNL     1       0.871   9.562  18.742  0.00  0.00    +0.000 A 
ATOM     22  C   UNL     1       1.632   8.909  17.771  0.00  0.00    +0.000 A 
ATOM     23  C   UNL     1       2.374   7.772  18.093  0.00  0.00    +0.000 A 
ATOM     24  C   UNL     1       2.397   7.303  19.401  0.00  0.00    +0.000 A 
ATOM     25  C   UNL     1       1.712   8.000  20.397  0.00  0.00    +0.000 A 
ATOM     26  C   UNL     1       0.958   9.133  20.070  0.00  0.00    +0.000 A 
ENDBRANCH  19  21
ENDBRANCH  16  18
ENDBRANCH   1  16
BRANCH   4  27
ATOM     27  C   UNL     1      -6.784  11.776  19.064  0.00  0.00    +0.000 C 
BRANCH  27  28
ATOM     28  C   UNL     1      -7.131  10.511  19.769  0.00  0.00    +0.000 A 
ATOM     29  C   UNL     1      -7.882  10.227  20.892  0.00  0.00    +0.000 A 
ATOM     30  C   UNL     1      -7.916   8.816  21.003  0.00  0.00    +0.000 A 
ATOM     31  C   UNL     1      -7.135   8.332  19.980  0.00  0.00    +0.000 A 
ATOM     32  O   UNL     1      -6.645   9.354  19.233  0.00  0.00    +0.000 OA
ENDBRANCH  27  28
ENDBRANCH   4  27
TORSDOF 5
ENDMDL
MODEL 8
REMARK VINA RESULT:      -6.9      3.028      6.159
REMARK  Name = 
REMARK  5 active torsions:
REMARK  status: ('A' for Active; 'I' for Inactive)
REMARK    1  A    between atoms: C_2  and  C_3
REMARK    2  A    between atoms: C_3  and  N_4
REMARK    3  A    between atoms: N_7  and  C_8
REMARK    4  A    between atoms: C_8  and  C_9
REMARK    5  A    between atoms: N_25  and  C_26
REMARK                            x       y       z     vdW  Elec       q    Type
REMARK                         _______ _______ _______ _____ _____    ______ ____
ROOT
ATOM      1  N   UNL     1       1.714   9.476  18.975  0.00  0.00    +0.000 N 
ATOM      2  C   UNL     1       2.354   8.410  18.329  0.00  0.00    +0.000 A 
ATOM      3  O   UNL     1       2.716   8.534  17.157  0.00  0.00    +0.000 OA
ATOM      4  N   UNL     1       2.539   7.225  19.052  0.00  0.00    +0.000 N 
ATOM      5  C   UNL     1       1.982   6.950  20.314  0.00  0.00    +0.000 A 
ATOM      6  O   UNL     1       2.116   5.877  20.888  0.00  0.00    +0.000 OA
ATOM      7  C   UNL     1       1.254   8.067  20.842  0.00  0.00    +0.000 A 
ATOM      8  O   UNL     1       0.600   8.056  22.035  0.00  0.00    +0.000 OA
ATOM      9  C   UNL     1       0.043   9.302  22.178  0.00  0.00    +0.000 A 
ATOM     10  C   UNL     1      -0.743   9.717  23.254  0.00  0.00    +0.000 A 
ATOM     11  C   UNL     1      -1.226  11.030  23.213  0.00  0.00    +0.000 A 
ATOM     12  C   UNL     1      -0.919  11.877  22.151  0.00  0.00    +0.000 A 
ATOM     13  C   UNL     1      -0.122  11.431  21.088  0.00  0.00    +0.000 A 
ATOM     14  C   UNL     1       0.367  10.110  21.088  0.00  0.00    +0.000 A 
ATOM     15  C   UNL     1       1.136   9.280  20.225  0.00  0.00    +0.000 A 
ENDROOT
BRANCH   1  16
ATOM     16  C   UNL     1       1.653  10.758  18.280  0.00  0.00    +0.000 C 
BRANCH  16  18
ATOM     17  O   UNL     1      -0.050  12.425  18.232  0.00  0.00    +0.000 OA
ATOM     18  C   UNL     1       0.224  11.239  18.054  0.00  0.00    +0.000 C 
ATOM     19  N   UNL     1      -0.651  10.259  17.609  0.00  0.00    +0.000 N 
ATOM     20  H   UNL     1      -0.337   9.293  17.658  0.00  0.00    +0.000 HD
BRANCH  19  21
ATOM     21  C   UNL     1      -2.005  10.476  17.270  0.00  0.00    +0.000 A 
ATOM     22  C   UNL     1      -2.487  10.348  15.966  0.00  0.00    +0.000 A 
ATOM     23  C   UNL     1      -3.800  10.704  15.653  0.00  0.00    +0.000 A 
ATOM     24  C   UNL     1      -4.657  11.148  16.651  0.00  0.00    +0.000 A 
ATOM     25  C   UNL     1      -4.213  11.195  17.974  0.00  0.00    +0.000 A 
ATOM     26  C   UNL     1      -2.892  10.850  18.284  0.00  0.00    +0.000 A 
ENDBRANCH  19  21
ENDBRANCH  16  18
ENDBRANCH   1  16
BRANCH   4  27
ATOM     27  C   UNL     1       3.341   6.177  18.428  0.00  0.00    +0.000 C 
BRANCH  27  28
ATOM     28  C   UNL     1       2.581   4.897  18.392  0.00  0.00    +0.000 A 
ATOM     29  C   UNL     1       1.396   4.514  17.794  0.00  0.00    +0.000 A 
ATOM     30  C   UNL     1       1.249   3.130  18.051  0.00  0.00    +0.000 A 
ATOM     31  C   UNL     1       2.317   2.770  18.838  0.00  0.00    +0.000 A 
ATOM     32  O   UNL     1       3.125   3.839  19.060  0.00  0.00    +0.000 OA
ENDBRANCH  27  28
ENDBRANCH   4  27
TORSDOF 5
ENDMDL
MODEL 9
REMARK VINA RESULT:      -6.9      5.297     10.385
REMARK  Name = 
REMARK  5 active torsions:
REMARK  status: ('A' for Active; 'I' for Inactive)
REMARK    1  A    between atoms: C_2  and  C_3
REMARK    2  A    between atoms: C_3  and  N_4
REMARK    3  A    between atoms: N_7  and  C_8
REMARK    4  A    between atoms: C_8  and  C_9
REMARK    5  A    between atoms: N_25  and  C_26
REMARK                            x       y       z     vdW  Elec       q    Type
REMARK                         _______ _______ _______ _____ _____    ______ ____
ROOT
ATOM      1  N   UNL     1      -2.082  12.734  20.176  0.00  0.00    +0.000 N 
ATOM      2  C   UNL     1      -1.326  13.075  21.306  0.00  0.00    +0.000 A 
ATOM      3  O   UNL     1      -0.095  13.025  21.255  0.00  0.00    +0.000 OA
ATOM      4  N   UNL     1      -2.017  13.446  22.466  0.00  0.00    +0.000 N 
ATOM      5  C   UNL     1      -3.407  13.337  22.651  0.00  0.00    +0.000 A 
ATOM      6  O   UNL     1      -3.968  13.614  23.703  0.00  0.00    +0.000 OA
ATOM      7  C   UNL     1      -4.078  12.875  21.471  0.00  0.00    +0.000 A 
ATOM      8  O   UNL     1      -5.420  12.661  21.392  0.00  0.00    +0.000 OA
ATOM      9  C   UNL     1      -5.664  12.234  20.110  0.00  0.00    +0.000 A 
ATOM     10  C   UNL     1      -6.913  11.875  19.602  0.00  0.00    +0.000 A 
ATOM     11  C   UNL     1      -6.955  11.459  18.267  0.00  0.00    +0.000 A 
ATOM     12  C   UNL     1      -5.802  11.423  17.487  0.00  0.00    +0.000 A 
ATOM     13  C   UNL     1      -4.563  11.796  18.026  0.00  0.00    +0.000 A 
ATOM     14  C   UNL     1      -4.480  12.204  19.372  0.00  0.00    +0.000 A 
ATOM     15  C   UNL     1      -3.462  12.603  20.283  0.00  0.00    +0.000 A 
ENDROOT
BRANCH   1  16
ATOM     16  C   UNL     1      -1.370  12.492  18.926  0.00  0.00    +0.000 C 
BRANCH  16  18
ATOM     17  O   UNL     1      -1.652  10.230  18.231  0.00  0.00    +0.000 OA
ATOM     18  C   UNL     1      -0.911  11.046  18.777  0.00  0.00    +0.000 C 
ATOM     19  N   UNL     1       0.368  10.795  19.250  0.00  0.00    +0.000 N 
ATOM     20  H   UNL     1       0.807  11.516  19.819  0.00  0.00    +0.000 HD
BRANCH  19  21
ATOM     21  C   UNL     1       1.035   9.553  19.165  0.00  0.00    +0.000 A 
ATOM     22  C   UNL     1       1.183   8.699  20.259  0.00  0.00    +0.000 A 
ATOM     23  C   UNL     1       1.966   7.547  20.163  0.00  0.00    +0.000 A 
ATOM     24  C   UNL     1       2.571   7.215  18.958  0.00  0.00    +0.000 A 
ATOM     25  C   UNL     1       2.357   8.014  17.833  0.00  0.00    +0.000 A 
ATOM     26  C   UNL     1       1.582   9.176  17.935  0.00  0.00    +0.000 A 
ENDBRANCH  19  21
ENDBRANCH  16  18
ENDBRANCH   1  16
BRANCH   4  27
ATOM     27  C   UNL     1      -1.226  13.948  23.585  0.00  0.00    +0.000 C 
BRANCH  27  28
ATOM     28  C   UNL     1      -0.867  15.377  23.365  0.00  0.00    +0.000 A 
ATOM     29  C   UNL     1      -1.611  16.516  23.132  0.00  0.00    +0.000 A 
ATOM     30  C   UNL     1      -0.692  17.593  23.100  0.00  0.00    +0.000 A 
ATOM     31  C   UNL     1       0.556  17.037  23.253  0.00  0.00    +0.000 A 
ATOM     32  O   UNL     1       0.460  15.690  23.403  0.00  0.00    +0.000 OA
ENDBRANCH  27  28
ENDBRANCH   4  27
TORSDOF 5
ENDMDL
