MODEL 1
REMARK VINA RESULT:      -6.2      0.000      0.000
REMARK  Name = 
REMARK  4 active torsions:
REMARK  status: ('A' for Active; 'I' for Inactive)
REMARK    1  A    between atoms: C_1  and  C_2
REMARK    2  A    between atoms: C_2  and  C_3
REMARK    3  A    between atoms: C_3  and  N_4
REMARK    4  A    between atoms: N_24  and  C_25
REMARK                            x       y       z     vdW  Elec       q    Type
REMARK                         _______ _______ _______ _____ _____    ______ ____
ROOT
ATOM      1  N   UNL     1      -3.383  12.566  20.013  0.00  0.00    +0.000 N 
ATOM      2  C   UNL     1      -4.777  12.622  19.742  0.00  0.00    +0.000 A 
ATOM      3  C   UNL     1      -4.952  11.669  18.715  0.00  0.00    +0.000 A 
ATOM      4  C   UNL     1      -3.725  11.176  18.272  0.00  0.00    +0.000 A 
ATOM      5  C   UNL     1      -3.351  10.239  17.266  0.00  0.00    +0.000 A 
ATOM      6  C   UNL     1      -2.003   9.902  17.104  0.00  0.00    +0.000 A 
ATOM      7  C   UNL     1      -1.050  10.469  17.916  0.00  0.00    +0.000 A 
ATOM      8  C   UNL     1      -1.405  11.403  18.908  0.00  0.00    +0.000 A 
ATOM      9  C   UNL     1      -2.758  11.735  19.069  0.00  0.00    +0.000 A 
ATOM     10  C   UNL     1      -6.286  11.224  18.191  0.00  0.00    +0.000 C 
ATOM     11  C   UNL     1      -7.386  11.685  19.136  0.00  0.00    +0.000 C 
ATOM     12  N   UNL     1      -7.120  13.063  19.539  0.00  0.00    +0.000 N 
ATOM     13  C   UNL     1      -7.217  14.016  18.520  0.00  0.00    +0.000 C 
ATOM     14  O   UNL     1      -7.662  13.821  17.382  0.00  0.00    +0.000 OA
ATOM     15  C   UNL     1      -6.830  15.376  18.907  0.00  0.00    +0.000 A 
ATOM     16  C   UNL     1      -6.501  16.409  18.040  0.00  0.00    +0.000 A 
ATOM     17  C   UNL     1      -6.369  17.697  18.565  0.00  0.00    +0.000 A 
ATOM     18  C   UNL     1      -6.771  17.938  19.864  0.00  0.00    +0.000 A 
ATOM     19  C   UNL     1      -7.056  16.887  20.723  0.00  0.00    +0.000 A 
ATOM     20  C   UNL     1      -6.793  15.592  20.262  0.00  0.00    +0.000 A 
ATOM     21  N   UNL     1      -6.199  14.609  21.094  0.00  0.00    +0.000 N 
ATOM     22  C   UNL     1      -5.057  15.248  21.730  0.00  0.00    +0.000 C 
ATOM     23  C   UNL     1      -6.009  13.250  20.495  0.00  0.00    +0.000 C 
ENDROOT
BRANCH   1  24
ATOM     24  C   UNL     1      -2.613  13.174  21.073  0.00  0.00    +0.000 C 
BRANCH  24  26
ATOM     25  C   UNL     1      -1.439  11.620  22.714  0.00  0.00    +0.000 C 
ATOM     26  C   UNL     1      -2.689  12.442  22.419  0.00  0.00    +0.000 C 
ENDBRANCH  24  26
ENDBRANCH   1  24
TORSDOF 2
ENDMDL
MODEL 2
REMARK VINA RESULT:      -6.2     11.716     14.975
REMARK  Name = 
REMARK  4 active torsions:
REMARK  status: ('A' for Active; 'I' for Inactive)
REMARK    1  A    between atoms: C_1  and  C_2
REMARK    2  A    between atoms: C_2  and  C_3
REMARK    3  A    between atoms: C_3  and  N_4
REMARK    4  A    between atoms: N_24  and  C_25
REMARK                            x       y       z     vdW  Elec       q    Type
REMARK                         _______ _______ _______ _____ _____    ______ ____
ROOT
ATOM      1  N   UNL     1       7.524  14.301  21.255  0.00  0.00    +0.000 N 
ATOM      2  C   UNL     1       8.453  13.628  20.418  0.00  0.00    +0.000 A 
ATOM      3  C   UNL     1       8.897  12.552  21.217  0.00  0.00    +0.000 A 
ATOM      4  C   UNL     1       8.395  12.649  22.515  0.00  0.00    +0.000 A 
ATOM      5  C   UNL     1       8.553  11.856  23.688  0.00  0.00    +0.000 A 
ATOM      6  C   UNL     1       7.847  12.194  24.849  0.00  0.00    +0.000 A 
ATOM      7  C   UNL     1       7.005  13.280  24.849  0.00  0.00    +0.000 A 
ATOM      8  C   UNL     1       6.847  14.077  23.700  0.00  0.00    +0.000 A 
ATOM      9  C   UNL     1       7.554  13.733  22.538  0.00  0.00    +0.000 A 
ATOM     10  C   UNL     1       9.769  11.434  20.724  0.00  0.00    +0.000 C 
ATOM     11  C   UNL     1       9.817  11.456  19.204  0.00  0.00    +0.000 C 
ATOM     12  N   UNL     1       9.978  12.834  18.753  0.00  0.00    +0.000 N 
ATOM     13  C   UNL     1      11.201  13.432  19.075  0.00  0.00    +0.000 C 
ATOM     14  O   UNL     1      12.192  12.856  19.543  0.00  0.00    +0.000 OA
ATOM     15  C   UNL     1      11.306  14.852  18.726  0.00  0.00    +0.000 A 
ATOM     16  C   UNL     1      12.234  15.751  19.232  0.00  0.00    +0.000 A 
ATOM     17  C   UNL     1      12.333  17.009  18.632  0.00  0.00    +0.000 A 
ATOM     18  C   UNL     1      11.670  17.241  17.443  0.00  0.00    +0.000 A 
ATOM     19  C   UNL     1      10.717  16.346  16.979  0.00  0.00    +0.000 A 
ATOM     20  C   UNL     1      10.368  15.285  17.821  0.00  0.00    +0.000 A 
ATOM     21  N   UNL     1       9.022  14.871  17.983  0.00  0.00    +0.000 N 
ATOM     22  C   UNL     1       8.247  16.081  18.213  0.00  0.00    +0.000 C 
ATOM     23  C   UNL     1       8.785  13.695  18.880  0.00  0.00    +0.000 C 
ENDROOT
BRANCH   1  24
ATOM     24  C   UNL     1       6.607  15.376  20.955  0.00  0.00    +0.000 C 
BRANCH  24  26
ATOM     25  C   UNL     1       4.171  15.946  20.477  0.00  0.00    +0.000 C 
ATOM     26  C   UNL     1       5.295  14.932  20.295  0.00  0.00    +0.000 C 
ENDBRANCH  24  26
ENDBRANCH   1  24
TORSDOF 2
ENDMDL
MODEL 3
REMARK VINA RESULT:      -6.2      3.057      5.275
REMARK  Name = 
REMARK  4 active torsions:
REMARK  status: ('A' for Active; 'I' for Inactive)
REMARK    1  A    between atoms: C_1  and  C_2
REMARK    2  A    between atoms: C_2  and  C_3
REMARK    3  A    between atoms: C_3  and  N_4
REMARK    4  A    between atoms: N_24  and  C_25
REMARK                            x       y       z     vdW  Elec       q    Type
REMARK                         _______ _______ _______ _____ _____    ______ ____
ROOT
ATOM      1  N   UNL     1      -3.225  12.055  18.790  0.00  0.00    +0.000 N 
ATOM      2  C   UNL     1      -2.799  12.807  19.917  0.00  0.00    +0.000 A 
ATOM      3  C   UNL     1      -3.937  12.820  20.754  0.00  0.00    +0.000 A 
ATOM      4  C   UNL     1      -5.037  12.250  20.115  0.00  0.00    +0.000 A 
ATOM      5  C   UNL     1      -6.394  12.043  20.498  0.00  0.00    +0.000 A 
ATOM      6  C   UNL     1      -7.260  11.368  19.630  0.00  0.00    +0.000 A 
ATOM      7  C   UNL     1      -6.799  10.905  18.421  0.00  0.00    +0.000 A 
ATOM      8  C   UNL     1      -5.464  11.111  18.027  0.00  0.00    +0.000 A 
ATOM      9  C   UNL     1      -4.598  11.785  18.900  0.00  0.00    +0.000 A 
ATOM     10  C   UNL     1      -3.949  13.348  22.159  0.00  0.00    +0.000 C 
ATOM     11  C   UNL     1      -2.520  13.546  22.643  0.00  0.00    +0.000 C 
ATOM     12  N   UNL     1      -1.739  14.167  21.577  0.00  0.00    +0.000 N 
ATOM     13  C   UNL     1      -2.102  15.478  21.251  0.00  0.00    +0.000 C 
ATOM     14  O   UNL     1      -2.889  16.193  21.884  0.00  0.00    +0.000 OA
ATOM     15  C   UNL     1      -1.395  16.047  20.101  0.00  0.00    +0.000 A 
ATOM     16  C   UNL     1      -1.792  17.154  19.363  0.00  0.00    +0.000 A 
ATOM     17  C   UNL     1      -0.893  17.692  18.439  0.00  0.00    +0.000 A 
ATOM     18  C   UNL     1       0.415  17.250  18.439  0.00  0.00    +0.000 A 
ATOM     19  C   UNL     1       0.780  16.116  19.152  0.00  0.00    +0.000 A 
ATOM     20  C   UNL     1      -0.246  15.379  19.753  0.00  0.00    +0.000 A 
ATOM     21  N   UNL     1      -0.264  13.961  19.723  0.00  0.00    +0.000 N 
ATOM     22  C   UNL     1       0.004  13.578  18.345  0.00  0.00    +0.000 C 
ATOM     23  C   UNL     1      -1.394  13.290  20.439  0.00  0.00    +0.000 C 
ENDROOT
BRANCH   1  24
ATOM     24  C   UNL     1      -2.470  11.546  17.669  0.00  0.00    +0.000 C 
BRANCH  24  26
ATOM     25  C   UNL     1      -0.591  10.090  18.583  0.00  0.00    +0.000 C 
ATOM     26  C   UNL     1      -1.930  10.122  17.855  0.00  0.00    +0.000 C 
ENDBRANCH  24  26
ENDBRANCH   1  24
TORSDOF 2
ENDMDL
MODEL 4
REMARK VINA RESULT:      -6.1      9.733     13.537
REMARK  Name = 
REMARK  4 active torsions:
REMARK  status: ('A' for Active; 'I' for Inactive)
REMARK    1  A    between atoms: C_1  and  C_2
REMARK    2  A    between atoms: C_2  and  C_3
REMARK    3  A    between atoms: C_3  and  N_4
REMARK    4  A    between atoms: N_24  and  C_25
REMARK                            x       y       z     vdW  Elec       q    Type
REMARK                         _______ _______ _______ _____ _____    ______ ____
ROOT
ATOM      1  N   UNL     1       2.964   5.478  18.000  0.00  0.00    +0.000 N 
ATOM      2  C   UNL     1       4.104   5.249  17.185  0.00  0.00    +0.000 A 
ATOM      3  C   UNL     1       4.127   3.845  17.036  0.00  0.00    +0.000 A 
ATOM      4  C   UNL     1       3.158   3.239  17.836  0.00  0.00    +0.000 A 
ATOM      5  C   UNL     1       2.789   1.883  18.069  0.00  0.00    +0.000 A 
ATOM      6  C   UNL     1       1.704   1.598  18.905  0.00  0.00    +0.000 A 
ATOM      7  C   UNL     1       1.000   2.622  19.491  0.00  0.00    +0.000 A 
ATOM      8  C   UNL     1       1.361   3.966  19.277  0.00  0.00    +0.000 A 
ATOM      9  C   UNL     1       2.447   4.247  18.436  0.00  0.00    +0.000 A 
ATOM     10  C   UNL     1       5.051   3.106  16.112  0.00  0.00    +0.000 C 
ATOM     11  C   UNL     1       5.699   4.087  15.146  0.00  0.00    +0.000 C 
ATOM     12  N   UNL     1       6.112   5.277  15.882  0.00  0.00    +0.000 N 
ATOM     13  C   UNL     1       7.142   5.084  16.809  0.00  0.00    +0.000 C 
ATOM     14  O   UNL     1       7.827   4.061  16.931  0.00  0.00    +0.000 OA
ATOM     15  C   UNL     1       7.464   6.256  17.628  0.00  0.00    +0.000 A 
ATOM     16  C   UNL     1       8.170   6.248  18.823  0.00  0.00    +0.000 A 
ATOM     17  C   UNL     1       8.577   7.472  19.360  0.00  0.00    +0.000 A 
ATOM     18  C   UNL     1       8.455   8.615  18.596  0.00  0.00    +0.000 A 
ATOM     19  C   UNL     1       7.710   8.608  17.425  0.00  0.00    +0.000 A 
ATOM     20  C   UNL     1       6.991   7.445  17.129  0.00  0.00    +0.000 A 
ATOM     21  N   UNL     1       5.667   7.494  16.623  0.00  0.00    +0.000 N 
ATOM     22  C   UNL     1       4.942   8.434  17.463  0.00  0.00    +0.000 C 
ATOM     23  C   UNL     1       5.022   6.180  16.307  0.00  0.00    +0.000 C 
ENDROOT
BRANCH   1  24
ATOM     24  C   UNL     1       2.309   6.713  18.364  0.00  0.00    +0.000 C 
BRANCH  24  26
ATOM     25  C   UNL     1       1.518   8.249  20.235  0.00  0.00    +0.000 C 
ATOM     26  C   UNL     1       2.420   7.081  19.850  0.00  0.00    +0.000 C 
ENDBRANCH  24  26
ENDBRANCH   1  24
TORSDOF 2
ENDMDL
MODEL 5
REMARK VINA RESULT:      -6.0      3.242      6.640
REMARK  Name = 
REMARK  4 active torsions:
REMARK  status: ('A' for Active; 'I' for Inactive)
REMARK    1  A    between atoms: C_1  and  C_2
REMARK    2  A    between atoms: C_2  and  C_3
REMARK    3  A    between atoms: C_3  and  N_4
REMARK    4  A    between atoms: N_24  and  C_25
REMARK                            x       y       z     vdW  Elec       q    Type
REMARK                         _______ _______ _______ _____ _____    ______ ____
ROOT
ATOM      1  N   UNL     1      -2.726  12.013  19.172  0.00  0.00    +0.000 N 
ATOM      2  C   UNL     1      -2.012  12.121  20.395  0.00  0.00    +0.000 A 
ATOM      3  C   UNL     1      -3.027  12.350  21.350  0.00  0.00    +0.000 A 
ATOM      4  C   UNL     1      -4.266  12.529  20.734  0.00  0.00    +0.000 A 
ATOM      5  C   UNL     1      -5.573  12.806  21.227  0.00  0.00    +0.000 A 
ATOM      6  C   UNL     1      -6.648  12.868  20.333  0.00  0.00    +0.000 A 
ATOM      7  C   UNL     1      -6.439  12.658  18.991  0.00  0.00    +0.000 A 
ATOM      8  C   UNL     1      -5.150  12.393  18.490  0.00  0.00    +0.000 A 
ATOM      9  C   UNL     1      -4.077  12.328  19.390  0.00  0.00    +0.000 A 
ATOM     10  C   UNL     1      -2.805  12.366  22.834  0.00  0.00    +0.000 C 
ATOM     11  C   UNL     1      -1.438  11.780  23.153  0.00  0.00    +0.000 C 
ATOM     12  N   UNL     1      -0.461  12.311  22.208  0.00  0.00    +0.000 N 
ATOM     13  C   UNL     1      -0.204  13.682  22.316  0.00  0.00    +0.000 C 
ATOM     14  O   UNL     1      -0.593  14.426  23.226  0.00  0.00    +0.000 OA
ATOM     15  C   UNL     1       0.684  14.227  21.285  0.00  0.00    +0.000 A 
ATOM     16  C   UNL     1       0.820  15.568  20.950  0.00  0.00    +0.000 A 
ATOM     17  C   UNL     1       1.866  15.935  20.100  0.00  0.00    +0.000 A 
ATOM     18  C   UNL     1       2.842  15.007  19.795  0.00  0.00    +0.000 A 
ATOM     19  C   UNL     1       2.664  13.666  20.104  0.00  0.00    +0.000 A 
ATOM     20  C   UNL     1       1.417  13.283  20.610  0.00  0.00    +0.000 A 
ATOM     21  N   UNL     1       0.772  12.094  20.185  0.00  0.00    +0.000 N 
ATOM     22  C   UNL     1       0.844  12.086  18.732  0.00  0.00    +0.000 C 
ATOM     23  C   UNL     1      -0.540  11.775  20.833  0.00  0.00    +0.000 C 
ENDROOT
BRANCH   1  24
ATOM     24  C   UNL     1      -2.274  11.612  17.860  0.00  0.00    +0.000 C 
BRANCH  24  26
ATOM     25  C   UNL     1      -2.863   9.797  16.173  0.00  0.00    +0.000 C 
ATOM     26  C   UNL     1      -2.372  10.106  17.583  0.00  0.00    +0.000 C 
ENDBRANCH  24  26
ENDBRANCH   1  24
TORSDOF 2
ENDMDL
MODEL 6
REMARK VINA RESULT:      -6.0      9.949     12.495
REMARK  Name = 
REMARK  4 active torsions:
REMARK  status: ('A' for Active; 'I' for Inactive)
REMARK    1  A    between atoms: C_1  and  C_2
REMARK    2  A    between atoms: C_2  and  C_3
REMARK    3  A    between atoms: C_3  and  N_4
REMARK    4  A    between atoms: N_24  and  C_25
REMARK                            x       y       z     vdW  Elec       q    Type
REMARK                         _______ _______ _______ _____ _____    ______ ____
ROOT
ATOM      1  N   UNL     1       8.328  14.644  18.944  0.00  0.00    +0.000 N 
ATOM      2  C   UNL     1       7.737  14.710  20.233  0.00  0.00    +0.000 A 
ATOM      3  C   UNL     1       8.311  13.616  20.916  0.00  0.00    +0.000 A 
ATOM      4  C   UNL     1       9.082  12.835  20.055  0.00  0.00    +0.000 A 
ATOM      5  C   UNL     1       9.835  11.638  20.228  0.00  0.00    +0.000 A 
ATOM      6  C   UNL     1      10.569  11.123  19.153  0.00  0.00    +0.000 A 
ATOM      7  C   UNL     1      10.564  11.774  17.943  0.00  0.00    +0.000 A 
ATOM      8  C   UNL     1       9.817  12.952  17.756  0.00  0.00    +0.000 A 
ATOM      9  C   UNL     1       9.085  13.467  18.837  0.00  0.00    +0.000 A 
ATOM     10  C   UNL     1       8.140  13.348  22.383  0.00  0.00    +0.000 C 
ATOM     11  C   UNL     1       7.557  14.578  23.062  0.00  0.00    +0.000 C 
ATOM     12  N   UNL     1       6.484  15.117  22.232  0.00  0.00    +0.000 N 
ATOM     13  C   UNL     1       5.351  14.306  22.114  0.00  0.00    +0.000 C 
ATOM     14  O   UNL     1       5.117  13.282  22.770  0.00  0.00    +0.000 OA
ATOM     15  C   UNL     1       4.333  14.799  21.182  0.00  0.00    +0.000 A 
ATOM     16  C   UNL     1       3.307  14.049  20.621  0.00  0.00    +0.000 A 
ATOM     17  C   UNL     1       2.298  14.722  19.928  0.00  0.00    +0.000 A 
ATOM     18  C   UNL     1       2.235  16.099  20.001  0.00  0.00    +0.000 A 
ATOM     19  C   UNL     1       3.291  16.829  20.529  0.00  0.00    +0.000 A 
ATOM     20  C   UNL     1       4.456  16.127  20.856  0.00  0.00    +0.000 A 
ATOM     21  N   UNL     1       5.745  16.640  20.561  0.00  0.00    +0.000 N 
ATOM     22  C   UNL     1       5.700  17.089  19.178  0.00  0.00    +0.000 C 
ATOM     23  C   UNL     1       6.913  15.811  21.000  0.00  0.00    +0.000 C 
ENDROOT
BRANCH   1  24
ATOM     24  C   UNL     1       8.280  15.581  17.845  0.00  0.00    +0.000 C 
BRANCH  24  26
ATOM     25  C   UNL     1      10.465  16.533  16.950  0.00  0.00    +0.000 C 
ATOM     26  C   UNL     1       9.309  16.716  17.927  0.00  0.00    +0.000 C 
ENDBRANCH  24  26
ENDBRANCH   1  24
TORSDOF 2
ENDMDL
MODEL 7
REMARK VINA RESULT:      -6.0      2.864      6.304
REMARK  Name = 
REMARK  4 active torsions:
REMARK  status: ('A' for Active; 'I' for Inactive)
REMARK    1  A    between atoms: C_1  and  C_2
REMARK    2  A    between atoms: C_2  and  C_3
REMARK    3  A    between atoms: C_3  and  N_4
REMARK    4  A    between atoms: N_24  and  C_25
REMARK                            x       y       z     vdW  Elec       q    Type
REMARK                         _______ _______ _______ _____ _____    ______ ____
ROOT
ATOM      1  N   UNL     1      -3.376  11.441  18.565  0.00  0.00    +0.000 N 
ATOM      2  C   UNL     1      -2.777  11.961  19.743  0.00  0.00    +0.000 A 
ATOM      3  C   UNL     1      -3.843  12.623  20.390  0.00  0.00    +0.000 A 
ATOM      4  C   UNL     1      -4.983  12.646  19.586  0.00  0.00    +0.000 A 
ATOM      5  C   UNL     1      -6.287  13.196  19.751  0.00  0.00    +0.000 A 
ATOM      6  C   UNL     1      -7.252  12.989  18.759  0.00  0.00    +0.000 A 
ATOM      7  C   UNL     1      -6.941  12.256  17.639  0.00  0.00    +0.000 A 
ATOM      8  C   UNL     1      -5.654  11.716  17.459  0.00  0.00    +0.000 A 
ATOM      9  C   UNL     1      -4.690  11.922  18.457  0.00  0.00    +0.000 A 
ATOM     10  C   UNL     1      -3.768  13.199  21.774  0.00  0.00    +0.000 C 
ATOM     11  C   UNL     1      -2.523  12.677  22.477  0.00  0.00    +0.000 C 
ATOM     12  N   UNL     1      -1.399  12.719  21.547  0.00  0.00    +0.000 N 
ATOM     13  C   UNL     1      -0.982  13.998  21.165  0.00  0.00    +0.000 C 
ATOM     14  O   UNL     1      -1.361  15.066  21.664  0.00  0.00    +0.000 OA
ATOM     15  C   UNL     1       0.064  14.027  20.139  0.00  0.00    +0.000 A 
ATOM     16  C   UNL     1       0.401  15.115  19.346  0.00  0.00    +0.000 A 
ATOM     17  C   UNL     1       1.564  15.038  18.575  0.00  0.00    +0.000 A 
ATOM     18  C   UNL     1       2.439  13.990  18.781  0.00  0.00    +0.000 A 
ATOM     19  C   UNL     1       2.063  12.894  19.545  0.00  0.00    +0.000 A 
ATOM     20  C   UNL     1       0.734  12.839  19.978  0.00  0.00    +0.000 A 
ATOM     21  N   UNL     1      -0.012  11.633  19.949  0.00  0.00    +0.000 N 
ATOM     22  C   UNL     1       0.200  11.054  18.631  0.00  0.00    +0.000 C 
ATOM     23  C   UNL     1      -1.411  11.698  20.479  0.00  0.00    +0.000 C 
ENDROOT
BRANCH   1  24
ATOM     24  C   UNL     1      -2.852  10.526  17.577  0.00  0.00    +0.000 C 
BRANCH  24  26
ATOM     25  C   UNL     1      -3.046  10.163  15.064  0.00  0.00    +0.000 C 
ATOM     26  C   UNL     1      -2.667  11.131  16.180  0.00  0.00    +0.000 C 
ENDBRANCH  24  26
ENDBRANCH   1  24
TORSDOF 2
ENDMDL
MODEL 8
REMARK VINA RESULT:      -6.0      2.475      4.512
REMARK  Name = 
REMARK  4 active torsions:
REMARK  status: ('A' for Active; 'I' for Inactive)
REMARK    1  A    between atoms: C_1  and  C_2
REMARK    2  A    between atoms: C_2  and  C_3
REMARK    3  A    between atoms: C_3  and  N_4
REMARK    4  A    between atoms: N_24  and  C_25
REMARK                            x       y       z     vdW  Elec       q    Type
REMARK                         _______ _______ _______ _____ _____    ______ ____
ROOT
ATOM      1  N   UNL     1      -4.626  12.374  18.845  0.00  0.00    +0.000 N 
ATOM      2  C   UNL     1      -4.078  13.174  19.883  0.00  0.00    +0.000 A 
ATOM      3  C   UNL     1      -2.712  12.813  19.891  0.00  0.00    +0.000 A 
ATOM      4  C   UNL     1      -2.469  11.748  19.024  0.00  0.00    +0.000 A 
ATOM      5  C   UNL     1      -1.300  11.007  18.687  0.00  0.00    +0.000 A 
ATOM      6  C   UNL     1      -1.374  10.009  17.708  0.00  0.00    +0.000 A 
ATOM      7  C   UNL     1      -2.567   9.754  17.076  0.00  0.00    +0.000 A 
ATOM      8  C   UNL     1      -3.732  10.472  17.406  0.00  0.00    +0.000 A 
ATOM      9  C   UNL     1      -3.652  11.473  18.386  0.00  0.00    +0.000 A 
ATOM     10  C   UNL     1      -1.658  13.508  20.701  0.00  0.00    +0.000 C 
ATOM     11  C   UNL     1      -2.204  14.826  21.229  0.00  0.00    +0.000 C 
ATOM     12  N   UNL     1      -3.561  14.614  21.723  0.00  0.00    +0.000 N 
ATOM     13  C   UNL     1      -3.668  13.799  22.855  0.00  0.00    +0.000 C 
ATOM     14  O   UNL     1      -2.729  13.396  23.553  0.00  0.00    +0.000 OA
ATOM     15  C   UNL     1      -5.041  13.494  23.269  0.00  0.00    +0.000 A 
ATOM     16  C   UNL     1      -5.429  12.461  24.111  0.00  0.00    +0.000 A 
ATOM     17  C   UNL     1      -6.747  12.444  24.575  0.00  0.00    +0.000 A 
ATOM     18  C   UNL     1      -7.548  13.549  24.362  0.00  0.00    +0.000 A 
ATOM     19  C   UNL     1      -7.155  14.549  23.485  0.00  0.00    +0.000 A 
ATOM     20  C   UNL     1      -5.993  14.329  22.738  0.00  0.00    +0.000 A 
ATOM     21  N   UNL     1      -5.912  14.670  21.364  0.00  0.00    +0.000 N 
ATOM     22  C   UNL     1      -7.118  14.146  20.741  0.00  0.00    +0.000 C 
ATOM     23  C   UNL     1      -4.598  14.422  20.689  0.00  0.00    +0.000 C 
ENDROOT
BRANCH   1  24
ATOM     24  C   UNL     1      -5.935  12.405  18.236  0.00  0.00    +0.000 C 
BRANCH  24  26
ATOM     25  C   UNL     1      -6.833  10.704  19.906  0.00  0.00    +0.000 C 
ATOM     26  C   UNL     1      -6.768  11.133  18.444  0.00  0.00    +0.000 C 
ENDBRANCH  24  26
ENDBRANCH   1  24
TORSDOF 2
ENDMDL
MODEL 9
REMARK VINA RESULT:      -6.0      3.133      5.180
REMARK  Name = 
REMARK  4 active torsions:
REMARK  status: ('A' for Active; 'I' for Inactive)
REMARK    1  A    between atoms: C_1  and  C_2
REMARK    2  A    between atoms: C_2  and  C_3
REMARK    3  A    between atoms: C_3  and  N_4
REMARK    4  A    between atoms: N_24  and  C_25
REMARK                            x       y       z     vdW  Elec       q    Type
REMARK                         _______ _______ _______ _____ _____    ______ ____
ROOT
ATOM      1  N   UNL     1      -2.325  11.561  19.009  0.00  0.00    +0.000 N 
ATOM      2  C   UNL     1      -2.198  12.730  19.806  0.00  0.00    +0.000 A 
ATOM      3  C   UNL     1      -0.803  12.934  19.874  0.00  0.00    +0.000 A 
ATOM      4  C   UNL     1      -0.111  11.873  19.291  0.00  0.00    +0.000 A 
ATOM      5  C   UNL     1       1.273  11.581  19.123  0.00  0.00    +0.000 A 
ATOM      6  C   UNL     1       1.655  10.431  18.422  0.00  0.00    +0.000 A 
ATOM      7  C   UNL     1       0.698   9.596  17.897  0.00  0.00    +0.000 A 
ATOM      8  C   UNL     1      -0.673   9.868  18.065  0.00  0.00    +0.000 A 
ATOM      9  C   UNL     1      -1.051  11.023  18.765  0.00  0.00    +0.000 A 
ATOM     10  C   UNL     1      -0.153  14.151  20.466  0.00  0.00    +0.000 C 
ATOM     11  C   UNL     1      -1.194  15.241  20.664  0.00  0.00    +0.000 C 
ATOM     12  N   UNL     1      -2.404  14.648  21.223  0.00  0.00    +0.000 N 
ATOM     13  C   UNL     1      -2.282  14.146  22.523  0.00  0.00    +0.000 C 
ATOM     14  O   UNL     1      -1.315  14.310  23.279  0.00  0.00    +0.000 OA
ATOM     15  C   UNL     1      -3.465  13.444  23.028  0.00  0.00    +0.000 A 
ATOM     16  C   UNL     1      -3.498  12.570  24.107  0.00  0.00    +0.000 A 
ATOM     17  C   UNL     1      -4.743  12.159  24.589  0.00  0.00    +0.000 A 
ATOM     18  C   UNL     1      -5.883  12.787  24.127  0.00  0.00    +0.000 A 
ATOM     19  C   UNL     1      -5.831  13.625  23.022  0.00  0.00    +0.000 A 
ATOM     20  C   UNL     1      -4.618  13.698  22.329  0.00  0.00    +0.000 A 
ATOM     21  N   UNL     1      -4.568  13.711  20.912  0.00  0.00    +0.000 N 
ATOM     22  C   UNL     1      -5.436  12.633  20.462  0.00  0.00    +0.000 C 
ATOM     23  C   UNL     1      -3.211  13.835  20.290  0.00  0.00    +0.000 C 
ENDROOT
BRANCH   1  24
ATOM     24  C   UNL     1      -3.499  10.943  18.438  0.00  0.00    +0.000 C 
BRANCH  24  26
ATOM     25  C   UNL     1      -3.477  10.889  15.892  0.00  0.00    +0.000 C 
ATOM     26  C   UNL     1      -3.997  11.593  17.141  0.00  0.00    +0.000 C 
ENDBRANCH  24  26
ENDBRANCH   1  24
TORSDOF 2
ENDMDL
