MODEL 1
REMARK VINA RESULT:      -6.9      0.000      0.000
REMARK  Name = 
REMARK  10 active torsions:
REMARK  status: ('A' for Active; 'I' for Inactive)
REMARK    1  A    between atoms: C_1  and  C_2
REMARK    2  A    between atoms: C_2  and  S_3
REMARK    3  A    between atoms: S_3  and  N_6
REMARK    4  A    between atoms: C_10  and  C_11
REMARK    5  A    between atoms: C_11  and  O_12
REMARK    6  A    between atoms: O_12  and  C_13
REMARK    7  A    between atoms: C_13  and  C_14
REMARK    8  A    between atoms: C_14  and  N_15
REMARK    9  A    between atoms: N_15  and  C_16
REMARK   10  A    between atoms: N_15  and  C_17
REMARK                            x       y       z     vdW  Elec       q    Type
REMARK                         _______ _______ _______ _____ _____    ______ ____
ROOT
ATOM      1  N   UNL     1       5.643   5.153  17.277  0.00  0.00    +0.000 NA
ATOM      2  C   UNL     1       5.745   5.349  18.747  0.00  0.00    +0.000 C 
ATOM      3  C   UNL     1       4.375   5.714  19.322  0.00  0.00    +0.000 C 
ATOM      4  C   UNL     1       3.295   4.743  18.919  0.00  0.00    +0.000 A 
ATOM      5  C   UNL     1       2.073   4.666  19.617  0.00  0.00    +0.000 A 
ATOM      6  C   UNL     1       1.139   3.733  19.169  0.00  0.00    +0.000 A 
ATOM      7  N   UNL     1       1.320   2.910  18.111  0.00  0.00    +0.000 NA
ATOM      8  C   UNL     1       2.485   3.037  17.442  0.00  0.00    +0.000 A 
ATOM      9  C   UNL     1       3.494   3.935  17.786  0.00  0.00    +0.000 A 
ATOM     10  C   UNL     1       4.766   3.978  16.972  0.00  0.00    +0.000 C 
ENDROOT
BRANCH   1  11
ATOM     11  S   UNL     1       7.135   5.071  16.446  0.00  0.00    +0.000 S 
ATOM     12  O   UNL     1       7.997   4.188  17.202  0.00  0.00    +0.000 OA
ATOM     13  O   UNL     1       7.528   6.430  16.146  0.00  0.00    +0.000 OA
BRANCH  11  15
ATOM     14  C   UNL     1       7.290   4.925  13.714  0.00  0.00    +0.000 C 
ATOM     15  C   UNL     1       6.677   4.239  14.920  0.00  0.00    +0.000 C 
ENDBRANCH  11  15
ENDBRANCH   1  11
BRANCH   5  16
ATOM     16  C   UNL     1       1.742   5.514  20.817  0.00  0.00    +0.000 C 
BRANCH  16  17
ATOM     17  O   UNL     1       1.739   6.893  20.450  0.00  0.00    +0.000 OA
BRANCH  17  18
ATOM     18  C   UNL     1       0.975   7.680  21.372  0.00  0.00    +0.000 C 
BRANCH  18  19
ATOM     19  C   UNL     1       0.951   9.141  20.890  0.00  0.00    +0.000 C 
BRANCH  19  20
ATOM     20  N   UNL     1       0.781  10.144  21.960  0.00  0.00    +0.000 NA
ATOM     21  C   UNL     1       0.019  11.311  21.511  0.00  0.00    +0.000 C 
ATOM     22  C   UNL     1       0.102   9.533  23.108  0.00  0.00    +0.000 C 
ENDBRANCH  19  20
ENDBRANCH  18  19
ENDBRANCH  17  18
ENDBRANCH  16  17
ENDBRANCH   5  16
TORSDOF 7
ENDMDL
MODEL 2
REMARK VINA RESULT:      -6.8      2.145      4.367
REMARK  Name = 
REMARK  10 active torsions:
REMARK  status: ('A' for Active; 'I' for Inactive)
REMARK    1  A    between atoms: C_1  and  C_2
REMARK    2  A    between atoms: C_2  and  S_3
REMARK    3  A    between atoms: S_3  and  N_6
REMARK    4  A    between atoms: C_10  and  C_11
REMARK    5  A    between atoms: C_11  and  O_12
REMARK    6  A    between atoms: O_12  and  C_13
REMARK    7  A    between atoms: C_13  and  C_14
REMARK    8  A    between atoms: C_14  and  N_15
REMARK    9  A    between atoms: N_15  and  C_16
REMARK   10  A    between atoms: N_15  and  C_17
REMARK                            x       y       z     vdW  Elec       q    Type
REMARK                         _______ _______ _______ _____ _____    ______ ____
ROOT
ATOM      1  N   UNL     1       5.969   5.542  17.785  0.00  0.00    +0.000 NA
ATOM      2  C   UNL     1       5.427   4.204  18.145  0.00  0.00    +0.000 C 
ATOM      3  C   UNL     1       4.693   4.282  19.486  0.00  0.00    +0.000 C 
ATOM      4  C   UNL     1       3.661   5.380  19.524  0.00  0.00    +0.000 A 
ATOM      5  C   UNL     1       2.633   5.393  20.489  0.00  0.00    +0.000 A 
ATOM      6  C   UNL     1       1.725   6.449  20.439  0.00  0.00    +0.000 A 
ATOM      7  N   UNL     1       1.769   7.460  19.542  0.00  0.00    +0.000 NA
ATOM      8  C   UNL     1       2.788   7.438  18.658  0.00  0.00    +0.000 A 
ATOM      9  C   UNL     1       3.762   6.441  18.609  0.00  0.00    +0.000 A 
ATOM     10  C   UNL     1       4.850   6.510  17.562  0.00  0.00    +0.000 C 
ENDROOT
BRANCH   1  11
ATOM     11  S   UNL     1       7.091   5.551  16.494  0.00  0.00    +0.000 S 
ATOM     12  O   UNL     1       7.927   4.380  16.646  0.00  0.00    +0.000 OA
ATOM     13  O   UNL     1       7.661   6.879  16.438  0.00  0.00    +0.000 OA
BRANCH  11  15
ATOM     14  C   UNL     1       6.381   4.023  14.333  0.00  0.00    +0.000 C 
ATOM     15  C   UNL     1       6.029   5.304  15.065  0.00  0.00    +0.000 C 
ENDBRANCH  11  15
ENDBRANCH   1  11
BRANCH   5  16
ATOM     16  C   UNL     1       2.459   4.328  21.538  0.00  0.00    +0.000 C 
BRANCH  16  17
ATOM     17  O   UNL     1       1.284   3.565  21.265  0.00  0.00    +0.000 OA
BRANCH  17  18
ATOM     18  C   UNL     1       1.576   2.430  20.442  0.00  0.00    +0.000 C 
BRANCH  18  19
ATOM     19  C   UNL     1       0.784   2.543  19.127  0.00  0.00    +0.000 C 
BRANCH  19  20
ATOM     20  N   UNL     1       1.588   2.363  17.901  0.00  0.00    +0.000 NA
ATOM     21  C   UNL     1       1.887   3.636  17.242  0.00  0.00    +0.000 C 
ATOM     22  C   UNL     1       2.844   1.679  18.229  0.00  0.00    +0.000 C 
ENDBRANCH  19  20
ENDBRANCH  18  19
ENDBRANCH  17  18
ENDBRANCH  16  17
ENDBRANCH   5  16
TORSDOF 7
ENDMDL
MODEL 3
REMARK VINA RESULT:      -6.7      4.001      6.737
REMARK  Name = 
REMARK  10 active torsions:
REMARK  status: ('A' for Active; 'I' for Inactive)
REMARK    1  A    between atoms: C_1  and  C_2
REMARK    2  A    between atoms: C_2  and  S_3
REMARK    3  A    between atoms: S_3  and  N_6
REMARK    4  A    between atoms: C_10  and  C_11
REMARK    5  A    between atoms: C_11  and  O_12
REMARK    6  A    between atoms: O_12  and  C_13
REMARK    7  A    between atoms: C_13  and  C_14
REMARK    8  A    between atoms: C_14  and  N_15
REMARK    9  A    between atoms: N_15  and  C_16
REMARK   10  A    between atoms: N_15  and  C_17
REMARK                            x       y       z     vdW  Elec       q    Type
REMARK                         _______ _______ _______ _____ _____    ______ ____
ROOT
ATOM      1  N   UNL     1       3.311   3.706  18.584  0.00  0.00    +0.000 NA
ATOM      2  C   UNL     1       3.552   5.066  19.135  0.00  0.00    +0.000 C 
ATOM      3  C   UNL     1       5.047   5.388  19.098  0.00  0.00    +0.000 C 
ATOM      4  C   UNL     1       5.657   5.175  17.736  0.00  0.00    +0.000 A 
ATOM      5  C   UNL     1       6.893   5.752  17.382  0.00  0.00    +0.000 A 
ATOM      6  C   UNL     1       7.371   5.499  16.097  0.00  0.00    +0.000 A 
ATOM      7  N   UNL     1       6.739   4.735  15.177  0.00  0.00    +0.000 NA
ATOM      8  C   UNL     1       5.577   4.166  15.562  0.00  0.00    +0.000 A 
ATOM      9  C   UNL     1       4.999   4.337  16.820  0.00  0.00    +0.000 A 
ATOM     10  C   UNL     1       3.683   3.663  17.135  0.00  0.00    +0.000 C 
ENDROOT
BRANCH   1  11
ATOM     11  S   UNL     1       1.748   3.071  18.863  0.00  0.00    +0.000 S 
ATOM     12  O   UNL     1       1.896   1.649  19.079  0.00  0.00    +0.000 OA
ATOM     13  O   UNL     1       0.890   3.588  17.819  0.00  0.00    +0.000 OA
BRANCH  11  15
ATOM     14  C   UNL     1       1.494   2.875  21.584  0.00  0.00    +0.000 C 
ATOM     15  C   UNL     1       1.300   3.835  20.427  0.00  0.00    +0.000 C 
ENDBRANCH  11  15
ENDBRANCH   1  11
BRANCH   5  16
ATOM     16  C   UNL     1       7.698   6.631  18.302  0.00  0.00    +0.000 C 
BRANCH  16  17
ATOM     17  O   UNL     1       7.867   7.920  17.715  0.00  0.00    +0.000 OA
BRANCH  17  18
ATOM     18  C   UNL     1       8.536   8.819  18.608  0.00  0.00    +0.000 C 
BRANCH  18  19
ATOM     19  C   UNL     1       8.812  10.145  17.878  0.00  0.00    +0.000 C 
BRANCH  19  20
ATOM     20  N   UNL     1       9.125  11.286  18.760  0.00  0.00    +0.000 NA
ATOM     21  C   UNL     1      10.512  11.262  19.228  0.00  0.00    +0.000 C 
ATOM     22  C   UNL     1       8.874  12.545  18.049  0.00  0.00    +0.000 C 
ENDBRANCH  19  20
ENDBRANCH  18  19
ENDBRANCH  17  18
ENDBRANCH  16  17
ENDBRANCH   5  16
TORSDOF 7
ENDMDL
MODEL 4
REMARK VINA RESULT:      -6.7      3.721      6.682
REMARK  Name = 
REMARK  10 active torsions:
REMARK  status: ('A' for Active; 'I' for Inactive)
REMARK    1  A    between atoms: C_1  and  C_2
REMARK    2  A    between atoms: C_2  and  S_3
REMARK    3  A    between atoms: S_3  and  N_6
REMARK    4  A    between atoms: C_10  and  C_11
REMARK    5  A    between atoms: C_11  and  O_12
REMARK    6  A    between atoms: O_12  and  C_13
REMARK    7  A    between atoms: C_13  and  C_14
REMARK    8  A    between atoms: C_14  and  N_15
REMARK    9  A    between atoms: N_15  and  C_16
REMARK   10  A    between atoms: N_15  and  C_17
REMARK                            x       y       z     vdW  Elec       q    Type
REMARK                         _______ _______ _______ _____ _____    ______ ____
ROOT
ATOM      1  N   UNL     1       3.101   4.206  18.895  0.00  0.00    +0.000 NA
ATOM      2  C   UNL     1       3.428   5.636  19.140  0.00  0.00    +0.000 C 
ATOM      3  C   UNL     1       4.939   5.852  19.028  0.00  0.00    +0.000 C 
ATOM      4  C   UNL     1       5.512   5.317  17.740  0.00  0.00    +0.000 A 
ATOM      5  C   UNL     1       6.773   5.730  17.265  0.00  0.00    +0.000 A 
ATOM      6  C   UNL     1       7.213   5.180  16.062  0.00  0.00    +0.000 A 
ATOM      7  N   UNL     1       6.522   4.276  15.331  0.00  0.00    +0.000 NA
ATOM      8  C   UNL     1       5.337   3.873  15.834  0.00  0.00    +0.000 A 
ATOM      9  C   UNL     1       4.791   4.343  17.028  0.00  0.00    +0.000 A 
ATOM     10  C   UNL     1       3.445   3.832  17.487  0.00  0.00    +0.000 C 
ENDROOT
BRANCH   1  11
ATOM     11  S   UNL     1       1.509   3.740  19.310  0.00  0.00    +0.000 S 
ATOM     12  O   UNL     1       0.858   3.309  18.092  0.00  0.00    +0.000 OA
ATOM     13  O   UNL     1       0.956   4.802  20.122  0.00  0.00    +0.000 OA
BRANCH  11  15
ATOM     14  C   UNL     1       2.480   2.671  21.638  0.00  0.00    +0.000 C 
ATOM     15  C   UNL     1       1.791   2.295  20.340  0.00  0.00    +0.000 C 
ENDBRANCH  11  15
ENDBRANCH   1  11
BRANCH   5  16
ATOM     16  C   UNL     1       7.643   6.735  17.971  0.00  0.00    +0.000 C 
BRANCH  16  17
ATOM     17  O   UNL     1       7.944   7.818  17.092  0.00  0.00    +0.000 OA
BRANCH  17  18
ATOM     18  C   UNL     1       7.710   9.084  17.721  0.00  0.00    +0.000 C 
BRANCH  18  19
ATOM     19  C   UNL     1       8.849   9.372  18.716  0.00  0.00    +0.000 C 
BRANCH  19  20
ATOM     20  N   UNL     1       9.127  10.803  18.945  0.00  0.00    +0.000 NA
ATOM     21  C   UNL     1       9.645  11.061  20.289  0.00  0.00    +0.000 C 
ATOM     22  C   UNL     1      10.093  11.285  17.951  0.00  0.00    +0.000 C 
ENDBRANCH  19  20
ENDBRANCH  18  19
ENDBRANCH  17  18
ENDBRANCH  16  17
ENDBRANCH   5  16
TORSDOF 7
ENDMDL
MODEL 5
REMARK VINA RESULT:      -6.6      2.993      7.301
REMARK  Name = 
REMARK  10 active torsions:
REMARK  status: ('A' for Active; 'I' for Inactive)
REMARK    1  A    between atoms: C_1  and  C_2
REMARK    2  A    between atoms: C_2  and  S_3
REMARK    3  A    between atoms: S_3  and  N_6
REMARK    4  A    between atoms: C_10  and  C_11
REMARK    5  A    between atoms: C_11  and  O_12
REMARK    6  A    between atoms: O_12  and  C_13
REMARK    7  A    between atoms: C_13  and  C_14
REMARK    8  A    between atoms: C_14  and  N_15
REMARK    9  A    between atoms: N_15  and  C_16
REMARK   10  A    between atoms: N_15  and  C_17
REMARK                            x       y       z     vdW  Elec       q    Type
REMARK                         _______ _______ _______ _____ _____    ______ ____
ROOT
ATOM      1  N   UNL     1       1.533   8.690  20.141  0.00  0.00    +0.000 NA
ATOM      2  C   UNL     1       1.565   8.561  18.659  0.00  0.00    +0.000 C 
ATOM      3  C   UNL     1       2.728   7.661  18.238  0.00  0.00    +0.000 C 
ATOM      4  C   UNL     1       2.731   6.336  18.957  0.00  0.00    +0.000 A 
ATOM      5  C   UNL     1       3.461   5.233  18.470  0.00  0.00    +0.000 A 
ATOM      6  C   UNL     1       3.397   4.050  19.205  0.00  0.00    +0.000 A 
ATOM      7  N   UNL     1       2.694   3.892  20.350  0.00  0.00    +0.000 NA
ATOM      8  C   UNL     1       2.038   4.979  20.809  0.00  0.00    +0.000 A 
ATOM      9  C   UNL     1       2.030   6.218  20.170  0.00  0.00    +0.000 A 
ATOM     10  C   UNL     1       1.244   7.362  20.768  0.00  0.00    +0.000 C 
ENDROOT
BRANCH   1  11
ATOM     11  S   UNL     1       0.508   9.919  20.744  0.00  0.00    +0.000 S 
ATOM     12  O   UNL     1      -0.464  10.210  19.712  0.00  0.00    +0.000 OA
ATOM     13  O   UNL     1       1.362  10.953  21.286  0.00  0.00    +0.000 OA
BRANCH  11  15
ATOM     14  C   UNL     1      -0.694  10.054  23.202  0.00  0.00    +0.000 C 
ATOM     15  C   UNL     1      -0.336   9.084  22.093  0.00  0.00    +0.000 C 
ENDBRANCH  11  15
ENDBRANCH   1  11
BRANCH   5  16
ATOM     16  C   UNL     1       4.277   5.265  17.205  0.00  0.00    +0.000 C 
BRANCH  16  17
ATOM     17  O   UNL     1       5.245   4.217  17.226  0.00  0.00    +0.000 OA
BRANCH  17  18
ATOM     18  C   UNL     1       6.475   4.627  16.617  0.00  0.00    +0.000 C 
BRANCH  18  19
ATOM     19  C   UNL     1       6.606   6.157  16.722  0.00  0.00    +0.000 C 
BRANCH  19  20
ATOM     20  N   UNL     1       7.756   6.628  17.518  0.00  0.00    +0.000 NA
ATOM     21  C   UNL     1       7.796   8.088  17.625  0.00  0.00    +0.000 C 
ATOM     22  C   UNL     1       7.699   6.044  18.863  0.00  0.00    +0.000 C 
ENDBRANCH  19  20
ENDBRANCH  18  19
ENDBRANCH  17  18
ENDBRANCH  16  17
ENDBRANCH   5  16
TORSDOF 7
ENDMDL
MODEL 6
REMARK VINA RESULT:      -6.5      2.043      4.432
REMARK  Name = 
REMARK  10 active torsions:
REMARK  status: ('A' for Active; 'I' for Inactive)
REMARK    1  A    between atoms: C_1  and  C_2
REMARK    2  A    between atoms: C_2  and  S_3
REMARK    3  A    between atoms: S_3  and  N_6
REMARK    4  A    between atoms: C_10  and  C_11
REMARK    5  A    between atoms: C_11  and  O_12
REMARK    6  A    between atoms: O_12  and  C_13
REMARK    7  A    between atoms: C_13  and  C_14
REMARK    8  A    between atoms: C_14  and  N_15
REMARK    9  A    between atoms: N_15  and  C_16
REMARK   10  A    between atoms: N_15  and  C_17
REMARK                            x       y       z     vdW  Elec       q    Type
REMARK                         _______ _______ _______ _____ _____    ______ ____
ROOT
ATOM      1  N   UNL     1       5.934   5.841  17.594  0.00  0.00    +0.000 NA
ATOM      2  C   UNL     1       5.210   4.634  18.073  0.00  0.00    +0.000 C 
ATOM      3  C   UNL     1       4.364   4.984  19.298  0.00  0.00    +0.000 C 
ATOM      4  C   UNL     1       3.464   6.172  19.067  0.00  0.00    +0.000 A 
ATOM      5  C   UNL     1       2.356   6.431  19.898  0.00  0.00    +0.000 A 
ATOM      6  C   UNL     1       1.583   7.552  19.599  0.00  0.00    +0.000 A 
ATOM      7  N   UNL     1       1.828   8.407  18.580  0.00  0.00    +0.000 NA
ATOM      8  C   UNL     1       2.919   8.151  17.828  0.00  0.00    +0.000 A 
ATOM      9  C   UNL     1       3.774   7.068  18.029  0.00  0.00    +0.000 A 
ATOM     10  C   UNL     1       4.959   6.870  17.112  0.00  0.00    +0.000 C 
ENDROOT
BRANCH   1  11
ATOM     11  S   UNL     1       7.169   5.545  16.449  0.00  0.00    +0.000 S 
ATOM     12  O   UNL     1       7.804   4.299  16.818  0.00  0.00    +0.000 OA
ATOM     13  O   UNL     1       7.931   6.768  16.322  0.00  0.00    +0.000 OA
BRANCH  11  15
ATOM     14  C   UNL     1       6.187   3.803  14.577  0.00  0.00    +0.000 C 
ATOM     15  C   UNL     1       6.233   5.274  14.939  0.00  0.00    +0.000 C 
ENDBRANCH  11  15
ENDBRANCH   1  11
BRANCH   5  16
ATOM     16  C   UNL     1       1.961   5.559  21.060  0.00  0.00    +0.000 C 
BRANCH  16  17
ATOM     17  O   UNL     1       1.048   4.553  20.622  0.00  0.00    +0.000 OA
BRANCH  17  18
ATOM     18  C   UNL     1       1.316   3.293  21.250  0.00  0.00    +0.000 C 
BRANCH  18  19
ATOM     19  C   UNL     1       2.341   2.516  20.405  0.00  0.00    +0.000 C 
BRANCH  19  20
ATOM     20  N   UNL     1       2.081   2.524  18.952  0.00  0.00    +0.000 NA
ATOM     21  C   UNL     1       3.020   1.676  18.215  0.00  0.00    +0.000 C 
ATOM     22  C   UNL     1       0.710   2.071  18.693  0.00  0.00    +0.000 C 
ENDBRANCH  19  20
ENDBRANCH  18  19
ENDBRANCH  17  18
ENDBRANCH  16  17
ENDBRANCH   5  16
TORSDOF 7
ENDMDL
MODEL 7
REMARK VINA RESULT:      -6.5      2.831      7.109
REMARK  Name = 
REMARK  10 active torsions:
REMARK  status: ('A' for Active; 'I' for Inactive)
REMARK    1  A    between atoms: C_1  and  C_2
REMARK    2  A    between atoms: C_2  and  S_3
REMARK    3  A    between atoms: S_3  and  N_6
REMARK    4  A    between atoms: C_10  and  C_11
REMARK    5  A    between atoms: C_11  and  O_12
REMARK    6  A    between atoms: O_12  and  C_13
REMARK    7  A    between atoms: C_13  and  C_14
REMARK    8  A    between atoms: C_14  and  N_15
REMARK    9  A    between atoms: N_15  and  C_16
REMARK   10  A    between atoms: N_15  and  C_17
REMARK                            x       y       z     vdW  Elec       q    Type
REMARK                         _______ _______ _______ _____ _____    ______ ____
ROOT
ATOM      1  N   UNL     1       1.720   8.209  20.329  0.00  0.00    +0.000 NA
ATOM      2  C   UNL     1       1.693   8.405  18.855  0.00  0.00    +0.000 C 
ATOM      3  C   UNL     1       2.891   7.703  18.212  0.00  0.00    +0.000 C 
ATOM      4  C   UNL     1       3.012   6.258  18.625  0.00  0.00    +0.000 A 
ATOM      5  C   UNL     1       3.789   5.342  17.887  0.00  0.00    +0.000 A 
ATOM      6  C   UNL     1       3.835   4.027  18.348  0.00  0.00    +0.000 A 
ATOM      7  N   UNL     1       3.197   3.576  19.452  0.00  0.00    +0.000 NA
ATOM      8  C   UNL     1       2.494   4.488  20.156  0.00  0.00    +0.000 A 
ATOM      9  C   UNL     1       2.377   5.832  19.803  0.00  0.00    +0.000 A 
ATOM     10  C   UNL     1       1.547   6.760  20.661  0.00  0.00    +0.000 C 
ENDROOT
BRANCH   1  11
ATOM     11  S   UNL     1       0.648   9.201  21.217  0.00  0.00    +0.000 S 
ATOM     12  O   UNL     1       1.424   9.852  22.249  0.00  0.00    +0.000 OA
ATOM     13  O   UNL     1      -0.507   8.392  21.541  0.00  0.00    +0.000 OA
BRANCH  11  15
ATOM     14  C   UNL     1       0.893  11.753  20.249  0.00  0.00    +0.000 C 
ATOM     15  C   UNL     1       0.178  10.439  20.000  0.00  0.00    +0.000 C 
ENDBRANCH  11  15
ENDBRANCH   1  11
BRANCH   5  16
ATOM     16  C   UNL     1       4.542   5.705  16.634  0.00  0.00    +0.000 C 
BRANCH  16  17
ATOM     17  O   UNL     1       5.374   4.616  16.237  0.00  0.00    +0.000 OA
BRANCH  17  18
ATOM     18  C   UNL     1       6.745   5.017  16.124  0.00  0.00    +0.000 C 
BRANCH  18  19
ATOM     19  C   UNL     1       7.504   4.584  17.391  0.00  0.00    +0.000 C 
BRANCH  19  20
ATOM     20  N   UNL     1       7.821   5.678  18.329  0.00  0.00    +0.000 NA
ATOM     21  C   UNL     1       7.646   6.999  17.722  0.00  0.00    +0.000 C 
ATOM     22  C   UNL     1       6.968   5.573  19.519  0.00  0.00    +0.000 C 
ENDBRANCH  19  20
ENDBRANCH  18  19
ENDBRANCH  17  18
ENDBRANCH  16  17
ENDBRANCH   5  16
TORSDOF 7
ENDMDL
MODEL 8
REMARK VINA RESULT:      -6.4      1.381      1.566
REMARK  Name = 
REMARK  10 active torsions:
REMARK  status: ('A' for Active; 'I' for Inactive)
REMARK    1  A    between atoms: C_1  and  C_2
REMARK    2  A    between atoms: C_2  and  S_3
REMARK    3  A    between atoms: S_3  and  N_6
REMARK    4  A    between atoms: C_10  and  C_11
REMARK    5  A    between atoms: C_11  and  O_12
REMARK    6  A    between atoms: O_12  and  C_13
REMARK    7  A    between atoms: C_13  and  C_14
REMARK    8  A    between atoms: C_14  and  N_15
REMARK    9  A    between atoms: N_15  and  C_16
REMARK   10  A    between atoms: N_15  and  C_17
REMARK                            x       y       z     vdW  Elec       q    Type
REMARK                         _______ _______ _______ _____ _____    ______ ____
ROOT
ATOM      1  N   UNL     1       5.746   5.305  17.146  0.00  0.00    +0.000 NA
ATOM      2  C   UNL     1       5.661   6.681  17.704  0.00  0.00    +0.000 C 
ATOM      3  C   UNL     1       4.220   6.991  18.113  0.00  0.00    +0.000 C 
ATOM      4  C   UNL     1       3.630   5.938  19.016  0.00  0.00    +0.000 A 
ATOM      5  C   UNL     1       2.486   6.194  19.800  0.00  0.00    +0.000 A 
ATOM      6  C   UNL     1       2.019   5.156  20.605  0.00  0.00    +0.000 A 
ATOM      7  N   UNL     1       2.578   3.927  20.678  0.00  0.00    +0.000 NA
ATOM      8  C   UNL     1       3.647   3.703  19.885  0.00  0.00    +0.000 A 
ATOM      9  C   UNL     1       4.204   4.656  19.033  0.00  0.00    +0.000 A 
ATOM     10  C   UNL     1       5.416   4.298  18.202  0.00  0.00    +0.000 C 
ENDROOT
BRANCH   1  11
ATOM     11  S   UNL     1       7.209   4.933  16.342  0.00  0.00    +0.000 S 
ATOM     12  O   UNL     1       7.995   4.116  17.241  0.00  0.00    +0.000 OA
ATOM     13  O   UNL     1       7.726   6.175  15.808  0.00  0.00    +0.000 OA
BRANCH  11  15
ATOM     14  C   UNL     1       5.343   4.412  14.405  0.00  0.00    +0.000 C 
ATOM     15  C   UNL     1       6.646   3.897  14.985  0.00  0.00    +0.000 C 
ENDBRANCH  11  15
ENDBRANCH   1  11
BRANCH   5  16
ATOM     16  C   UNL     1       1.770   7.518  19.825  0.00  0.00    +0.000 C 
BRANCH  16  17
ATOM     17  O   UNL     1       1.104   7.686  21.075  0.00  0.00    +0.000 OA
BRANCH  17  18
ATOM     18  C   UNL     1       1.553   8.865  21.754  0.00  0.00    +0.000 C 
BRANCH  18  19
ATOM     19  C   UNL     1       0.788  10.084  21.209  0.00  0.00    +0.000 C 
BRANCH  19  20
ATOM     20  N   UNL     1       0.202  10.961  22.241  0.00  0.00    +0.000 NA
ATOM     21  C   UNL     1      -0.489  12.115  21.662  0.00  0.00    +0.000 C 
ATOM     22  C   UNL     1      -0.739  10.195  23.066  0.00  0.00    +0.000 C 
ENDBRANCH  19  20
ENDBRANCH  18  19
ENDBRANCH  17  18
ENDBRANCH  16  17
ENDBRANCH   5  16
TORSDOF 7
ENDMDL
MODEL 9
REMARK VINA RESULT:      -6.4      1.634      2.010
REMARK  Name = 
REMARK  10 active torsions:
REMARK  status: ('A' for Active; 'I' for Inactive)
REMARK    1  A    between atoms: C_1  and  C_2
REMARK    2  A    between atoms: C_2  and  S_3
REMARK    3  A    between atoms: S_3  and  N_6
REMARK    4  A    between atoms: C_10  and  C_11
REMARK    5  A    between atoms: C_11  and  O_12
REMARK    6  A    between atoms: O_12  and  C_13
REMARK    7  A    between atoms: C_13  and  C_14
REMARK    8  A    between atoms: C_14  and  N_15
REMARK    9  A    between atoms: N_15  and  C_16
REMARK   10  A    between atoms: N_15  and  C_17
REMARK                            x       y       z     vdW  Elec       q    Type
REMARK                         _______ _______ _______ _____ _____    ______ ____
ROOT
ATOM      1  N   UNL     1       5.550   5.260  16.904  0.00  0.00    +0.000 NA
ATOM      2  C   UNL     1       5.580   6.655  17.420  0.00  0.00    +0.000 C 
ATOM      3  C   UNL     1       4.184   7.068  17.890  0.00  0.00    +0.000 C 
ATOM      4  C   UNL     1       3.577   6.082  18.856  0.00  0.00    +0.000 A 
ATOM      5  C   UNL     1       2.494   6.434  19.686  0.00  0.00    +0.000 A 
ATOM      6  C   UNL     1       2.006   5.453  20.548  0.00  0.00    +0.000 A 
ATOM      7  N   UNL     1       2.490   4.194  20.633  0.00  0.00    +0.000 NA
ATOM      8  C   UNL     1       3.501   3.879  19.797  0.00  0.00    +0.000 A 
ATOM      9  C   UNL     1       4.071   4.767  18.886  0.00  0.00    +0.000 A 
ATOM     10  C   UNL     1       5.213   4.308  18.009  0.00  0.00    +0.000 C 
ENDROOT
BRANCH   1  11
ATOM     11  S   UNL     1       6.944   4.772  16.041  0.00  0.00    +0.000 S 
ATOM     12  O   UNL     1       7.843   4.159  16.995  0.00  0.00    +0.000 OA
ATOM     13  O   UNL     1       7.357   5.898  15.233  0.00  0.00    +0.000 OA
BRANCH  11  15
ATOM     14  C   UNL     1       6.285   3.927  13.520  0.00  0.00    +0.000 C 
ATOM     15  C   UNL     1       6.296   3.483  14.970  0.00  0.00    +0.000 C 
ENDBRANCH  11  15
ENDBRANCH   1  11
BRANCH   5  16
ATOM     16  C   UNL     1       1.863   7.802  19.702  0.00  0.00    +0.000 C 
BRANCH  16  17
ATOM     17  O   UNL     1       1.412   8.112  21.020  0.00  0.00    +0.000 OA
BRANCH  17  18
ATOM     18  C   UNL     1       0.294   9.008  20.994  0.00  0.00    +0.000 C 
BRANCH  18  19
ATOM     19  C   UNL     1       0.779  10.409  20.582  0.00  0.00    +0.000 C 
BRANCH  19  20
ATOM     20  N   UNL     1      -0.201  11.205  19.817  0.00  0.00    +0.000 NA
ATOM     21  C   UNL     1       0.419  12.343  19.136  0.00  0.00    +0.000 C 
ATOM     22  C   UNL     1      -0.869  10.351  18.828  0.00  0.00    +0.000 C 
ENDBRANCH  19  20
ENDBRANCH  18  19
ENDBRANCH  17  18
ENDBRANCH  16  17
ENDBRANCH   5  16
TORSDOF 7
ENDMDL
