MODEL 1
REMARK VINA RESULT:      -6.6      0.000      0.000
REMARK  Name = 
REMARK  8 active torsions:
REMARK  status: ('A' for Active; 'I' for Inactive)
REMARK    1  A    between atoms: C_1  and  O_2
REMARK    2  A    between atoms: O_2  and  C_3
REMARK    3  A    between atoms: C_3  and  C_4
REMARK    4  A    between atoms: C_7  and  C_8
REMARK    5  A    between atoms: C_9  and  O_10
REMARK    6  A    between atoms: C_11  and  O_12
REMARK    7  A    between atoms: C_13  and  C_14
REMARK    8  A    between atoms: N_15  and  C_16
REMARK                            x       y       z     vdW  Elec       q    Type
REMARK                         _______ _______ _______ _____ _____    ______ ____
ROOT
ATOM      1  C   UNL     1       5.202   6.323  17.615  0.00  0.00    +0.000 C 
ATOM      2  C   UNL     1       5.687   5.848  16.221  0.00  0.00    +0.000 C 
ATOM      3  C   UNL     1       7.216   5.965  16.262  0.00  0.00    +0.000 C 
ATOM      4  C   UNL     1       7.553   6.580  17.630  0.00  0.00    +0.000 C 
ATOM      5  C   UNL     1       7.795   8.088  17.510  0.00  0.00    +0.000 C 
ATOM      6  N   UNL     1       6.386   6.346  18.512  0.00  0.00    +0.000 NA
ATOM      7  C   UNL     1       6.565   5.144  19.325  0.00  0.00    +0.000 C 
ENDROOT
BRANCH   1  11
ATOM      8  C   UNL     1       1.705   4.262  19.209  0.00  0.00    +0.000 A 
ATOM      9  C   UNL     1       2.101   5.491  19.749  0.00  0.00    +0.000 A 
ATOM     10  C   UNL     1       3.198   6.182  19.225  0.00  0.00    +0.000 A 
ATOM     11  C   UNL     1       3.943   5.656  18.159  0.00  0.00    +0.000 A 
ATOM     12  C   UNL     1       3.504   4.452  17.584  0.00  0.00    +0.000 A 
ATOM     13  C   UNL     1       2.406   3.762  18.106  0.00  0.00    +0.000 A 
BRANCH   8  14
ATOM     14  C   UNL     1       0.585   3.476  19.838  0.00  0.00    +0.000 C 
BRANCH  14  16
ATOM     15  C   UNL     1       1.667   2.605  21.732  0.00  0.00    +0.000 C 
ATOM     16  O   UNL     1       1.102   2.304  20.463  0.00  0.00    +0.000 OA
ENDBRANCH  14  16
ENDBRANCH   8  14
ENDBRANCH   1  11
BRANCH   2  17
ATOM     17  O   UNL     1       5.144   6.656  15.167  0.00  0.00    +0.000 OA
ATOM     18  H   UNL     1       5.291   7.592  15.390  0.00  0.00    +0.000 HD
ENDBRANCH   2  17
BRANCH   3  19
ATOM     19  O   UNL     1       7.826   4.674  16.130  0.00  0.00    +0.000 OA
ATOM     20  H   UNL     1       8.459   4.709  15.394  0.00  0.00    +0.000 HD
ENDBRANCH   3  19
TORSDOF 5
ENDMDL
MODEL 2
REMARK VINA RESULT:      -6.6      2.115      6.404
REMARK  Name = 
REMARK  8 active torsions:
REMARK  status: ('A' for Active; 'I' for Inactive)
REMARK    1  A    between atoms: C_1  and  O_2
REMARK    2  A    between atoms: O_2  and  C_3
REMARK    3  A    between atoms: C_3  and  C_4
REMARK    4  A    between atoms: C_7  and  C_8
REMARK    5  A    between atoms: C_9  and  O_10
REMARK    6  A    between atoms: C_11  and  O_12
REMARK    7  A    between atoms: C_13  and  C_14
REMARK    8  A    between atoms: N_15  and  C_16
REMARK                            x       y       z     vdW  Elec       q    Type
REMARK                         _______ _______ _______ _____ _____    ______ ____
ROOT
ATOM      1  C   UNL     1       2.994   4.420  19.169  0.00  0.00    +0.000 C 
ATOM      2  C   UNL     1       2.664   4.586  20.676  0.00  0.00    +0.000 C 
ATOM      3  C   UNL     1       1.928   3.300  21.074  0.00  0.00    +0.000 C 
ATOM      4  C   UNL     1       1.782   2.483  19.780  0.00  0.00    +0.000 C 
ATOM      5  C   UNL     1       0.389   2.669  19.168  0.00  0.00    +0.000 C 
ATOM      6  N   UNL     1       2.800   2.987  18.829  0.00  0.00    +0.000 NA
ATOM      7  C   UNL     1       4.014   2.175  18.869  0.00  0.00    +0.000 C 
ENDROOT
BRANCH   1  11
ATOM      8  C   UNL     1       6.594   6.449  17.778  0.00  0.00    +0.000 A 
ATOM      9  C   UNL     1       6.630   5.681  18.947  0.00  0.00    +0.000 A 
ATOM     10  C   UNL     1       5.493   4.994  19.387  0.00  0.00    +0.000 A 
ATOM     11  C   UNL     1       4.283   5.071  18.682  0.00  0.00    +0.000 A 
ATOM     12  C   UNL     1       4.271   5.795  17.477  0.00  0.00    +0.000 A 
ATOM     13  C   UNL     1       5.408   6.480  17.036  0.00  0.00    +0.000 A 
BRANCH   8  14
ATOM     14  C   UNL     1       7.791   7.263  17.362  0.00  0.00    +0.000 C 
BRANCH  14  16
ATOM     15  C   UNL     1       8.410   9.385  18.154  0.00  0.00    +0.000 C 
ATOM     16  O   UNL     1       7.468   8.651  17.382  0.00  0.00    +0.000 OA
ENDBRANCH  14  16
ENDBRANCH   8  14
ENDBRANCH   1  11
BRANCH   2  17
ATOM     17  O   UNL     1       1.841   5.736  20.914  0.00  0.00    +0.000 OA
ATOM     18  H   UNL     1       1.651   6.162  20.059  0.00  0.00    +0.000 HD
ENDBRANCH   2  17
BRANCH   3  19
ATOM     19  O   UNL     1       2.684   2.565  22.047  0.00  0.00    +0.000 OA
ATOM     20  H   UNL     1       2.072   2.243  22.728  0.00  0.00    +0.000 HD
ENDBRANCH   3  19
TORSDOF 5
ENDMDL
MODEL 3
REMARK VINA RESULT:      -6.5      2.265      6.258
REMARK  Name = 
REMARK  8 active torsions:
REMARK  status: ('A' for Active; 'I' for Inactive)
REMARK    1  A    between atoms: C_1  and  O_2
REMARK    2  A    between atoms: O_2  and  C_3
REMARK    3  A    between atoms: C_3  and  C_4
REMARK    4  A    between atoms: C_7  and  C_8
REMARK    5  A    between atoms: C_9  and  O_10
REMARK    6  A    between atoms: C_11  and  O_12
REMARK    7  A    between atoms: C_13  and  C_14
REMARK    8  A    between atoms: N_15  and  C_16
REMARK                            x       y       z     vdW  Elec       q    Type
REMARK                         _______ _______ _______ _____ _____    ______ ____
ROOT
ATOM      1  C   UNL     1       4.164   4.122  19.052  0.00  0.00    +0.000 C 
ATOM      2  C   UNL     1       3.466   3.305  17.933  0.00  0.00    +0.000 C 
ATOM      3  C   UNL     1       2.025   3.100  18.420  0.00  0.00    +0.000 C 
ATOM      4  C   UNL     1       1.964   3.722  19.825  0.00  0.00    +0.000 C 
ATOM      5  C   UNL     1       2.107   2.647  20.908  0.00  0.00    +0.000 C 
ATOM      6  N   UNL     1       3.098   4.669  19.931  0.00  0.00    +0.000 NA
ATOM      7  C   UNL     1       2.683   6.035  19.618  0.00  0.00    +0.000 C 
ENDROOT
BRANCH   1  11
ATOM      8  C   UNL     1       7.147   7.046  17.802  0.00  0.00    +0.000 A 
ATOM      9  C   UNL     1       7.427   6.166  18.853  0.00  0.00    +0.000 A 
ATOM     10  C   UNL     1       6.494   5.198  19.242  0.00  0.00    +0.000 A 
ATOM     11  C   UNL     1       5.249   5.095  18.605  0.00  0.00    +0.000 A 
ATOM     12  C   UNL     1       5.000   5.942  17.512  0.00  0.00    +0.000 A 
ATOM     13  C   UNL     1       5.932   6.908  17.121  0.00  0.00    +0.000 A 
BRANCH   8  14
ATOM     14  C   UNL     1       8.112   8.148  17.451  0.00  0.00    +0.000 C 
BRANCH  14  16
ATOM     15  C   UNL     1       8.895  10.145  18.406  0.00  0.00    +0.000 C 
ATOM     16  O   UNL     1       8.588   8.777  18.639  0.00  0.00    +0.000 OA
ENDBRANCH  14  16
ENDBRANCH   8  14
ENDBRANCH   1  11
BRANCH   2  17
ATOM     17  O   UNL     1       4.113   2.043  17.718  0.00  0.00    +0.000 OA
ATOM     18  H   UNL     1       4.694   2.123  16.941  0.00  0.00    +0.000 HD
ENDBRANCH   2  17
BRANCH   3  19
ATOM     19  O   UNL     1       1.098   3.754  17.543  0.00  0.00    +0.000 OA
ATOM     20  H   UNL     1       1.525   3.869  16.679  0.00  0.00    +0.000 HD
ENDBRANCH   3  19
TORSDOF 5
ENDMDL
MODEL 4
REMARK VINA RESULT:      -6.4      1.971      6.285
REMARK  Name = 
REMARK  8 active torsions:
REMARK  status: ('A' for Active; 'I' for Inactive)
REMARK    1  A    between atoms: C_1  and  O_2
REMARK    2  A    between atoms: O_2  and  C_3
REMARK    3  A    between atoms: C_3  and  C_4
REMARK    4  A    between atoms: C_7  and  C_8
REMARK    5  A    between atoms: C_9  and  O_10
REMARK    6  A    between atoms: C_11  and  O_12
REMARK    7  A    between atoms: C_13  and  C_14
REMARK    8  A    between atoms: N_15  and  C_16
REMARK                            x       y       z     vdW  Elec       q    Type
REMARK                         _______ _______ _______ _____ _____    ______ ____
ROOT
ATOM      1  C   UNL     1       3.567   3.521  19.447  0.00  0.00    +0.000 C 
ATOM      2  C   UNL     1       2.765   2.573  18.517  0.00  0.00    +0.000 C 
ATOM      3  C   UNL     1       1.350   2.528  19.108  0.00  0.00    +0.000 C 
ATOM      4  C   UNL     1       1.404   3.369  20.393  0.00  0.00    +0.000 C 
ATOM      5  C   UNL     1       1.566   2.477  21.628  0.00  0.00    +0.000 C 
ATOM      6  N   UNL     1       2.584   4.259  20.282  0.00  0.00    +0.000 NA
ATOM      7  C   UNL     1       2.211   5.577  19.772  0.00  0.00    +0.000 C 
ENDROOT
BRANCH   1  11
ATOM      8  C   UNL     1       6.575   6.019  17.517  0.00  0.00    +0.000 A 
ATOM      9  C   UNL     1       6.726   5.651  18.858  0.00  0.00    +0.000 A 
ATOM     10  C   UNL     1       5.789   4.821  19.482  0.00  0.00    +0.000 A 
ATOM     11  C   UNL     1       4.665   4.349  18.788  0.00  0.00    +0.000 A 
ATOM     12  C   UNL     1       4.552   4.673  17.425  0.00  0.00    +0.000 A 
ATOM     13  C   UNL     1       5.490   5.502  16.801  0.00  0.00    +0.000 A 
BRANCH   8  14
ATOM     14  C   UNL     1       7.533   6.990  16.879  0.00  0.00    +0.000 C 
BRANCH  14  16
ATOM     15  C   UNL     1       8.221   8.946  17.982  0.00  0.00    +0.000 C 
ATOM     16  O   UNL     1       7.183   8.326  17.234  0.00  0.00    +0.000 OA
ENDBRANCH  14  16
ENDBRANCH   8  14
ENDBRANCH   1  11
BRANCH   2  17
ATOM     17  O   UNL     1       3.341   1.260  18.476  0.00  0.00    +0.000 OA
ATOM     18  H   UNL     1       3.504   1.024  17.546  0.00  0.00    +0.000 HD
ENDBRANCH   2  17
BRANCH   3  19
ATOM     19  O   UNL     1       0.399   3.081  18.188  0.00  0.00    +0.000 OA
ATOM     20  H   UNL     1      -0.490   2.965  18.561  0.00  0.00    +0.000 HD
ENDBRANCH   3  19
TORSDOF 5
ENDMDL
MODEL 5
REMARK VINA RESULT:      -6.3      3.099      4.348
REMARK  Name = 
REMARK  8 active torsions:
REMARK  status: ('A' for Active; 'I' for Inactive)
REMARK    1  A    between atoms: C_1  and  O_2
REMARK    2  A    between atoms: O_2  and  C_3
REMARK    3  A    between atoms: C_3  and  C_4
REMARK    4  A    between atoms: C_7  and  C_8
REMARK    5  A    between atoms: C_9  and  O_10
REMARK    6  A    between atoms: C_11  and  O_12
REMARK    7  A    between atoms: C_13  and  C_14
REMARK    8  A    between atoms: N_15  and  C_16
REMARK                            x       y       z     vdW  Elec       q    Type
REMARK                         _______ _______ _______ _____ _____    ______ ____
ROOT
ATOM      1  C   UNL     1       3.275   5.429  17.751  0.00  0.00    +0.000 C 
ATOM      2  C   UNL     1       2.801   3.972  17.989  0.00  0.00    +0.000 C 
ATOM      3  C   UNL     1       4.019   3.093  17.675  0.00  0.00    +0.000 C 
ATOM      4  C   UNL     1       5.116   4.053  17.188  0.00  0.00    +0.000 C 
ATOM      5  C   UNL     1       5.183   4.078  15.657  0.00  0.00    +0.000 C 
ATOM      6  N   UNL     1       4.760   5.406  17.677  0.00  0.00    +0.000 NA
ATOM      7  C   UNL     1       5.443   5.715  18.932  0.00  0.00    +0.000 C 
ENDROOT
BRANCH   1  11
ATOM      8  C   UNL     1       1.351   8.509  20.164  0.00  0.00    +0.000 A 
ATOM      9  C   UNL     1       1.599   7.245  20.709  0.00  0.00    +0.000 A 
ATOM     10  C   UNL     1       2.247   6.258  19.960  0.00  0.00    +0.000 A 
ATOM     11  C   UNL     1       2.651   6.500  18.639  0.00  0.00    +0.000 A 
ATOM     12  C   UNL     1       2.453   7.790  18.119  0.00  0.00    +0.000 A 
ATOM     13  C   UNL     1       1.806   8.778  18.868  0.00  0.00    +0.000 A 
BRANCH   8  14
ATOM     14  C   UNL     1       0.566   9.535  20.939  0.00  0.00    +0.000 C 
BRANCH  14  16
ATOM     15  C   UNL     1      -0.298   9.642  23.120  0.00  0.00    +0.000 C 
ATOM     16  O   UNL     1      -0.251   8.891  21.914  0.00  0.00    +0.000 OA
ENDBRANCH  14  16
ENDBRANCH   8  14
ENDBRANCH   1  11
BRANCH   2  17
ATOM     17  O   UNL     1       1.696   3.629  17.141  0.00  0.00    +0.000 OA
ATOM     18  H   UNL     1       1.700   4.227  16.374  0.00  0.00    +0.000 HD
ENDBRANCH   2  17
BRANCH   3  19
ATOM     19  O   UNL     1       4.454   2.393  18.850  0.00  0.00    +0.000 OA
ATOM     20  H   UNL     1       4.269   2.951  19.622  0.00  0.00    +0.000 HD
ENDBRANCH   3  19
TORSDOF 5
ENDMDL
MODEL 6
REMARK VINA RESULT:      -6.3      0.993      1.045
REMARK  Name = 
REMARK  8 active torsions:
REMARK  status: ('A' for Active; 'I' for Inactive)
REMARK    1  A    between atoms: C_1  and  O_2
REMARK    2  A    between atoms: O_2  and  C_3
REMARK    3  A    between atoms: C_3  and  C_4
REMARK    4  A    between atoms: C_7  and  C_8
REMARK    5  A    between atoms: C_9  and  O_10
REMARK    6  A    between atoms: C_11  and  O_12
REMARK    7  A    between atoms: C_13  and  C_14
REMARK    8  A    between atoms: N_15  and  C_16
REMARK                            x       y       z     vdW  Elec       q    Type
REMARK                         _______ _______ _______ _____ _____    ______ ____
ROOT
ATOM      1  C   UNL     1       5.171   5.594  17.130  0.00  0.00    +0.000 C 
ATOM      2  C   UNL     1       6.096   4.874  16.115  0.00  0.00    +0.000 C 
ATOM      3  C   UNL     1       7.522   5.289  16.501  0.00  0.00    +0.000 C 
ATOM      4  C   UNL     1       7.370   6.291  17.656  0.00  0.00    +0.000 C 
ATOM      5  C   UNL     1       7.467   7.734  17.148  0.00  0.00    +0.000 C 
ATOM      6  N   UNL     1       6.027   6.076  18.245  0.00  0.00    +0.000 NA
ATOM      7  C   UNL     1       6.090   5.185  19.402  0.00  0.00    +0.000 C 
ENDROOT
BRANCH   1  11
ATOM      8  C   UNL     1       1.609   3.396  18.353  0.00  0.00    +0.000 A 
ATOM      9  C   UNL     1       1.661   4.786  18.505  0.00  0.00    +0.000 A 
ATOM     10  C   UNL     1       2.782   5.510  18.085  0.00  0.00    +0.000 A 
ATOM     11  C   UNL     1       3.890   4.863  17.517  0.00  0.00    +0.000 A 
ATOM     12  C   UNL     1       3.806   3.476  17.313  0.00  0.00    +0.000 A 
ATOM     13  C   UNL     1       2.685   2.752  17.731  0.00  0.00    +0.000 A 
BRANCH   8  14
ATOM     14  C   UNL     1       0.444   2.611  18.895  0.00  0.00    +0.000 C 
BRANCH  14  16
ATOM     15  C   UNL     1       1.325   2.593  21.072  0.00  0.00    +0.000 C 
ATOM     16  O   UNL     1       0.216   2.955  20.260  0.00  0.00    +0.000 OA
ENDBRANCH  14  16
ENDBRANCH   8  14
ENDBRANCH   1  11
BRANCH   2  17
ATOM     17  O   UNL     1       5.803   5.261  14.765  0.00  0.00    +0.000 OA
ATOM     18  H   UNL     1       6.440   4.823  14.173  0.00  0.00    +0.000 HD
ENDBRANCH   2  17
BRANCH   3  19
ATOM     19  O   UNL     1       8.283   4.149  16.924  0.00  0.00    +0.000 OA
ATOM     20  H   UNL     1       9.218   4.314  16.719  0.00  0.00    +0.000 HD
ENDBRANCH   3  19
TORSDOF 5
ENDMDL
MODEL 7
REMARK VINA RESULT:      -6.3      2.085      6.576
REMARK  Name = 
REMARK  8 active torsions:
REMARK  status: ('A' for Active; 'I' for Inactive)
REMARK    1  A    between atoms: C_1  and  O_2
REMARK    2  A    between atoms: O_2  and  C_3
REMARK    3  A    between atoms: C_3  and  C_4
REMARK    4  A    between atoms: C_7  and  C_8
REMARK    5  A    between atoms: C_9  and  O_10
REMARK    6  A    between atoms: C_11  and  O_12
REMARK    7  A    between atoms: C_13  and  C_14
REMARK    8  A    between atoms: N_15  and  C_16
REMARK                            x       y       z     vdW  Elec       q    Type
REMARK                         _______ _______ _______ _____ _____    ______ ____
ROOT
ATOM      1  C   UNL     1       3.559   3.236  19.030  0.00  0.00    +0.000 C 
ATOM      2  C   UNL     1       2.641   2.085  18.541  0.00  0.00    +0.000 C 
ATOM      3  C   UNL     1       1.330   2.253  19.321  0.00  0.00    +0.000 C 
ATOM      4  C   UNL     1       1.563   3.427  20.285  0.00  0.00    +0.000 C 
ATOM      5  C   UNL     1       1.920   2.923  21.688  0.00  0.00    +0.000 C 
ATOM      6  N   UNL     1       2.700   4.212  19.750  0.00  0.00    +0.000 NA
ATOM      7  C   UNL     1       2.237   5.337  18.941  0.00  0.00    +0.000 C 
ENDROOT
BRANCH   1  11
ATOM      8  C   UNL     1       6.479   4.751  16.167  0.00  0.00    +0.000 A 
ATOM      9  C   UNL     1       5.265   4.222  15.716  0.00  0.00    +0.000 A 
ATOM     10  C   UNL     1       4.303   3.765  16.623  0.00  0.00    +0.000 A 
ATOM     11  C   UNL     1       4.534   3.807  18.006  0.00  0.00    +0.000 A 
ATOM     12  C   UNL     1       5.730   4.393  18.453  0.00  0.00    +0.000 A 
ATOM     13  C   UNL     1       6.691   4.852  17.547  0.00  0.00    +0.000 A 
BRANCH   8  14
ATOM     14  C   UNL     1       7.550   5.150  15.187  0.00  0.00    +0.000 C 
BRANCH  14  16
ATOM     15  C   UNL     1       8.002   5.333  12.890  0.00  0.00    +0.000 C 
ATOM     16  O   UNL     1       6.988   5.304  13.886  0.00  0.00    +0.000 OA
ENDBRANCH  14  16
ENDBRANCH   8  14
ENDBRANCH   1  11
BRANCH   2  17
ATOM     17  O   UNL     1       3.223   0.799  18.798  0.00  0.00    +0.000 OA
ATOM     18  H   UNL     1       2.520   0.197  19.100  0.00  0.00    +0.000 HD
ENDBRANCH   2  17
BRANCH   3  19
ATOM     19  O   UNL     1       0.246   2.546  18.430  0.00  0.00    +0.000 OA
ATOM     20  H   UNL     1      -0.352   3.171  18.872  0.00  0.00    +0.000 HD
ENDBRANCH   3  19
TORSDOF 5
ENDMDL
MODEL 8
REMARK VINA RESULT:      -6.3      2.061      6.404
REMARK  Name = 
REMARK  8 active torsions:
REMARK  status: ('A' for Active; 'I' for Inactive)
REMARK    1  A    between atoms: C_1  and  O_2
REMARK    2  A    between atoms: O_2  and  C_3
REMARK    3  A    between atoms: C_3  and  C_4
REMARK    4  A    between atoms: C_7  and  C_8
REMARK    5  A    between atoms: C_9  and  O_10
REMARK    6  A    between atoms: C_11  and  O_12
REMARK    7  A    between atoms: C_13  and  C_14
REMARK    8  A    between atoms: N_15  and  C_16
REMARK                            x       y       z     vdW  Elec       q    Type
REMARK                         _______ _______ _______ _____ _____    ______ ____
ROOT
ATOM      1  C   UNL     1       2.861   4.500  19.200  0.00  0.00    +0.000 C 
ATOM      2  C   UNL     1       2.580   4.577  20.724  0.00  0.00    +0.000 C 
ATOM      3  C   UNL     1       1.939   3.231  21.086  0.00  0.00    +0.000 C 
ATOM      4  C   UNL     1       1.792   2.465  19.761  0.00  0.00    +0.000 C 
ATOM      5  C   UNL     1       0.368   2.592  19.208  0.00  0.00    +0.000 C 
ATOM      6  N   UNL     1       2.741   3.074  18.799  0.00  0.00    +0.000 NA
ATOM      7  C   UNL     1       4.002   2.338  18.757  0.00  0.00    +0.000 C 
ENDROOT
BRANCH   1  11
ATOM      8  C   UNL     1       6.464   6.483  17.751  0.00  0.00    +0.000 A 
ATOM      9  C   UNL     1       5.252   6.646  17.070  0.00  0.00    +0.000 A 
ATOM     10  C   UNL     1       4.080   6.046  17.542  0.00  0.00    +0.000 A 
ATOM     11  C   UNL     1       4.089   5.251  18.698  0.00  0.00    +0.000 A 
ATOM     12  C   UNL     1       5.296   5.141  19.409  0.00  0.00    +0.000 A 
ATOM     13  C   UNL     1       6.467   5.743  18.939  0.00  0.00    +0.000 A 
BRANCH   8  14
ATOM     14  C   UNL     1       7.739   7.049  17.186  0.00  0.00    +0.000 C 
BRANCH  14  16
ATOM     15  C   UNL     1       8.367   9.079  18.186  0.00  0.00    +0.000 C 
ATOM     16  O   UNL     1       7.655   8.471  17.117  0.00  0.00    +0.000 OA
ENDBRANCH  14  16
ENDBRANCH   8  14
ENDBRANCH   1  11
BRANCH   2  17
ATOM     17  O   UNL     1       1.698   5.662  21.045  0.00  0.00    +0.000 OA
ATOM     18  H   UNL     1       2.230   6.399  21.393  0.00  0.00    +0.000 HD
ENDBRANCH   2  17
BRANCH   3  19
ATOM     19  O   UNL     1       2.775   2.501  21.995  0.00  0.00    +0.000 OA
ATOM     20  H   UNL     1       2.323   2.454  22.854  0.00  0.00    +0.000 HD
ENDBRANCH   3  19
TORSDOF 5
ENDMDL
MODEL 9
REMARK VINA RESULT:      -6.3      1.933      6.401
REMARK  Name = 
REMARK  8 active torsions:
REMARK  status: ('A' for Active; 'I' for Inactive)
REMARK    1  A    between atoms: C_1  and  O_2
REMARK    2  A    between atoms: O_2  and  C_3
REMARK    3  A    between atoms: C_3  and  C_4
REMARK    4  A    between atoms: C_7  and  C_8
REMARK    5  A    between atoms: C_9  and  O_10
REMARK    6  A    between atoms: C_11  and  O_12
REMARK    7  A    between atoms: C_13  and  C_14
REMARK    8  A    between atoms: N_15  and  C_16
REMARK                            x       y       z     vdW  Elec       q    Type
REMARK                         _______ _______ _______ _____ _____    ______ ____
ROOT
ATOM      1  C   UNL     1       3.347   3.451  19.512  0.00  0.00    +0.000 C 
ATOM      2  C   UNL     1       2.568   2.446  18.624  0.00  0.00    +0.000 C 
ATOM      3  C   UNL     1       1.195   2.294  19.293  0.00  0.00    +0.000 C 
ATOM      4  C   UNL     1       1.258   3.138  20.576  0.00  0.00    +0.000 C 
ATOM      5  C   UNL     1       1.555   2.260  21.796  0.00  0.00    +0.000 C 
ATOM      6  N   UNL     1       2.359   4.114  20.403  0.00  0.00    +0.000 NA
ATOM      7  C   UNL     1       1.861   5.400  19.920  0.00  0.00    +0.000 C 
ENDROOT
BRANCH   1  11
ATOM      8  C   UNL     1       6.326   5.929  17.511  0.00  0.00    +0.000 A 
ATOM      9  C   UNL     1       5.220   5.452  16.800  0.00  0.00    +0.000 A 
ATOM     10  C   UNL     1       4.237   4.686  17.436  0.00  0.00    +0.000 A 
ATOM     11  C   UNL     1       4.341   4.360  18.796  0.00  0.00    +0.000 A 
ATOM     12  C   UNL     1       5.422   4.893  19.517  0.00  0.00    +0.000 A 
ATOM     13  C   UNL     1       6.404   5.661  18.882  0.00  0.00    +0.000 A 
BRANCH   8  14
ATOM     14  C   UNL     1       7.429   6.669  16.802  0.00  0.00    +0.000 C 
BRANCH  14  16
ATOM     15  C   UNL     1       8.181   8.602  17.904  0.00  0.00    +0.000 C 
ATOM     16  O   UNL     1       7.256   8.075  16.962  0.00  0.00    +0.000 OA
ENDBRANCH  14  16
ENDBRANCH   8  14
ENDBRANCH   1  11
BRANCH   2  17
ATOM     17  O   UNL     1       3.237   1.180  18.545  0.00  0.00    +0.000 OA
ATOM     18  H   UNL     1       3.391   0.971  17.607  0.00  0.00    +0.000 HD
ENDBRANCH   2  17
BRANCH   3  19
ATOM     19  O   UNL     1       0.156   2.775  18.429  0.00  0.00    +0.000 OA
ATOM     20  H   UNL     1       0.442   3.623  18.050  0.00  0.00    +0.000 HD
ENDBRANCH   3  19
TORSDOF 5
ENDMDL
