MODEL 1
REMARK VINA RESULT:      -7.9      0.000      0.000
REMARK  Name = 
REMARK  15 active torsions:
REMARK  status: ('A' for Active; 'I' for Inactive)
REMARK    1  A    between atoms: C_1  and  C_2
REMARK    2  A    between atoms: C_2  and  C_25
REMARK    3  A    between atoms: C_3  and  C_4
REMARK    4  A    between atoms: C_4  and  C_5
REMARK    5  A    between atoms: C_6  and  O_7
REMARK    6  A    between atoms: C_11  and  O_12
REMARK    7  A    between atoms: C_16  and  C_17
REMARK    8  A    between atoms: C_20  and  O_21
REMARK    9  A    between atoms: C_25  and  C_26
REMARK   10  A    between atoms: C_26  and  C_27
REMARK   11  A    between atoms: C_27  and  O_28
REMARK   12  A    between atoms: C_27  and  C_29
REMARK   13  A    between atoms: C_29  and  C_30
REMARK   14  A    between atoms: C_29  and  C_31
REMARK   15  A    between atoms: C_29  and  O_32
REMARK                            x       y       z     vdW  Elec       q    Type
REMARK                         _______ _______ _______ _____ _____    ______ ____
ROOT
ATOM      1  C   UNL     1       1.494   8.886  19.452  0.00  0.00    +0.000 A 
ATOM      2  C   UNL     1       1.233   8.511  20.779  0.00  0.00    +0.000 A 
ATOM      3  C   UNL     1       0.302   9.201  21.555  0.00  0.00    +0.000 A 
ATOM      4  C   UNL     1      -0.390  10.286  21.025  0.00  0.00    +0.000 A 
ATOM      5  C   UNL     1      -0.145  10.682  19.718  0.00  0.00    +0.000 A 
ATOM      6  C   UNL     1       0.804  10.002  18.940  0.00  0.00    +0.000 A 
ATOM      7  C   UNL     1      -0.965  11.774  19.159  0.00  0.00    +0.000 C 
ATOM      8  O   UNL     1      -0.704  12.225  18.045  0.00  0.00    +0.000 OA
ATOM      9  C   UNL     1      -2.156  12.197  19.960  0.00  0.00    +0.000 C 
ATOM     10  C   UNL     1      -1.790  12.151  21.436  0.00  0.00    +0.000 C 
ATOM     11  O   UNL     1      -1.318  10.859  21.844  0.00  0.00    +0.000 OA
ENDROOT
BRANCH  10  12
ATOM     12  C   UNL     1      -3.011  12.480  22.280  0.00  0.00    +0.000 A 
ATOM     13  C   UNL     1      -4.128  13.121  21.713  0.00  0.00    +0.000 A 
ATOM     14  C   UNL     1      -5.244  13.436  22.488  0.00  0.00    +0.000 A 
ATOM     15  C   UNL     1      -5.242  13.125  23.842  0.00  0.00    +0.000 A 
ATOM     16  C   UNL     1      -4.145  12.505  24.428  0.00  0.00    +0.000 A 
ATOM     17  C   UNL     1      -3.030  12.182  23.650  0.00  0.00    +0.000 A 
BRANCH  15  18
ATOM     18  O   UNL     1      -6.311  13.417  24.636  0.00  0.00    +0.000 OA
ATOM     19  H   UNL     1      -7.119  13.346  24.104  0.00  0.00    +0.000 HD
ENDBRANCH  15  18
ENDBRANCH  10  12
BRANCH   2  20
ATOM     20  O   UNL     1       1.840   7.457  21.400  0.00  0.00    +0.000 OA
ATOM     21  H   UNL     1       1.183   6.903  21.850  0.00  0.00    +0.000 HD
ENDBRANCH   2  20
BRANCH   6  22
ATOM     22  O   UNL     1       1.073  10.381  17.648  0.00  0.00    +0.000 OA
ATOM     23  H   UNL     1       1.043  11.363  17.592  0.00  0.00    +0.000 HD
ENDBRANCH   6  22
BRANCH   1  24
ATOM     24  C   UNL     1       2.462   8.131  18.568  0.00  0.00    +0.000 C 
BRANCH  24  27
ATOM     25  C   UNL     1       4.041   5.496  18.200  0.00  0.00    +0.000 C 
ATOM     26  C   UNL     1       2.584   5.681  17.870  0.00  0.00    +0.000 C 
ATOM     27  C   UNL     1       1.902   6.829  18.059  0.00  0.00    +0.000 C 
BRANCH  26  28
ATOM     28  C   UNL     1       1.899   4.435  17.346  0.00  0.00    +0.000 C 
BRANCH  28  29
ATOM     29  C   UNL     1       1.860   3.255  18.325  0.00  0.00    +0.000 C 
BRANCH  29  30
ATOM     30  C   UNL     1       1.195   3.576  19.672  0.00  0.00    +0.000 C 
BRANCH  30  31
ATOM     31  C   UNL     1       2.121   3.376  20.907  0.00  0.00    +0.000 C 
ATOM     32  C   UNL     1       1.453   2.592  22.041  0.00  0.00    +0.000 C 
ATOM     33  C   UNL     1       3.447   2.719  20.521  0.00  0.00    +0.000 C 
BRANCH  31  34
ATOM     34  O   UNL     1       2.433   4.676  21.436  0.00  0.00    +0.000 OA
ATOM     35  H   UNL     1       2.459   4.569  22.408  0.00  0.00    +0.000 HD
ENDBRANCH  31  34
ENDBRANCH  30  31
BRANCH  30  36
ATOM     36  O   UNL     1       0.013   2.773  19.848  0.00  0.00    +0.000 OA
ATOM     37  H   UNL     1       0.285   1.904  20.191  0.00  0.00    +0.000 HD
ENDBRANCH  30  36
ENDBRANCH  29  30
ENDBRANCH  28  29
ENDBRANCH  26  28
ENDBRANCH  24  27
ENDBRANCH   1  24
TORSDOF 12
ENDMDL
MODEL 2
REMARK VINA RESULT:      -7.9      2.063      9.047
REMARK  Name = 
REMARK  15 active torsions:
REMARK  status: ('A' for Active; 'I' for Inactive)
REMARK    1  A    between atoms: C_1  and  C_2
REMARK    2  A    between atoms: C_2  and  C_25
REMARK    3  A    between atoms: C_3  and  C_4
REMARK    4  A    between atoms: C_4  and  C_5
REMARK    5  A    between atoms: C_6  and  O_7
REMARK    6  A    between atoms: C_11  and  O_12
REMARK    7  A    between atoms: C_16  and  C_17
REMARK    8  A    between atoms: C_20  and  O_21
REMARK    9  A    between atoms: C_25  and  C_26
REMARK   10  A    between atoms: C_26  and  C_27
REMARK   11  A    between atoms: C_27  and  O_28
REMARK   12  A    between atoms: C_27  and  C_29
REMARK   13  A    between atoms: C_29  and  C_30
REMARK   14  A    between atoms: C_29  and  C_31
REMARK   15  A    between atoms: C_29  and  O_32
REMARK                            x       y       z     vdW  Elec       q    Type
REMARK                         _______ _______ _______ _____ _____    ______ ____
ROOT
ATOM      1  C   UNL     1       0.477  10.750  21.059  0.00  0.00    +0.000 A 
ATOM      2  C   UNL     1       0.475   9.831  22.119  0.00  0.00    +0.000 A 
ATOM      3  C   UNL     1       0.936   8.526  21.946  0.00  0.00    +0.000 A 
ATOM      4  C   UNL     1       1.408   8.106  20.707  0.00  0.00    +0.000 A 
ATOM      5  C   UNL     1       1.414   8.993  19.638  0.00  0.00    +0.000 A 
ATOM      6  C   UNL     1       0.933  10.300  19.805  0.00  0.00    +0.000 A 
ATOM      7  C   UNL     1       2.010   8.542  18.367  0.00  0.00    +0.000 C 
ATOM      8  O   UNL     1       1.935   9.258  17.369  0.00  0.00    +0.000 OA
ATOM      9  C   UNL     1       2.780   7.260  18.402  0.00  0.00    +0.000 C 
ATOM     10  C   UNL     1       2.067   6.292  19.335  0.00  0.00    +0.000 C 
ATOM     11  O   UNL     1       1.888   6.830  20.652  0.00  0.00    +0.000 OA
ENDROOT
BRANCH  10  12
ATOM     12  C   UNL     1       2.880   5.014  19.469  0.00  0.00    +0.000 A 
ATOM     13  C   UNL     1       2.383   3.916  20.196  0.00  0.00    +0.000 A 
ATOM     14  C   UNL     1       3.132   2.747  20.332  0.00  0.00    +0.000 A 
ATOM     15  C   UNL     1       4.392   2.676  19.751  0.00  0.00    +0.000 A 
ATOM     16  C   UNL     1       4.910   3.751  19.040  0.00  0.00    +0.000 A 
ATOM     17  C   UNL     1       4.157   4.920  18.897  0.00  0.00    +0.000 A 
BRANCH  15  18
ATOM     18  O   UNL     1       5.158   1.554  19.861  0.00  0.00    +0.000 OA
ATOM     19  H   UNL     1       4.676   0.810  19.465  0.00  0.00    +0.000 HD
ENDBRANCH  15  18
ENDBRANCH  10  12
BRANCH   2  20
ATOM     20  O   UNL     1       0.048  10.134  23.381  0.00  0.00    +0.000 OA
ATOM     21  H   UNL     1      -0.915  10.040  23.446  0.00  0.00    +0.000 HD
ENDBRANCH   2  20
BRANCH   6  22
ATOM     22  O   UNL     1       0.917  11.194  18.762  0.00  0.00    +0.000 OA
ATOM     23  H   UNL     1       0.172  10.967  18.161  0.00  0.00    +0.000 HD
ENDBRANCH   6  22
BRANCH   1  24
ATOM     24  C   UNL     1       0.028  12.185  21.224  0.00  0.00    +0.000 C 
BRANCH  24  27
ATOM     25  C   UNL     1      -2.436  12.327  23.091  0.00  0.00    +0.000 C 
ATOM     26  C   UNL     1      -2.483  12.448  21.592  0.00  0.00    +0.000 C 
ATOM     27  C   UNL     1      -1.397  12.409  20.791  0.00  0.00    +0.000 C 
BRANCH  26  28
ATOM     28  C   UNL     1      -3.870  12.679  21.026  0.00  0.00    +0.000 C 
BRANCH  28  29
ATOM     29  C   UNL     1      -3.922  12.903  19.509  0.00  0.00    +0.000 C 
BRANCH  29  30
ATOM     30  C   UNL     1      -4.334  11.662  18.703  0.00  0.00    +0.000 C 
BRANCH  30  31
ATOM     31  C   UNL     1      -3.305  11.236  17.616  0.00  0.00    +0.000 C 
ATOM     32  C   UNL     1      -2.550   9.952  17.969  0.00  0.00    +0.000 C 
ATOM     33  C   UNL     1      -3.959  11.101  16.239  0.00  0.00    +0.000 C 
BRANCH  31  34
ATOM     34  O   UNL     1      -2.319  12.277  17.514  0.00  0.00    +0.000 OA
ATOM     35  H   UNL     1      -1.551  11.874  17.062  0.00  0.00    +0.000 HD
ENDBRANCH  31  34
ENDBRANCH  30  31
BRANCH  30  36
ATOM     36  O   UNL     1      -5.609  11.878  18.071  0.00  0.00    +0.000 OA
ATOM     37  H   UNL     1      -5.797  12.832  18.087  0.00  0.00    +0.000 HD
ENDBRANCH  30  36
ENDBRANCH  29  30
ENDBRANCH  28  29
ENDBRANCH  26  28
ENDBRANCH  24  27
ENDBRANCH   1  24
TORSDOF 12
ENDMDL
MODEL 3
REMARK VINA RESULT:      -7.7      2.663      3.855
REMARK  Name = 
REMARK  15 active torsions:
REMARK  status: ('A' for Active; 'I' for Inactive)
REMARK    1  A    between atoms: C_1  and  C_2
REMARK    2  A    between atoms: C_2  and  C_25
REMARK    3  A    between atoms: C_3  and  C_4
REMARK    4  A    between atoms: C_4  and  C_5
REMARK    5  A    between atoms: C_6  and  O_7
REMARK    6  A    between atoms: C_11  and  O_12
REMARK    7  A    between atoms: C_16  and  C_17
REMARK    8  A    between atoms: C_20  and  O_21
REMARK    9  A    between atoms: C_25  and  C_26
REMARK   10  A    between atoms: C_26  and  C_27
REMARK   11  A    between atoms: C_27  and  O_28
REMARK   12  A    between atoms: C_27  and  C_29
REMARK   13  A    between atoms: C_29  and  C_30
REMARK   14  A    between atoms: C_29  and  C_31
REMARK   15  A    between atoms: C_29  and  O_32
REMARK                            x       y       z     vdW  Elec       q    Type
REMARK                         _______ _______ _______ _____ _____    ______ ____
ROOT
ATOM      1  C   UNL     1       1.800   8.075  19.174  0.00  0.00    +0.000 A 
ATOM      2  C   UNL     1       1.485   7.703  20.490  0.00  0.00    +0.000 A 
ATOM      3  C   UNL     1       0.881   8.601  21.370  0.00  0.00    +0.000 A 
ATOM      4  C   UNL     1       0.579   9.894  20.957  0.00  0.00    +0.000 A 
ATOM      5  C   UNL     1       0.886  10.290  19.662  0.00  0.00    +0.000 A 
ATOM      6  C   UNL     1       1.511   9.396  18.780  0.00  0.00    +0.000 A 
ATOM      7  C   UNL     1       0.465  11.636  19.230  0.00  0.00    +0.000 C 
ATOM      8  O   UNL     1       0.815  12.062  18.130  0.00  0.00    +0.000 OA
ATOM      9  C   UNL     1      -0.474  12.369  20.135  0.00  0.00    +0.000 C 
ATOM     10  C   UNL     1      -0.081  12.083  21.577  0.00  0.00    +0.000 C 
ATOM     11  O   UNL     1      -0.062  10.679  21.871  0.00  0.00    +0.000 OA
ENDROOT
BRANCH  10  12
ATOM     12  C   UNL     1      -1.078  12.734  22.522  0.00  0.00    +0.000 A 
ATOM     13  C   UNL     1      -0.804  13.983  23.110  0.00  0.00    +0.000 A 
ATOM     14  C   UNL     1      -1.711  14.577  23.988  0.00  0.00    +0.000 A 
ATOM     15  C   UNL     1      -2.894  13.916  24.294  0.00  0.00    +0.000 A 
ATOM     16  C   UNL     1      -3.181  12.676  23.736  0.00  0.00    +0.000 A 
ATOM     17  C   UNL     1      -2.276  12.083  22.852  0.00  0.00    +0.000 A 
BRANCH  15  18
ATOM     18  O   UNL     1      -3.807  14.459  25.148  0.00  0.00    +0.000 OA
ATOM     19  H   UNL     1      -4.022  13.801  25.828  0.00  0.00    +0.000 HD
ENDBRANCH  15  18
ENDBRANCH  10  12
BRANCH   2  20
ATOM     20  O   UNL     1       1.723   6.459  21.002  0.00  0.00    +0.000 OA
ATOM     21  H   UNL     1       0.959   6.150  21.513  0.00  0.00    +0.000 HD
ENDBRANCH   2  20
BRANCH   6  22
ATOM     22  O   UNL     1       1.837   9.765  17.499  0.00  0.00    +0.000 OA
ATOM     23  H   UNL     1       1.385  10.614  17.289  0.00  0.00    +0.000 HD
ENDBRANCH   6  22
BRANCH   1  24
ATOM     24  C   UNL     1       2.413   7.112  18.181  0.00  0.00    +0.000 C 
BRANCH  24  27
ATOM     25  C   UNL     1       3.508   4.278  18.767  0.00  0.00    +0.000 C 
ATOM     26  C   UNL     1       4.329   5.539  18.784  0.00  0.00    +0.000 C 
ATOM     27  C   UNL     1       3.843   6.767  18.502  0.00  0.00    +0.000 C 
BRANCH  26  28
ATOM     28  C   UNL     1       5.797   5.327  19.096  0.00  0.00    +0.000 C 
BRANCH  28  29
ATOM     29  C   UNL     1       6.767   6.164  18.251  0.00  0.00    +0.000 C 
BRANCH  29  30
ATOM     30  C   UNL     1       7.521   5.363  17.179  0.00  0.00    +0.000 C 
BRANCH  30  31
ATOM     31  C   UNL     1       6.723   5.151  15.859  0.00  0.00    +0.000 C 
ATOM     32  C   UNL     1       6.040   3.783  15.779  0.00  0.00    +0.000 C 
ATOM     33  C   UNL     1       5.699   6.265  15.631  0.00  0.00    +0.000 C 
BRANCH  31  34
ATOM     34  O   UNL     1       7.658   5.208  14.768  0.00  0.00    +0.000 OA
ATOM     35  H   UNL     1       7.549   4.368  14.280  0.00  0.00    +0.000 HD
ENDBRANCH  31  34
ENDBRANCH  30  31
BRANCH  30  36
ATOM     36  O   UNL     1       7.903   4.075  17.696  0.00  0.00    +0.000 OA
ATOM     37  H   UNL     1       7.094   3.559  17.854  0.00  0.00    +0.000 HD
ENDBRANCH  30  36
ENDBRANCH  29  30
ENDBRANCH  28  29
ENDBRANCH  26  28
ENDBRANCH  24  27
ENDBRANCH   1  24
TORSDOF 12
ENDMDL
MODEL 4
REMARK VINA RESULT:      -7.6      2.555      3.841
REMARK  Name = 
REMARK  15 active torsions:
REMARK  status: ('A' for Active; 'I' for Inactive)
REMARK    1  A    between atoms: C_1  and  C_2
REMARK    2  A    between atoms: C_2  and  C_25
REMARK    3  A    between atoms: C_3  and  C_4
REMARK    4  A    between atoms: C_4  and  C_5
REMARK    5  A    between atoms: C_6  and  O_7
REMARK    6  A    between atoms: C_11  and  O_12
REMARK    7  A    between atoms: C_16  and  C_17
REMARK    8  A    between atoms: C_20  and  O_21
REMARK    9  A    between atoms: C_25  and  C_26
REMARK   10  A    between atoms: C_26  and  C_27
REMARK   11  A    between atoms: C_27  and  O_28
REMARK   12  A    between atoms: C_27  and  C_29
REMARK   13  A    between atoms: C_29  and  C_30
REMARK   14  A    between atoms: C_29  and  C_31
REMARK   15  A    between atoms: C_29  and  O_32
REMARK                            x       y       z     vdW  Elec       q    Type
REMARK                         _______ _______ _______ _____ _____    ______ ____
ROOT
ATOM      1  C   UNL     1       1.762   8.234  19.059  0.00  0.00    +0.000 A 
ATOM      2  C   UNL     1       1.512   7.828  20.379  0.00  0.00    +0.000 A 
ATOM      3  C   UNL     1       0.911   8.688  21.299  0.00  0.00    +0.000 A 
ATOM      4  C   UNL     1       0.548   9.977  20.922  0.00  0.00    +0.000 A 
ATOM      5  C   UNL     1       0.791  10.407  19.625  0.00  0.00    +0.000 A 
ATOM      6  C   UNL     1       1.411   9.551  18.702  0.00  0.00    +0.000 A 
ATOM      7  C   UNL     1       0.305  11.744  19.235  0.00  0.00    +0.000 C 
ATOM      8  O   UNL     1       0.597  12.202  18.131  0.00  0.00    +0.000 OA
ATOM      9  C   UNL     1      -0.622  12.427  20.190  0.00  0.00    +0.000 C 
ATOM     10  C   UNL     1      -0.164  12.129  21.609  0.00  0.00    +0.000 C 
ATOM     11  O   UNL     1      -0.083  10.722  21.876  0.00  0.00    +0.000 OA
ENDROOT
BRANCH  10  12
ATOM     12  C   UNL     1      -1.145  12.728  22.604  0.00  0.00    +0.000 A 
ATOM     13  C   UNL     1      -2.339  12.059  22.932  0.00  0.00    +0.000 A 
ATOM     14  C   UNL     1      -3.247  12.613  23.834  0.00  0.00    +0.000 A 
ATOM     15  C   UNL     1      -2.971  13.849  24.404  0.00  0.00    +0.000 A 
ATOM     16  C   UNL     1      -1.806  14.535  24.086  0.00  0.00    +0.000 A 
ATOM     17  C   UNL     1      -0.892  13.978  23.188  0.00  0.00    +0.000 A 
BRANCH  15  18
ATOM     18  O   UNL     1      -3.833  14.427  25.289  0.00  0.00    +0.000 OA
ATOM     19  H   UNL     1      -4.735  14.343  24.941  0.00  0.00    +0.000 HD
ENDBRANCH  15  18
ENDBRANCH  10  12
BRANCH   2  20
ATOM     20  O   UNL     1       1.813   6.585  20.857  0.00  0.00    +0.000 OA
ATOM     21  H   UNL     1       1.047   6.200  21.311  0.00  0.00    +0.000 HD
ENDBRANCH   2  20
BRANCH   6  22
ATOM     22  O   UNL     1       1.673   9.955  17.417  0.00  0.00    +0.000 OA
ATOM     23  H   UNL     1       2.228  10.767  17.446  0.00  0.00    +0.000 HD
ENDBRANCH   6  22
BRANCH   1  24
ATOM     24  C   UNL     1       2.368   7.312  18.025  0.00  0.00    +0.000 C 
BRANCH  24  27
ATOM     25  C   UNL     1       3.649   4.587  18.735  0.00  0.00    +0.000 C 
ATOM     26  C   UNL     1       4.403   5.880  18.587  0.00  0.00    +0.000 C 
ATOM     27  C   UNL     1       3.835   7.058  18.252  0.00  0.00    +0.000 C 
BRANCH  26  28
ATOM     28  C   UNL     1       5.900   5.759  18.790  0.00  0.00    +0.000 C 
BRANCH  28  29
ATOM     29  C   UNL     1       6.758   6.331  17.654  0.00  0.00    +0.000 C 
BRANCH  29  30
ATOM     30  C   UNL     1       7.252   5.281  16.648  0.00  0.00    +0.000 C 
BRANCH  30  31
ATOM     31  C   UNL     1       6.353   5.131  15.386  0.00  0.00    +0.000 C 
ATOM     32  C   UNL     1       7.153   4.944  14.094  0.00  0.00    +0.000 C 
ATOM     33  C   UNL     1       5.335   4.000  15.545  0.00  0.00    +0.000 C 
BRANCH  31  34
ATOM     34  O   UNL     1       5.607   6.351  15.233  0.00  0.00    +0.000 OA
ATOM     35  H   UNL     1       4.677   6.080  15.100  0.00  0.00    +0.000 HD
ENDBRANCH  31  34
ENDBRANCH  30  31
BRANCH  30  36
ATOM     36  O   UNL     1       7.366   3.995  17.286  0.00  0.00    +0.000 OA
ATOM     37  H   UNL     1       6.607   3.884  17.883  0.00  0.00    +0.000 HD
ENDBRANCH  30  36
ENDBRANCH  29  30
ENDBRANCH  28  29
ENDBRANCH  26  28
ENDBRANCH  24  27
ENDBRANCH   1  24
TORSDOF 12
ENDMDL
MODEL 5
REMARK VINA RESULT:      -7.5      2.347      9.454
REMARK  Name = 
REMARK  15 active torsions:
REMARK  status: ('A' for Active; 'I' for Inactive)
REMARK    1  A    between atoms: C_1  and  C_2
REMARK    2  A    between atoms: C_2  and  C_25
REMARK    3  A    between atoms: C_3  and  C_4
REMARK    4  A    between atoms: C_4  and  C_5
REMARK    5  A    between atoms: C_6  and  O_7
REMARK    6  A    between atoms: C_11  and  O_12
REMARK    7  A    between atoms: C_16  and  C_17
REMARK    8  A    between atoms: C_20  and  O_21
REMARK    9  A    between atoms: C_25  and  C_26
REMARK   10  A    between atoms: C_26  and  C_27
REMARK   11  A    between atoms: C_27  and  O_28
REMARK   12  A    between atoms: C_27  and  C_29
REMARK   13  A    between atoms: C_29  and  C_30
REMARK   14  A    between atoms: C_29  and  C_31
REMARK   15  A    between atoms: C_29  and  O_32
REMARK                            x       y       z     vdW  Elec       q    Type
REMARK                         _______ _______ _______ _____ _____    ______ ____
ROOT
ATOM      1  C   UNL     1       0.209  10.878  21.006  0.00  0.00    +0.000 A 
ATOM      2  C   UNL     1       0.252   9.983  22.086  0.00  0.00    +0.000 A 
ATOM      3  C   UNL     1       0.782   8.700  21.941  0.00  0.00    +0.000 A 
ATOM      4  C   UNL     1       1.280   8.280  20.712  0.00  0.00    +0.000 A 
ATOM      5  C   UNL     1       1.242   9.143  19.625  0.00  0.00    +0.000 A 
ATOM      6  C   UNL     1       0.693  10.427  19.763  0.00  0.00    +0.000 A 
ATOM      7  C   UNL     1       1.865   8.699  18.364  0.00  0.00    +0.000 C 
ATOM      8  O   UNL     1       1.755   9.389  17.351  0.00  0.00    +0.000 OA
ATOM      9  C   UNL     1       2.701   7.460  18.428  0.00  0.00    +0.000 C 
ATOM     10  C   UNL     1       2.038   6.475  19.379  0.00  0.00    +0.000 C 
ATOM     11  O   UNL     1       1.827   7.031  20.685  0.00  0.00    +0.000 OA
ENDROOT
BRANCH  10  12
ATOM     12  C   UNL     1       2.916   5.245  19.542  0.00  0.00    +0.000 A 
ATOM     13  C   UNL     1       4.209   5.203  18.987  0.00  0.00    +0.000 A 
ATOM     14  C   UNL     1       5.012   4.070  19.124  0.00  0.00    +0.000 A 
ATOM     15  C   UNL     1       4.518   2.965  19.805  0.00  0.00    +0.000 A 
ATOM     16  C   UNL     1       3.240   2.977  20.349  0.00  0.00    +0.000 A 
ATOM     17  C   UNL     1       2.438   4.114  20.220  0.00  0.00    +0.000 A 
BRANCH  15  18
ATOM     18  O   UNL     1       5.268   1.837  19.959  0.00  0.00    +0.000 OA
ATOM     19  H   UNL     1       4.820   1.253  20.592  0.00  0.00    +0.000 HD
ENDBRANCH  15  18
ENDBRANCH  10  12
BRANCH   2  20
ATOM     20  O   UNL     1      -0.193  10.289  23.340  0.00  0.00    +0.000 OA
ATOM     21  H   UNL     1      -1.112  10.597  23.309  0.00  0.00    +0.000 HD
ENDBRANCH   2  20
BRANCH   6  22
ATOM     22  O   UNL     1       0.633  11.296  18.702  0.00  0.00    +0.000 OA
ATOM     23  H   UNL     1       1.112  12.122  18.940  0.00  0.00    +0.000 HD
ENDBRANCH   6  22
BRANCH   1  24
ATOM     24  C   UNL     1      -0.316  12.291  21.141  0.00  0.00    +0.000 C 
BRANCH  24  27
ATOM     25  C   UNL     1      -2.269  13.439  23.248  0.00  0.00    +0.000 C 
ATOM     26  C   UNL     1      -2.678  12.853  21.924  0.00  0.00    +0.000 C 
ATOM     27  C   UNL     1      -1.813  12.377  21.003  0.00  0.00    +0.000 C 
BRANCH  26  28
ATOM     28  C   UNL     1      -4.170  12.882  21.661  0.00  0.00    +0.000 C 
BRANCH  28  29
ATOM     29  C   UNL     1      -4.573  12.708  20.191  0.00  0.00    +0.000 C 
BRANCH  29  30
ATOM     30  C   UNL     1      -5.937  12.031  19.987  0.00  0.00    +0.000 C 
BRANCH  30  31
ATOM     31  C   UNL     1      -6.171  11.484  18.550  0.00  0.00    +0.000 C 
ATOM     32  C   UNL     1      -6.828  12.504  17.615  0.00  0.00    +0.000 C 
ATOM     33  C   UNL     1      -4.878  10.954  17.926  0.00  0.00    +0.000 C 
BRANCH  31  34
ATOM     34  O   UNL     1      -7.079  10.372  18.647  0.00  0.00    +0.000 OA
ATOM     35  H   UNL     1      -6.541   9.615  18.954  0.00  0.00    +0.000 HD
ENDBRANCH  31  34
ENDBRANCH  30  31
BRANCH  30  36
ATOM     36  O   UNL     1      -7.000  12.947  20.310  0.00  0.00    +0.000 OA
ATOM     37  H   UNL     1      -7.120  13.550  19.557  0.00  0.00    +0.000 HD
ENDBRANCH  30  36
ENDBRANCH  29  30
ENDBRANCH  28  29
ENDBRANCH  26  28
ENDBRANCH  24  27
ENDBRANCH   1  24
TORSDOF 12
ENDMDL
MODEL 6
REMARK VINA RESULT:      -7.5      2.076      9.058
REMARK  Name = 
REMARK  15 active torsions:
REMARK  status: ('A' for Active; 'I' for Inactive)
REMARK    1  A    between atoms: C_1  and  C_2
REMARK    2  A    between atoms: C_2  and  C_25
REMARK    3  A    between atoms: C_3  and  C_4
REMARK    4  A    between atoms: C_4  and  C_5
REMARK    5  A    between atoms: C_6  and  O_7
REMARK    6  A    between atoms: C_11  and  O_12
REMARK    7  A    between atoms: C_16  and  C_17
REMARK    8  A    between atoms: C_20  and  O_21
REMARK    9  A    between atoms: C_25  and  C_26
REMARK   10  A    between atoms: C_26  and  C_27
REMARK   11  A    between atoms: C_27  and  O_28
REMARK   12  A    between atoms: C_27  and  C_29
REMARK   13  A    between atoms: C_29  and  C_30
REMARK   14  A    between atoms: C_29  and  C_31
REMARK   15  A    between atoms: C_29  and  O_32
REMARK                            x       y       z     vdW  Elec       q    Type
REMARK                         _______ _______ _______ _____ _____    ______ ____
ROOT
ATOM      1  C   UNL     1       0.462  10.804  21.112  0.00  0.00    +0.000 A 
ATOM      2  C   UNL     1       0.448   9.869  22.158  0.00  0.00    +0.000 A 
ATOM      3  C   UNL     1       0.919   8.569  21.972  0.00  0.00    +0.000 A 
ATOM      4  C   UNL     1       1.411   8.171  20.734  0.00  0.00    +0.000 A 
ATOM      5  C   UNL     1       1.429   9.074  19.680  0.00  0.00    +0.000 A 
ATOM      6  C   UNL     1       0.940  10.377  19.859  0.00  0.00    +0.000 A 
ATOM      7  C   UNL     1       2.047   8.646  18.410  0.00  0.00    +0.000 C 
ATOM      8  O   UNL     1       1.983   9.377  17.423  0.00  0.00    +0.000 OA
ATOM      9  C   UNL     1       2.822   7.367  18.438  0.00  0.00    +0.000 C 
ATOM     10  C   UNL     1       2.101   6.381  19.344  0.00  0.00    +0.000 C 
ATOM     11  O   UNL     1       1.899   6.898  20.667  0.00  0.00    +0.000 OA
ENDROOT
BRANCH  10  12
ATOM     12  C   UNL     1       2.917   5.105  19.471  0.00  0.00    +0.000 A 
ATOM     13  C   UNL     1       4.107   4.934  18.740  0.00  0.00    +0.000 A 
ATOM     14  C   UNL     1       4.851   3.759  18.844  0.00  0.00    +0.000 A 
ATOM     15  C   UNL     1       4.400   2.740  19.672  0.00  0.00    +0.000 A 
ATOM     16  C   UNL     1       3.220   2.878  20.393  0.00  0.00    +0.000 A 
ATOM     17  C   UNL     1       2.478   4.058  20.295  0.00  0.00    +0.000 A 
BRANCH  15  18
ATOM     18  O   UNL     1       5.094   1.574  19.801  0.00  0.00    +0.000 OA
ATOM     19  H   UNL     1       5.251   1.208  18.916  0.00  0.00    +0.000 HD
ENDBRANCH  15  18
ENDBRANCH  10  12
BRANCH   2  20
ATOM     20  O   UNL     1       0.001  10.150  23.418  0.00  0.00    +0.000 OA
ATOM     21  H   UNL     1      -0.574  10.931  23.409  0.00  0.00    +0.000 HD
ENDBRANCH   2  20
BRANCH   6  22
ATOM     22  O   UNL     1       0.935  11.286  18.830  0.00  0.00    +0.000 OA
ATOM     23  H   UNL     1       1.800  11.754  18.816  0.00  0.00    +0.000 HD
ENDBRANCH   6  22
BRANCH   1  24
ATOM     24  C   UNL     1       0.003  12.235  21.293  0.00  0.00    +0.000 C 
BRANCH  24  27
ATOM     25  C   UNL     1      -2.502  12.286  23.109  0.00  0.00    +0.000 C 
ATOM     26  C   UNL     1      -2.518  12.459  21.615  0.00  0.00    +0.000 C 
ATOM     27  C   UNL     1      -1.414  12.460  20.837  0.00  0.00    +0.000 C 
BRANCH  26  28
ATOM     28  C   UNL     1      -3.894  12.697  21.027  0.00  0.00    +0.000 C 
BRANCH  28  29
ATOM     29  C   UNL     1      -3.930  12.851  19.500  0.00  0.00    +0.000 C 
BRANCH  29  30
ATOM     30  C   UNL     1      -4.591  11.676  18.764  0.00  0.00    +0.000 C 
BRANCH  30  31
ATOM     31  C   UNL     1      -3.710  11.043  17.649  0.00  0.00    +0.000 C 
ATOM     32  C   UNL     1      -4.319  11.176  16.250  0.00  0.00    +0.000 C 
ATOM     33  C   UNL     1      -2.288  11.607  17.660  0.00  0.00    +0.000 C 
BRANCH  31  34
ATOM     34  O   UNL     1      -3.606   9.634  17.919  0.00  0.00    +0.000 OA
ATOM     35  H   UNL     1      -3.047   9.267  17.206  0.00  0.00    +0.000 HD
ENDBRANCH  31  34
ENDBRANCH  30  31
BRANCH  30  36
ATOM     36  O   UNL     1      -5.841  12.093  18.182  0.00  0.00    +0.000 OA
ATOM     37  H   UNL     1      -6.530  12.027  18.865  0.00  0.00    +0.000 HD
ENDBRANCH  30  36
ENDBRANCH  29  30
ENDBRANCH  28  29
ENDBRANCH  26  28
ENDBRANCH  24  27
ENDBRANCH   1  24
TORSDOF 12
ENDMDL
MODEL 7
REMARK VINA RESULT:      -7.5      1.497      2.189
REMARK  Name = 
REMARK  15 active torsions:
REMARK  status: ('A' for Active; 'I' for Inactive)
REMARK    1  A    between atoms: C_1  and  C_2
REMARK    2  A    between atoms: C_2  and  C_25
REMARK    3  A    between atoms: C_3  and  C_4
REMARK    4  A    between atoms: C_4  and  C_5
REMARK    5  A    between atoms: C_6  and  O_7
REMARK    6  A    between atoms: C_11  and  O_12
REMARK    7  A    between atoms: C_16  and  C_17
REMARK    8  A    between atoms: C_20  and  O_21
REMARK    9  A    between atoms: C_25  and  C_26
REMARK   10  A    between atoms: C_26  and  C_27
REMARK   11  A    between atoms: C_27  and  O_28
REMARK   12  A    between atoms: C_27  and  C_29
REMARK   13  A    between atoms: C_29  and  C_30
REMARK   14  A    between atoms: C_29  and  C_31
REMARK   15  A    between atoms: C_29  and  O_32
REMARK                            x       y       z     vdW  Elec       q    Type
REMARK                         _______ _______ _______ _____ _____    ______ ____
ROOT
ATOM      1  C   UNL     1       1.934   8.660  18.855  0.00  0.00    +0.000 A 
ATOM      2  C   UNL     1       1.587   8.147  20.114  0.00  0.00    +0.000 A 
ATOM      3  C   UNL     1       0.939   8.938  21.063  0.00  0.00    +0.000 A 
ATOM      4  C   UNL     1       0.625  10.263  20.778  0.00  0.00    +0.000 A 
ATOM      5  C   UNL     1       0.965  10.798  19.543  0.00  0.00    +0.000 A 
ATOM      6  C   UNL     1       1.633  10.011  18.593  0.00  0.00    +0.000 A 
ATOM      7  C   UNL     1       0.531  12.175  19.240  0.00  0.00    +0.000 C 
ATOM      8  O   UNL     1       0.906  12.720  18.203  0.00  0.00    +0.000 OA
ATOM      9  C   UNL     1      -0.449  12.794  20.187  0.00  0.00    +0.000 C 
ATOM     10  C   UNL     1      -0.095  12.363  21.603  0.00  0.00    +0.000 C 
ATOM     11  O   UNL     1      -0.057  10.937  21.749  0.00  0.00    +0.000 OA
ENDROOT
BRANCH  10  12
ATOM     12  C   UNL     1      -1.132  12.897  22.578  0.00  0.00    +0.000 A 
ATOM     13  C   UNL     1      -0.934  14.120  23.243  0.00  0.00    +0.000 A 
ATOM     14  C   UNL     1      -1.878  14.606  24.149  0.00  0.00    +0.000 A 
ATOM     15  C   UNL     1      -3.021  13.859  24.405  0.00  0.00    +0.000 A 
ATOM     16  C   UNL     1      -3.232  12.640  23.771  0.00  0.00    +0.000 A 
ATOM     17  C   UNL     1      -2.291  12.158  22.858  0.00  0.00    +0.000 A 
BRANCH  15  18
ATOM     18  O   UNL     1      -3.968  14.294  25.284  0.00  0.00    +0.000 OA
ATOM     19  H   UNL     1      -4.206  13.558  25.870  0.00  0.00    +0.000 HD
ENDBRANCH  15  18
ENDBRANCH  10  12
BRANCH   2  20
ATOM     20  O   UNL     1       1.832   6.861  20.500  0.00  0.00    +0.000 OA
ATOM     21  H   UNL     1       1.963   6.812  21.460  0.00  0.00    +0.000 HD
ENDBRANCH   2  20
BRANCH   6  22
ATOM     22  O   UNL     1       1.990  10.518  17.368  0.00  0.00    +0.000 OA
ATOM     23  H   UNL     1       1.611  11.422  17.276  0.00  0.00    +0.000 HD
ENDBRANCH   6  22
BRANCH   1  24
ATOM     24  C   UNL     1       2.595   7.817  17.787  0.00  0.00    +0.000 C 
BRANCH  24  27
ATOM     25  C   UNL     1       4.998   6.360  16.492  0.00  0.00    +0.000 C 
ATOM     26  C   UNL     1       4.331   5.948  17.777  0.00  0.00    +0.000 C 
ATOM     27  C   UNL     1       3.299   6.608  18.344  0.00  0.00    +0.000 C 
BRANCH  26  28
ATOM     28  C   UNL     1       4.951   4.736  18.443  0.00  0.00    +0.000 C 
BRANCH  28  29
ATOM     29  C   UNL     1       4.226   3.409  18.179  0.00  0.00    +0.000 C 
BRANCH  29  30
ATOM     30  C   UNL     1       3.316   2.949  19.328  0.00  0.00    +0.000 C 
BRANCH  30  31
ATOM     31  C   UNL     1       1.805   2.888  18.963  0.00  0.00    +0.000 C 
ATOM     32  C   UNL     1       0.889   3.318  20.112  0.00  0.00    +0.000 C 
ATOM     33  C   UNL     1       1.492   3.702  17.706  0.00  0.00    +0.000 C 
BRANCH  31  34
ATOM     34  O   UNL     1       1.480   1.518  18.669  0.00  0.00    +0.000 OA
ATOM     35  H   UNL     1       2.320   1.024  18.743  0.00  0.00    +0.000 HD
ENDBRANCH  31  34
ENDBRANCH  30  31
BRANCH  30  36
ATOM     36  O   UNL     1       3.480   3.812  20.469  0.00  0.00    +0.000 OA
ATOM     37  H   UNL     1       2.622   3.881  20.922  0.00  0.00    +0.000 HD
ENDBRANCH  30  36
ENDBRANCH  29  30
ENDBRANCH  28  29
ENDBRANCH  26  28
ENDBRANCH  24  27
ENDBRANCH   1  24
TORSDOF 12
ENDMDL
MODEL 8
REMARK VINA RESULT:      -7.5      1.282      1.903
REMARK  Name = 
REMARK  15 active torsions:
REMARK  status: ('A' for Active; 'I' for Inactive)
REMARK    1  A    between atoms: C_1  and  C_2
REMARK    2  A    between atoms: C_2  and  C_25
REMARK    3  A    between atoms: C_3  and  C_4
REMARK    4  A    between atoms: C_4  and  C_5
REMARK    5  A    between atoms: C_6  and  O_7
REMARK    6  A    between atoms: C_11  and  O_12
REMARK    7  A    between atoms: C_16  and  C_17
REMARK    8  A    between atoms: C_20  and  O_21
REMARK    9  A    between atoms: C_25  and  C_26
REMARK   10  A    between atoms: C_26  and  C_27
REMARK   11  A    between atoms: C_27  and  O_28
REMARK   12  A    between atoms: C_27  and  C_29
REMARK   13  A    between atoms: C_29  and  C_30
REMARK   14  A    between atoms: C_29  and  C_31
REMARK   15  A    between atoms: C_29  and  O_32
REMARK                            x       y       z     vdW  Elec       q    Type
REMARK                         _______ _______ _______ _____ _____    ______ ____
ROOT
ATOM      1  C   UNL     1       1.833   8.515  19.028  0.00  0.00    +0.000 A 
ATOM      2  C   UNL     1       1.430   8.040  20.285  0.00  0.00    +0.000 A 
ATOM      3  C   UNL     1       0.557   8.773  21.090  0.00  0.00    +0.000 A 
ATOM      4  C   UNL     1       0.068  10.001  20.658  0.00  0.00    +0.000 A 
ATOM      5  C   UNL     1       0.456  10.498  19.422  0.00  0.00    +0.000 A 
ATOM      6  C   UNL     1       1.349   9.772  18.618  0.00  0.00    +0.000 A 
ATOM      7  C   UNL     1      -0.157  11.756  18.956  0.00  0.00    +0.000 C 
ATOM      8  O   UNL     1       0.242  12.283  17.918  0.00  0.00    +0.000 OA
ATOM      9  C   UNL     1      -1.327  12.263  19.739  0.00  0.00    +0.000 C 
ATOM     10  C   UNL     1      -1.074  12.000  21.216  0.00  0.00    +0.000 C 
ATOM     11  O   UNL     1      -0.823  10.614  21.490  0.00  0.00    +0.000 OA
ENDROOT
BRANCH  10  12
ATOM     12  C   UNL     1      -2.289  12.414  22.029  0.00  0.00    +0.000 A 
ATOM     13  C   UNL     1      -3.242  13.305  21.499  0.00  0.00    +0.000 A 
ATOM     14  C   UNL     1      -4.352  13.697  22.248  0.00  0.00    +0.000 A 
ATOM     15  C   UNL     1      -4.506  13.211  23.540  0.00  0.00    +0.000 A 
ATOM     16  C   UNL     1      -3.572  12.342  24.091  0.00  0.00    +0.000 A 
ATOM     17  C   UNL     1      -2.464  11.943  23.338  0.00  0.00    +0.000 A 
BRANCH  15  18
ATOM     18  O   UNL     1      -5.574  13.571  24.308  0.00  0.00    +0.000 OA
ATOM     19  H   UNL     1      -5.262  13.734  25.212  0.00  0.00    +0.000 HD
ENDBRANCH  15  18
ENDBRANCH  10  12
BRANCH   2  20
ATOM     20  O   UNL     1       1.835   6.844  20.806  0.00  0.00    +0.000 OA
ATOM     21  H   UNL     1       1.746   6.138  20.147  0.00  0.00    +0.000 HD
ENDBRANCH   2  20
BRANCH   6  22
ATOM     22  O   UNL     1       1.758  10.247  17.396  0.00  0.00    +0.000 OA
ATOM     23  H   UNL     1       2.387  10.990  17.539  0.00  0.00    +0.000 HD
ENDBRANCH   6  22
BRANCH   1  24
ATOM     24  C   UNL     1       2.741   7.725  18.112  0.00  0.00    +0.000 C 
BRANCH  24  27
ATOM     25  C   UNL     1       4.865   5.865  16.846  0.00  0.00    +0.000 C 
ATOM     26  C   UNL     1       4.464   5.852  18.296  0.00  0.00    +0.000 C 
ATOM     27  C   UNL     1       3.553   6.687  18.840  0.00  0.00    +0.000 C 
BRANCH  26  28
ATOM     28  C   UNL     1       5.214   4.845  19.144  0.00  0.00    +0.000 C 
BRANCH  28  29
ATOM     29  C   UNL     1       4.400   3.612  19.558  0.00  0.00    +0.000 C 
BRANCH  29  30
ATOM     30  C   UNL     1       3.600   2.972  18.414  0.00  0.00    +0.000 C 
BRANCH  30  31
ATOM     31  C   UNL     1       2.057   3.012  18.611  0.00  0.00    +0.000 C 
ATOM     32  C   UNL     1       1.641   3.319  20.053  0.00  0.00    +0.000 C 
ATOM     33  C   UNL     1       1.387   3.994  17.649  0.00  0.00    +0.000 C 
BRANCH  31  34
ATOM     34  O   UNL     1       1.542   1.704  18.305  0.00  0.00    +0.000 OA
ATOM     35  H   UNL     1       1.452   1.674  17.332  0.00  0.00    +0.000 HD
ENDBRANCH  31  34
ENDBRANCH  30  31
BRANCH  30  36
ATOM     36  O   UNL     1       4.004   1.603  18.228  0.00  0.00    +0.000 OA
ATOM     37  H   UNL     1       4.310   1.258  19.085  0.00  0.00    +0.000 HD
ENDBRANCH  30  36
ENDBRANCH  29  30
ENDBRANCH  28  29
ENDBRANCH  26  28
ENDBRANCH  24  27
ENDBRANCH   1  24
TORSDOF 12
ENDMDL
MODEL 9
REMARK VINA RESULT:      -7.4      2.591      3.706
REMARK  Name = 
REMARK  15 active torsions:
REMARK  status: ('A' for Active; 'I' for Inactive)
REMARK    1  A    between atoms: C_1  and  C_2
REMARK    2  A    between atoms: C_2  and  C_25
REMARK    3  A    between atoms: C_3  and  C_4
REMARK    4  A    between atoms: C_4  and  C_5
REMARK    5  A    between atoms: C_6  and  O_7
REMARK    6  A    between atoms: C_11  and  O_12
REMARK    7  A    between atoms: C_16  and  C_17
REMARK    8  A    between atoms: C_20  and  O_21
REMARK    9  A    between atoms: C_25  and  C_26
REMARK   10  A    between atoms: C_26  and  C_27
REMARK   11  A    between atoms: C_27  and  O_28
REMARK   12  A    between atoms: C_27  and  C_29
REMARK   13  A    between atoms: C_29  and  C_30
REMARK   14  A    between atoms: C_29  and  C_31
REMARK   15  A    between atoms: C_29  and  O_32
REMARK                            x       y       z     vdW  Elec       q    Type
REMARK                         _______ _______ _______ _____ _____    ______ ____
ROOT
ATOM      1  C   UNL     1       1.734   8.541  19.120  0.00  0.00    +0.000 A 
ATOM      2  C   UNL     1       1.455   8.116  20.428  0.00  0.00    +0.000 A 
ATOM      3  C   UNL     1       0.845   8.966  21.350  0.00  0.00    +0.000 A 
ATOM      4  C   UNL     1       0.500  10.264  20.988  0.00  0.00    +0.000 A 
ATOM      5  C   UNL     1       0.772  10.713  19.703  0.00  0.00    +0.000 A 
ATOM      6  C   UNL     1       1.403   9.866  18.778  0.00  0.00    +0.000 A 
ATOM      7  C   UNL     1       0.306  12.060  19.325  0.00  0.00    +0.000 C 
ATOM      8  O   UNL     1       0.623  12.534  18.235  0.00  0.00    +0.000 OA
ATOM      9  C   UNL     1      -0.633  12.736  20.274  0.00  0.00    +0.000 C 
ATOM     10  C   UNL     1      -0.205  12.411  21.696  0.00  0.00    +0.000 C 
ATOM     11  O   UNL     1      -0.142  10.999  21.941  0.00  0.00    +0.000 OA
ENDROOT
BRANCH  10  12
ATOM     12  C   UNL     1      -1.200  13.002  22.682  0.00  0.00    +0.000 A 
ATOM     13  C   UNL     1      -2.408  12.342  22.973  0.00  0.00    +0.000 A 
ATOM     14  C   UNL     1      -3.328  12.889  23.866  0.00  0.00    +0.000 A 
ATOM     15  C   UNL     1      -3.051  14.111  24.465  0.00  0.00    +0.000 A 
ATOM     16  C   UNL     1      -1.871  14.790  24.183  0.00  0.00    +0.000 A 
ATOM     17  C   UNL     1      -0.946  14.239  23.294  0.00  0.00    +0.000 A 
BRANCH  15  18
ATOM     18  O   UNL     1      -3.924  14.683  25.342  0.00  0.00    +0.000 OA
ATOM     19  H   UNL     1      -4.083  14.060  26.069  0.00  0.00    +0.000 HD
ENDBRANCH  15  18
ENDBRANCH  10  12
BRANCH   2  20
ATOM     20  O   UNL     1       1.736   6.862  20.891  0.00  0.00    +0.000 OA
ATOM     21  H   UNL     1       2.694   6.728  20.952  0.00  0.00    +0.000 HD
ENDBRANCH   2  20
BRANCH   6  22
ATOM     22  O   UNL     1       1.693  10.288  17.505  0.00  0.00    +0.000 OA
ATOM     23  H   UNL     1       1.577   9.532  16.885  0.00  0.00    +0.000 HD
ENDBRANCH   6  22
BRANCH   1  24
ATOM     24  C   UNL     1       2.353   7.630  18.082  0.00  0.00    +0.000 C 
BRANCH  24  27
ATOM     25  C   UNL     1       2.909   4.591  17.906  0.00  0.00    +0.000 C 
ATOM     26  C   UNL     1       3.833   5.601  18.530  0.00  0.00    +0.000 C 
ATOM     27  C   UNL     1       3.589   6.928  18.578  0.00  0.00    +0.000 C 
BRANCH  26  28
ATOM     28  C   UNL     1       5.124   5.019  19.070  0.00  0.00    +0.000 C 
BRANCH  28  29
ATOM     29  C   UNL     1       6.404   5.584  18.440  0.00  0.00    +0.000 C 
BRANCH  29  30
ATOM     30  C   UNL     1       6.302   5.843  16.929  0.00  0.00    +0.000 C 
BRANCH  30  31
ATOM     31  C   UNL     1       6.805   4.666  16.044  0.00  0.00    +0.000 C 
ATOM     32  C   UNL     1       5.772   3.547  15.883  0.00  0.00    +0.000 C 
ATOM     33  C   UNL     1       7.276   5.150  14.671  0.00  0.00    +0.000 C 
BRANCH  31  34
ATOM     34  O   UNL     1       7.945   4.082  16.698  0.00  0.00    +0.000 OA
ATOM     35  H   UNL     1       8.668   4.101  16.041  0.00  0.00    +0.000 HD
ENDBRANCH  31  34
ENDBRANCH  30  31
BRANCH  30  36
ATOM     36  O   UNL     1       7.035   7.031  16.576  0.00  0.00    +0.000 OA
ATOM     37  H   UNL     1       6.545   7.492  15.875  0.00  0.00    +0.000 HD
ENDBRANCH  30  36
ENDBRANCH  29  30
ENDBRANCH  28  29
ENDBRANCH  26  28
ENDBRANCH  24  27
ENDBRANCH   1  24
TORSDOF 12
ENDMDL
