MODEL 1
REMARK VINA RESULT:      -8.9      0.000      0.000
REMARK  Name = 
REMARK  10 active torsions:
REMARK  status: ('A' for Active; 'I' for Inactive)
REMARK    1  A    between atoms: C_1  and  C_2
REMARK    2  A    between atoms: C_5  and  C_6
REMARK    3  A    between atoms: C_6  and  C_7
REMARK    4  A    between atoms: C_7  and  N_8
REMARK    5  A    between atoms: N_8  and  C_9
REMARK    6  A    between atoms: N_18  and  C1*_19
REMARK    7  A    between atoms: C4*_21  and  C5*_22
REMARK    8  A    between atoms: C5*_22  and  O5*_23
REMARK    9  A    between atoms: C3*_24  and  O3*_25
REMARK   10  A    between atoms: C2*_26  and  O2*_27
REMARK                            x       y       z     vdW  Elec       q    Type
REMARK                         _______ _______ _______ _____ _____    ______ ____
ROOT
ATOM      1  C   UNL     1       7.348   6.505  17.596  0.00  0.00    +0.000 A 
ATOM      2  N   UNL     1       7.488   6.272  16.264  0.00  0.00    +0.000 NA
ATOM      3  C   UNL     1       6.608   5.482  15.627  0.00  0.00    +0.000 A 
ATOM      4  N   UNL     1       6.824   5.291  14.276  0.00  0.00    +0.000 N 
ATOM      5  N   UNL     1       5.569   4.835  16.169  0.00  0.00    +0.000 NA
ATOM      6  C   UNL     1       5.447   5.082  17.479  0.00  0.00    +0.000 A 
ATOM      7  C   UNL     1       6.267   5.885  18.253  0.00  0.00    +0.000 A 
ATOM      8  N   UNL     1       5.819   5.924  19.559  0.00  0.00    +0.000 NA
ATOM      9  C   UNL     1       4.747   5.156  19.569  0.00  0.00    +0.000 A 
ATOM     10  N   UNL     1       4.486   4.618  18.335  0.00  0.00    +0.000 N 
ATOM     11  H   UNL     1       7.793   5.486  14.068  0.00  0.00    +0.000 HD
ATOM     12  H   UNL     1       6.469   4.389  13.990  0.00  0.00    +0.000 HD
ENDROOT
BRANCH  10  13
ATOM     13  C1* UNL     1       3.374   3.748  18.015  0.00  0.00    +0.000 C 
ATOM     14  O4* UNL     1       2.132   4.446  18.260  0.00  0.00    +0.000 OA
ATOM     15  C4* UNL     1       1.206   3.531  18.903  0.00  0.00    +0.000 C 
ATOM     16  C3* UNL     1       1.840   2.144  18.834  0.00  0.00    +0.000 C 
ATOM     17  C2* UNL     1       3.332   2.434  18.795  0.00  0.00    +0.000 C 
BRANCH  16  18
ATOM     18  O3* UNL     1       1.495   1.456  17.615  0.00  0.00    +0.000 OA
ATOM     19  H3* UNL     1       0.889   0.720  17.821  0.00  0.00    +0.000 HD
ENDBRANCH  16  18
BRANCH  17  20
ATOM     20  O2* UNL     1       4.048   1.387  18.137  0.00  0.00    +0.000 OA
ATOM     21  H2* UNL     1       4.672   1.025  18.802  0.00  0.00    +0.000 HD
ENDBRANCH  17  20
BRANCH  15  22
ATOM     22  C5* UNL     1       0.942   3.998  20.336  0.00  0.00    +0.000 C 
BRANCH  22  23
ATOM     23  O5* UNL     1       0.790   2.871  21.195  0.00  0.00    +0.000 OA
ATOM     24  H5* UNL     1      -0.124   2.550  21.061  0.00  0.00    +0.000 HD
ENDBRANCH  22  23
ENDBRANCH  15  22
ENDBRANCH  10  13
BRANCH   1  25
ATOM     25  N   UNL     1       8.256   7.329  18.278  0.00  0.00    +0.000 N 
ATOM     26  H   UNL     1       8.208   7.125  19.277  0.00  0.00    +0.000 HD
BRANCH  25  27
ATOM     27  C   UNL     1       8.197   8.742  17.916  0.00  0.00    +0.000 C 
BRANCH  27  28
ATOM     28  C   UNL     1       8.916   9.585  18.978  0.00  0.00    +0.000 C 
BRANCH  28  33
ATOM     29  C   UNL     1      11.229  14.532  16.927  0.00  0.00    +0.000 C 
ATOM     30  C   UNL     1      10.626  13.251  17.425  0.00  0.00    +0.000 A 
ATOM     31  C   UNL     1       9.239  13.070  17.453  0.00  0.00    +0.000 A 
ATOM     32  C   UNL     1       8.689  11.881  17.943  0.00  0.00    +0.000 A 
ATOM     33  C   UNL     1       9.514  10.855  18.420  0.00  0.00    +0.000 A 
ATOM     34  C   UNL     1      10.903  11.030  18.372  0.00  0.00    +0.000 A 
ATOM     35  C   UNL     1      11.452  12.219  17.883  0.00  0.00    +0.000 A 
ENDBRANCH  28  33
ENDBRANCH  27  28
ENDBRANCH  25  27
ENDBRANCH   1  25
TORSDOF 9
ENDMDL
MODEL 2
REMARK VINA RESULT:      -8.8      1.876      2.831
REMARK  Name = 
REMARK  10 active torsions:
REMARK  status: ('A' for Active; 'I' for Inactive)
REMARK    1  A    between atoms: C_1  and  C_2
REMARK    2  A    between atoms: C_5  and  C_6
REMARK    3  A    between atoms: C_6  and  C_7
REMARK    4  A    between atoms: C_7  and  N_8
REMARK    5  A    between atoms: N_8  and  C_9
REMARK    6  A    between atoms: N_18  and  C1*_19
REMARK    7  A    between atoms: C4*_21  and  C5*_22
REMARK    8  A    between atoms: C5*_22  and  O5*_23
REMARK    9  A    between atoms: C3*_24  and  O3*_25
REMARK   10  A    between atoms: C2*_26  and  O2*_27
REMARK                            x       y       z     vdW  Elec       q    Type
REMARK                         _______ _______ _______ _____ _____    ______ ____
ROOT
ATOM      1  C   UNL     1       7.617   7.311  17.795  0.00  0.00    +0.000 A 
ATOM      2  N   UNL     1       8.241   6.814  18.896  0.00  0.00    +0.000 NA
ATOM      3  C   UNL     1       7.849   5.638  19.414  0.00  0.00    +0.000 A 
ATOM      4  N   UNL     1       8.531   5.205  20.535  0.00  0.00    +0.000 N 
ATOM      5  N   UNL     1       6.850   4.860  18.979  0.00  0.00    +0.000 NA
ATOM      6  C   UNL     1       6.253   5.366  17.892  0.00  0.00    +0.000 A 
ATOM      7  C   UNL     1       6.564   6.551  17.248  0.00  0.00    +0.000 A 
ATOM      8  N   UNL     1       5.751   6.735  16.147  0.00  0.00    +0.000 NA
ATOM      9  C   UNL     1       4.964   5.677  16.130  0.00  0.00    +0.000 A 
ATOM     10  N   UNL     1       5.225   4.823  17.170  0.00  0.00    +0.000 N 
ATOM     11  H   UNL     1       8.965   6.001  20.981  0.00  0.00    +0.000 HD
ATOM     12  H   UNL     1       7.929   4.632  21.110  0.00  0.00    +0.000 HD
ENDROOT
BRANCH  10  13
ATOM     13  C1* UNL     1       4.546   3.569  17.420  0.00  0.00    +0.000 C 
ATOM     14  O4* UNL     1       3.277   3.563  16.726  0.00  0.00    +0.000 OA
ATOM     15  C4* UNL     1       2.273   2.990  17.603  0.00  0.00    +0.000 C 
ATOM     16  C3* UNL     1       3.017   2.408  18.803  0.00  0.00    +0.000 C 
ATOM     17  C2* UNL     1       4.274   3.260  18.892  0.00  0.00    +0.000 C 
BRANCH  16  18
ATOM     18  O3* UNL     1       3.427   1.046  18.570  0.00  0.00    +0.000 OA
ATOM     19  H3* UNL     1       4.399   1.010  18.499  0.00  0.00    +0.000 HD
ENDBRANCH  16  18
BRANCH  17  20
ATOM     20  O2* UNL     1       5.346   2.542  19.505  0.00  0.00    +0.000 OA
ATOM     21  H2* UNL     1       6.122   3.141  19.482  0.00  0.00    +0.000 HD
ENDBRANCH  17  20
BRANCH  15  22
ATOM     22  C5* UNL     1       1.262   4.070  17.994  0.00  0.00    +0.000 C 
BRANCH  22  23
ATOM     23  O5* UNL     1       1.810   5.362  17.749  0.00  0.00    +0.000 OA
ATOM     24  H5* UNL     1       1.533   5.921  18.502  0.00  0.00    +0.000 HD
ENDBRANCH  22  23
ENDBRANCH  15  22
ENDBRANCH  10  13
BRANCH   1  25
ATOM     25  N   UNL     1       8.012   8.536  17.240  0.00  0.00    +0.000 N 
ATOM     26  H   UNL     1       8.850   8.393  16.674  0.00  0.00    +0.000 HD
BRANCH  25  27
ATOM     27  C   UNL     1       8.066   9.651  18.182  0.00  0.00    +0.000 C 
BRANCH  27  28
ATOM     28  C   UNL     1       9.355  10.455  17.969  0.00  0.00    +0.000 C 
BRANCH  28  33
ATOM     29  C   UNL     1      10.146  14.750  21.835  0.00  0.00    +0.000 C 
ATOM     30  C   UNL     1       9.913  13.640  20.852  0.00  0.00    +0.000 A 
ATOM     31  C   UNL     1       9.915  12.303  21.262  0.00  0.00    +0.000 A 
ATOM     32  C   UNL     1       9.721  11.276  20.332  0.00  0.00    +0.000 A 
ATOM     33  C   UNL     1       9.531  11.567  18.975  0.00  0.00    +0.000 A 
ATOM     34  C   UNL     1       9.510  12.908  18.571  0.00  0.00    +0.000 A 
ATOM     35  C   UNL     1       9.703  13.934  19.501  0.00  0.00    +0.000 A 
ENDBRANCH  28  33
ENDBRANCH  27  28
ENDBRANCH  25  27
ENDBRANCH   1  25
TORSDOF 9
ENDMDL
MODEL 3
REMARK VINA RESULT:      -8.7      1.890      2.654
REMARK  Name = 
REMARK  10 active torsions:
REMARK  status: ('A' for Active; 'I' for Inactive)
REMARK    1  A    between atoms: C_1  and  C_2
REMARK    2  A    between atoms: C_5  and  C_6
REMARK    3  A    between atoms: C_6  and  C_7
REMARK    4  A    between atoms: C_7  and  N_8
REMARK    5  A    between atoms: N_8  and  C_9
REMARK    6  A    between atoms: N_18  and  C1*_19
REMARK    7  A    between atoms: C4*_21  and  C5*_22
REMARK    8  A    between atoms: C5*_22  and  O5*_23
REMARK    9  A    between atoms: C3*_24  and  O3*_25
REMARK   10  A    between atoms: C2*_26  and  O2*_27
REMARK                            x       y       z     vdW  Elec       q    Type
REMARK                         _______ _______ _______ _____ _____    ______ ____
ROOT
ATOM      1  C   UNL     1       7.581   7.391  17.949  0.00  0.00    +0.000 A 
ATOM      2  N   UNL     1       8.262   6.831  18.984  0.00  0.00    +0.000 NA
ATOM      3  C   UNL     1       7.914   5.614  19.435  0.00  0.00    +0.000 A 
ATOM      4  N   UNL     1       8.652   5.119  20.492  0.00  0.00    +0.000 N 
ATOM      5  N   UNL     1       6.908   4.850  18.991  0.00  0.00    +0.000 NA
ATOM      6  C   UNL     1       6.254   5.418  17.970  0.00  0.00    +0.000 A 
ATOM      7  C   UNL     1       6.518   6.651  17.398  0.00  0.00    +0.000 A 
ATOM      8  N   UNL     1       5.653   6.894  16.348  0.00  0.00    +0.000 NA
ATOM      9  C   UNL     1       4.884   5.826  16.292  0.00  0.00    +0.000 A 
ATOM     10  N   UNL     1       5.204   4.907  17.258  0.00  0.00    +0.000 N 
ATOM     11  H   UNL     1       9.093   5.890  20.974  0.00  0.00    +0.000 HD
ATOM     12  H   UNL     1       8.085   4.496  21.052  0.00  0.00    +0.000 HD
ENDROOT
BRANCH  10  13
ATOM     13  C1* UNL     1       4.557   3.626  17.448  0.00  0.00    +0.000 C 
ATOM     14  O4* UNL     1       3.299   3.612  16.737  0.00  0.00    +0.000 OA
ATOM     15  C4* UNL     1       2.299   2.978  17.576  0.00  0.00    +0.000 C 
ATOM     16  C3* UNL     1       3.042   2.370  18.763  0.00  0.00    +0.000 C 
ATOM     17  C2* UNL     1       4.274   3.252  18.903  0.00  0.00    +0.000 C 
BRANCH  16  18
ATOM     18  O3* UNL     1       3.493   1.030  18.484  0.00  0.00    +0.000 OA
ATOM     19  H3* UNL     1       2.759   0.517  18.098  0.00  0.00    +0.000 HD
ENDBRANCH  16  18
BRANCH  17  20
ATOM     20  O2* UNL     1       5.357   2.540  19.503  0.00  0.00    +0.000 OA
ATOM     21  H2* UNL     1       5.614   1.844  18.861  0.00  0.00    +0.000 HD
ENDBRANCH  17  20
BRANCH  15  22
ATOM     22  C5* UNL     1       1.253   4.014  17.993  0.00  0.00    +0.000 C 
BRANCH  22  23
ATOM     23  O5* UNL     1       0.900   3.827  19.361  0.00  0.00    +0.000 OA
ATOM     24  H5* UNL     1       0.923   4.715  19.770  0.00  0.00    +0.000 HD
ENDBRANCH  22  23
ENDBRANCH  15  22
ENDBRANCH  10  13
BRANCH   1  25
ATOM     25  N   UNL     1       7.932   8.659  17.464  0.00  0.00    +0.000 N 
ATOM     26  H   UNL     1       8.390   8.556  16.558  0.00  0.00    +0.000 HD
BRANCH  25  27
ATOM     27  C   UNL     1       8.615   9.519  18.427  0.00  0.00    +0.000 C 
BRANCH  27  28
ATOM     28  C   UNL     1       8.907  10.885  17.792  0.00  0.00    +0.000 C 
BRANCH  28  33
ATOM     29  C   UNL     1      10.352  14.934  21.736  0.00  0.00    +0.000 C 
ATOM     30  C   UNL     1      10.008  13.898  20.706  0.00  0.00    +0.000 A 
ATOM     31  C   UNL     1       9.612  14.267  19.416  0.00  0.00    +0.000 A 
ATOM     32  C   UNL     1       9.269  13.293  18.472  0.00  0.00    +0.000 A 
ATOM     33  C   UNL     1       9.309  11.933  18.803  0.00  0.00    +0.000 A 
ATOM     34  C   UNL     1       9.724  11.565  20.089  0.00  0.00    +0.000 A 
ATOM     35  C   UNL     1      10.067  12.539  21.032  0.00  0.00    +0.000 A 
ENDBRANCH  28  33
ENDBRANCH  27  28
ENDBRANCH  25  27
ENDBRANCH   1  25
TORSDOF 9
ENDMDL
MODEL 4
REMARK VINA RESULT:      -8.7      1.651      2.445
REMARK  Name = 
REMARK  10 active torsions:
REMARK  status: ('A' for Active; 'I' for Inactive)
REMARK    1  A    between atoms: C_1  and  C_2
REMARK    2  A    between atoms: C_5  and  C_6
REMARK    3  A    between atoms: C_6  and  C_7
REMARK    4  A    between atoms: C_7  and  N_8
REMARK    5  A    between atoms: N_8  and  C_9
REMARK    6  A    between atoms: N_18  and  C1*_19
REMARK    7  A    between atoms: C4*_21  and  C5*_22
REMARK    8  A    between atoms: C5*_22  and  O5*_23
REMARK    9  A    between atoms: C3*_24  and  O3*_25
REMARK   10  A    between atoms: C2*_26  and  O2*_27
REMARK                            x       y       z     vdW  Elec       q    Type
REMARK                         _______ _______ _______ _____ _____    ______ ____
ROOT
ATOM      1  C   UNL     1       7.553   7.337  17.825  0.00  0.00    +0.000 A 
ATOM      2  N   UNL     1       8.234   6.769  18.855  0.00  0.00    +0.000 NA
ATOM      3  C   UNL     1       7.708   5.720  19.509  0.00  0.00    +0.000 A 
ATOM      4  N   UNL     1       8.461   5.205  20.546  0.00  0.00    +0.000 N 
ATOM      5  N   UNL     1       6.520   5.147  19.284  0.00  0.00    +0.000 NA
ATOM      6  C   UNL     1       5.868   5.718  18.263  0.00  0.00    +0.000 A 
ATOM      7  C   UNL     1       6.299   6.787  17.496  0.00  0.00    +0.000 A 
ATOM      8  N   UNL     1       5.373   7.087  16.516  0.00  0.00    +0.000 NA
ATOM      9  C   UNL     1       4.402   6.213  16.692  0.00  0.00    +0.000 A 
ATOM     10  N   UNL     1       4.652   5.368  17.742  0.00  0.00    +0.000 N 
ATOM     11  H   UNL     1       9.108   5.913  20.865  0.00  0.00    +0.000 HD
ATOM     12  H   UNL     1       7.858   4.791  21.243  0.00  0.00    +0.000 HD
ENDROOT
BRANCH  10  13
ATOM     13  C1* UNL     1       3.790   4.290  18.179  0.00  0.00    +0.000 C 
ATOM     14  O4* UNL     1       2.448   4.794  18.364  0.00  0.00    +0.000 OA
ATOM     15  C4* UNL     1       1.902   4.222  19.581  0.00  0.00    +0.000 C 
ATOM     16  C3* UNL     1       2.877   3.137  20.033  0.00  0.00    +0.000 C 
ATOM     17  C2* UNL     1       4.214   3.605  19.478  0.00  0.00    +0.000 C 
BRANCH  16  18
ATOM     18  O3* UNL     1       2.577   1.862  19.433  0.00  0.00    +0.000 OA
ATOM     19  H3* UNL     1       1.651   1.861  19.126  0.00  0.00    +0.000 HD
ENDBRANCH  16  18
BRANCH  17  20
ATOM     20  O2* UNL     1       5.096   2.505  19.251  0.00  0.00    +0.000 OA
ATOM     21  H2* UNL     1       4.538   1.777  18.900  0.00  0.00    +0.000 HD
ENDBRANCH  17  20
BRANCH  15  22
ATOM     22  C5* UNL     1       1.712   5.326  20.622  0.00  0.00    +0.000 C 
BRANCH  22  23
ATOM     23  O5* UNL     1       2.398   6.506  20.213  0.00  0.00    +0.000 OA
ATOM     24  H5* UNL     1       1.937   7.251  20.646  0.00  0.00    +0.000 HD
ENDBRANCH  22  23
ENDBRANCH  15  22
ENDBRANCH  10  13
BRANCH   1  25
ATOM     25  N   UNL     1       8.087   8.432  17.130  0.00  0.00    +0.000 N 
ATOM     26  H   UNL     1       8.978   8.161  16.713  0.00  0.00    +0.000 HD
BRANCH  25  27
ATOM     27  C   UNL     1       8.090   9.690  17.871  0.00  0.00    +0.000 C 
BRANCH  27  28
ATOM     28  C   UNL     1       9.163   9.650  18.967  0.00  0.00    +0.000 C 
BRANCH  28  33
ATOM     29  C   UNL     1      12.147  14.630  19.537  0.00  0.00    +0.000 C 
ATOM     30  C   UNL     1      11.351  13.365  19.394  0.00  0.00    +0.000 A 
ATOM     31  C   UNL     1      10.725  12.778  20.498  0.00  0.00    +0.000 A 
ATOM     32  C   UNL     1      10.008  11.585  20.357  0.00  0.00    +0.000 A 
ATOM     33  C   UNL     1       9.911  10.954  19.110  0.00  0.00    +0.000 A 
ATOM     34  C   UNL     1      10.522  11.554  18.002  0.00  0.00    +0.000 A 
ATOM     35  C   UNL     1      11.238  12.747  18.144  0.00  0.00    +0.000 A 
ENDBRANCH  28  33
ENDBRANCH  27  28
ENDBRANCH  25  27
ENDBRANCH   1  25
TORSDOF 9
ENDMDL
MODEL 5
REMARK VINA RESULT:      -8.6      1.244      1.545
REMARK  Name = 
REMARK  10 active torsions:
REMARK  status: ('A' for Active; 'I' for Inactive)
REMARK    1  A    between atoms: C_1  and  C_2
REMARK    2  A    between atoms: C_5  and  C_6
REMARK    3  A    between atoms: C_6  and  C_7
REMARK    4  A    between atoms: C_7  and  N_8
REMARK    5  A    between atoms: N_8  and  C_9
REMARK    6  A    between atoms: N_18  and  C1*_19
REMARK    7  A    between atoms: C4*_21  and  C5*_22
REMARK    8  A    between atoms: C5*_22  and  O5*_23
REMARK    9  A    between atoms: C3*_24  and  O3*_25
REMARK   10  A    between atoms: C2*_26  and  O2*_27
REMARK                            x       y       z     vdW  Elec       q    Type
REMARK                         _______ _______ _______ _____ _____    ______ ____
ROOT
ATOM      1  C   UNL     1       7.077   6.000  16.454  0.00  0.00    +0.000 A 
ATOM      2  N   UNL     1       7.086   5.294  15.293  0.00  0.00    +0.000 NA
ATOM      3  C   UNL     1       6.147   4.359  15.071  0.00  0.00    +0.000 A 
ATOM      4  N   UNL     1       6.228   3.682  13.870  0.00  0.00    +0.000 N 
ATOM      5  N   UNL     1       5.165   3.992  15.905  0.00  0.00    +0.000 NA
ATOM      6  C   UNL     1       5.173   4.703  17.039  0.00  0.00    +0.000 A 
ATOM      7  C   UNL     1       6.066   5.702  17.388  0.00  0.00    +0.000 A 
ATOM      8  N   UNL     1       5.748   6.228  18.625  0.00  0.00    +0.000 NA
ATOM      9  C   UNL     1       4.682   5.556  19.012  0.00  0.00    +0.000 A 
ATOM     10  N   UNL     1       4.300   4.617  18.089  0.00  0.00    +0.000 N 
ATOM     11  H   UNL     1       7.173   3.753  13.517  0.00  0.00    +0.000 HD
ATOM     12  H   UNL     1       5.846   2.752  13.967  0.00  0.00    +0.000 HD
ENDROOT
BRANCH  10  13
ATOM     13  C1* UNL     1       3.161   3.732  18.212  0.00  0.00    +0.000 C 
ATOM     14  O4* UNL     1       2.106   4.404  18.936  0.00  0.00    +0.000 OA
ATOM     15  C4* UNL     1       1.516   3.464  19.871  0.00  0.00    +0.000 C 
ATOM     16  C3* UNL     1       2.087   2.089  19.534  0.00  0.00    +0.000 C 
ATOM     17  C2* UNL     1       3.442   2.406  18.920  0.00  0.00    +0.000 C 
BRANCH  16  18
ATOM     18  O3* UNL     1       1.302   1.412  18.533  0.00  0.00    +0.000 OA
ATOM     19  H3* UNL     1       1.375   1.892  17.688  0.00  0.00    +0.000 HD
ENDBRANCH  16  18
BRANCH  17  20
ATOM     20  O2* UNL     1       3.855   1.382  18.015  0.00  0.00    +0.000 OA
ATOM     21  H2* UNL     1       4.121   0.618  18.571  0.00  0.00    +0.000 HD
ENDBRANCH  17  20
BRANCH  15  22
ATOM     22  C5* UNL     1       1.827   3.906  21.303  0.00  0.00    +0.000 C 
BRANCH  22  23
ATOM     23  O5* UNL     1       2.265   5.262  21.310  0.00  0.00    +0.000 OA
ATOM     24  H5* UNL     1       3.114   5.274  20.823  0.00  0.00    +0.000 HD
ENDBRANCH  22  23
ENDBRANCH  15  22
ENDBRANCH  10  13
BRANCH   1  25
ATOM     25  N   UNL     1       8.049   6.981  16.703  0.00  0.00    +0.000 N 
ATOM     26  H   UNL     1       8.893   6.534  17.060  0.00  0.00    +0.000 HD
BRANCH  25  27
ATOM     27  C   UNL     1       7.576   8.139  17.458  0.00  0.00    +0.000 C 
BRANCH  27  28
ATOM     28  C   UNL     1       8.547   8.448  18.605  0.00  0.00    +0.000 C 
BRANCH  28  33
ATOM     29  C   UNL     1       9.941  14.100  18.976  0.00  0.00    +0.000 C 
ATOM     30  C   UNL     1       9.560  12.650  18.903  0.00  0.00    +0.000 A 
ATOM     31  C   UNL     1       9.928  11.756  19.914  0.00  0.00    +0.000 A 
ATOM     32  C   UNL     1       9.590  10.402  19.823  0.00  0.00    +0.000 A 
ATOM     33  C   UNL     1       8.883   9.916  18.716  0.00  0.00    +0.000 A 
ATOM     34  C   UNL     1       8.498  10.816  17.714  0.00  0.00    +0.000 A 
ATOM     35  C   UNL     1       8.837  12.169  17.806  0.00  0.00    +0.000 A 
ENDBRANCH  28  33
ENDBRANCH  27  28
ENDBRANCH  25  27
ENDBRANCH   1  25
TORSDOF 9
ENDMDL
MODEL 6
REMARK VINA RESULT:      -8.4      0.947      1.300
REMARK  Name = 
REMARK  10 active torsions:
REMARK  status: ('A' for Active; 'I' for Inactive)
REMARK    1  A    between atoms: C_1  and  C_2
REMARK    2  A    between atoms: C_5  and  C_6
REMARK    3  A    between atoms: C_6  and  C_7
REMARK    4  A    between atoms: C_7  and  N_8
REMARK    5  A    between atoms: N_8  and  C_9
REMARK    6  A    between atoms: N_18  and  C1*_19
REMARK    7  A    between atoms: C4*_21  and  C5*_22
REMARK    8  A    between atoms: C5*_22  and  O5*_23
REMARK    9  A    between atoms: C3*_24  and  O3*_25
REMARK   10  A    between atoms: C2*_26  and  O2*_27
REMARK                            x       y       z     vdW  Elec       q    Type
REMARK                         _______ _______ _______ _____ _____    ______ ____
ROOT
ATOM      1  C   UNL     1       6.972   6.861  17.700  0.00  0.00    +0.000 A 
ATOM      2  N   UNL     1       6.518   7.200  16.464  0.00  0.00    +0.000 NA
ATOM      3  C   UNL     1       5.433   6.591  15.958  0.00  0.00    +0.000 A 
ATOM      4  N   UNL     1       5.040   6.990  14.695  0.00  0.00    +0.000 N 
ATOM      5  N   UNL     1       4.715   5.619  16.534  0.00  0.00    +0.000 NA
ATOM      6  C   UNL     1       5.176   5.304  17.751  0.00  0.00    +0.000 A 
ATOM      7  C   UNL     1       6.266   5.860  18.396  0.00  0.00    +0.000 A 
ATOM      8  N   UNL     1       6.426   5.303  19.651  0.00  0.00    +0.000 NA
ATOM      9  C   UNL     1       5.447   4.426  19.755  0.00  0.00    +0.000 A 
ATOM     10  N   UNL     1       4.668   4.385  18.628  0.00  0.00    +0.000 N 
ATOM     11  H   UNL     1       5.829   7.411  14.224  0.00  0.00    +0.000 HD
ATOM     12  H   UNL     1       4.578   6.229  14.217  0.00  0.00    +0.000 HD
ENDROOT
BRANCH  10  13
ATOM     13  C1* UNL     1       3.508   3.540  18.438  0.00  0.00    +0.000 C 
ATOM     14  O4* UNL     1       2.308   4.319  18.638  0.00  0.00    +0.000 OA
ATOM     15  C4* UNL     1       1.364   3.527  19.405  0.00  0.00    +0.000 C 
ATOM     16  C3* UNL     1       1.931   2.111  19.474  0.00  0.00    +0.000 C 
ATOM     17  C2* UNL     1       3.433   2.322  19.360  0.00  0.00    +0.000 C 
BRANCH  16  18
ATOM     18  O3* UNL     1       1.516   1.311  18.349  0.00  0.00    +0.000 OA
ATOM     19  H3* UNL     1       0.554   1.162  18.398  0.00  0.00    +0.000 HD
ENDBRANCH  16  18
BRANCH  17  20
ATOM     20  O2* UNL     1       4.079   1.177  18.803  0.00  0.00    +0.000 OA
ATOM     21  H2* UNL     1       4.919   1.501  18.413  0.00  0.00    +0.000 HD
ENDBRANCH  17  20
BRANCH  15  22
ATOM     22  C5* UNL     1       1.168   4.160  20.784  0.00  0.00    +0.000 C 
BRANCH  22  23
ATOM     23  O5* UNL     1       1.465   5.552  20.727  0.00  0.00    +0.000 OA
ATOM     24  H5* UNL     1       1.364   5.888  21.640  0.00  0.00    +0.000 HD
ENDBRANCH  22  23
ENDBRANCH  15  22
ENDBRANCH  10  13
BRANCH   1  25
ATOM     25  N   UNL     1       8.102   7.487  18.245  0.00  0.00    +0.000 N 
ATOM     26  H   UNL     1       8.183   7.233  19.230  0.00  0.00    +0.000 HD
BRANCH  25  27
ATOM     27  C   UNL     1       8.222   8.911  17.945  0.00  0.00    +0.000 C 
BRANCH  27  28
ATOM     28  C   UNL     1       9.099   9.596  19.000  0.00  0.00    +0.000 C 
BRANCH  28  33
ATOM     29  C   UNL     1      11.288  14.658  17.099  0.00  0.00    +0.000 C 
ATOM     30  C   UNL     1      10.728  13.366  17.618  0.00  0.00    +0.000 A 
ATOM     31  C   UNL     1      11.556  12.412  18.219  0.00  0.00    +0.000 A 
ATOM     32  C   UNL     1      11.026  11.201  18.677  0.00  0.00    +0.000 A 
ATOM     33  C   UNL     1       9.662  10.918  18.535  0.00  0.00    +0.000 A 
ATOM     34  C   UNL     1       8.832  11.883  17.950  0.00  0.00    +0.000 A 
ATOM     35  C   UNL     1       9.362  13.094  17.493  0.00  0.00    +0.000 A 
ENDBRANCH  28  33
ENDBRANCH  27  28
ENDBRANCH  25  27
ENDBRANCH   1  25
TORSDOF 9
ENDMDL
MODEL 7
REMARK VINA RESULT:      -8.3      1.572      2.674
REMARK  Name = 
REMARK  10 active torsions:
REMARK  status: ('A' for Active; 'I' for Inactive)
REMARK    1  A    between atoms: C_1  and  C_2
REMARK    2  A    between atoms: C_5  and  C_6
REMARK    3  A    between atoms: C_6  and  C_7
REMARK    4  A    between atoms: C_7  and  N_8
REMARK    5  A    between atoms: N_8  and  C_9
REMARK    6  A    between atoms: N_18  and  C1*_19
REMARK    7  A    between atoms: C4*_21  and  C5*_22
REMARK    8  A    between atoms: C5*_22  and  O5*_23
REMARK    9  A    between atoms: C3*_24  and  O3*_25
REMARK   10  A    between atoms: C2*_26  and  O2*_27
REMARK                            x       y       z     vdW  Elec       q    Type
REMARK                         _______ _______ _______ _____ _____    ______ ____
ROOT
ATOM      1  C   UNL     1       7.456   7.066  17.960  0.00  0.00    +0.000 A 
ATOM      2  N   UNL     1       8.128   6.544  19.021  0.00  0.00    +0.000 NA
ATOM      3  C   UNL     1       7.549   5.600  19.782  0.00  0.00    +0.000 A 
ATOM      4  N   UNL     1       8.296   5.126  20.842  0.00  0.00    +0.000 N 
ATOM      5  N   UNL     1       6.317   5.097  19.640  0.00  0.00    +0.000 NA
ATOM      6  C   UNL     1       5.676   5.621  18.587  0.00  0.00    +0.000 A 
ATOM      7  C   UNL     1       6.157   6.581  17.715  0.00  0.00    +0.000 A 
ATOM      8  N   UNL     1       5.224   6.859  16.734  0.00  0.00    +0.000 NA
ATOM      9  C   UNL     1       4.200   6.078  17.014  0.00  0.00    +0.000 A 
ATOM     10  N   UNL     1       4.422   5.315  18.131  0.00  0.00    +0.000 N 
ATOM     11  H   UNL     1       9.001   5.811  21.079  0.00  0.00    +0.000 HD
ATOM     12  H   UNL     1       7.688   4.823  21.590  0.00  0.00    +0.000 HD
ENDROOT
BRANCH  10  13
ATOM     13  C1* UNL     1       3.500   4.347  18.686  0.00  0.00    +0.000 C 
ATOM     14  O4* UNL     1       3.955   3.947  19.999  0.00  0.00    +0.000 OA
ATOM     15  C4* UNL     1       3.785   2.512  20.131  0.00  0.00    +0.000 C 
ATOM     16  C3* UNL     1       2.971   2.053  18.924  0.00  0.00    +0.000 C 
ATOM     17  C2* UNL     1       3.308   3.080  17.853  0.00  0.00    +0.000 C 
BRANCH  16  18
ATOM     18  O3* UNL     1       1.553   2.130  19.172  0.00  0.00    +0.000 OA
ATOM     19  H3* UNL     1       1.118   1.339  18.801  0.00  0.00    +0.000 HD
ENDBRANCH  16  18
BRANCH  17  20
ATOM     20  O2* UNL     1       2.249   3.207  16.903  0.00  0.00    +0.000 OA
ATOM     21  H2* UNL     1       2.550   3.876  16.250  0.00  0.00    +0.000 HD
ENDBRANCH  17  20
BRANCH  15  22
ATOM     22  C5* UNL     1       5.157   1.842  20.216  0.00  0.00    +0.000 C 
BRANCH  22  23
ATOM     23  O5* UNL     1       5.402   1.399  21.548  0.00  0.00    +0.000 OA
ATOM     24  H5* UNL     1       5.242   2.173  22.124  0.00  0.00    +0.000 HD
ENDBRANCH  22  23
ENDBRANCH  15  22
ENDBRANCH  10  13
BRANCH   1  25
ATOM     25  N   UNL     1       8.044   8.051  17.154  0.00  0.00    +0.000 N 
ATOM     26  H   UNL     1       9.017   7.799  16.973  0.00  0.00    +0.000 HD
BRANCH  25  27
ATOM     27  C   UNL     1       7.816   9.424  17.595  0.00  0.00    +0.000 C 
BRANCH  27  28
ATOM     28  C   UNL     1       8.932   9.859  18.553  0.00  0.00    +0.000 C 
BRANCH  28  33
ATOM     29  C   UNL     1      11.260  14.986  17.025  0.00  0.00    +0.000 C 
ATOM     30  C   UNL     1      10.676  13.669  17.447  0.00  0.00    +0.000 A 
ATOM     31  C   UNL     1      11.467  12.517  17.513  0.00  0.00    +0.000 A 
ATOM     32  C   UNL     1      10.906  11.291  17.883  0.00  0.00    +0.000 A 
ATOM     33  C   UNL     1       9.542  11.191  18.185  0.00  0.00    +0.000 A 
ATOM     34  C   UNL     1       8.755  12.349  18.138  0.00  0.00    +0.000 A 
ATOM     35  C   UNL     1       9.318  13.575  17.768  0.00  0.00    +0.000 A 
ENDBRANCH  28  33
ENDBRANCH  27  28
ENDBRANCH  25  27
ENDBRANCH   1  25
TORSDOF 9
ENDMDL
MODEL 8
REMARK VINA RESULT:      -8.2      1.390      1.757
REMARK  Name = 
REMARK  10 active torsions:
REMARK  status: ('A' for Active; 'I' for Inactive)
REMARK    1  A    between atoms: C_1  and  C_2
REMARK    2  A    between atoms: C_5  and  C_6
REMARK    3  A    between atoms: C_6  and  C_7
REMARK    4  A    between atoms: C_7  and  N_8
REMARK    5  A    between atoms: N_8  and  C_9
REMARK    6  A    between atoms: N_18  and  C1*_19
REMARK    7  A    between atoms: C4*_21  and  C5*_22
REMARK    8  A    between atoms: C5*_22  and  O5*_23
REMARK    9  A    between atoms: C3*_24  and  O3*_25
REMARK   10  A    between atoms: C2*_26  and  O2*_27
REMARK                            x       y       z     vdW  Elec       q    Type
REMARK                         _______ _______ _______ _____ _____    ______ ____
ROOT
ATOM      1  C   UNL     1       6.631   7.239  17.443  0.00  0.00    +0.000 A 
ATOM      2  N   UNL     1       7.559   6.245  17.458  0.00  0.00    +0.000 NA
ATOM      3  C   UNL     1       7.172   4.969  17.616  0.00  0.00    +0.000 A 
ATOM      4  N   UNL     1       8.176   4.021  17.625  0.00  0.00    +0.000 N 
ATOM      5  N   UNL     1       5.922   4.525  17.798  0.00  0.00    +0.000 NA
ATOM      6  C   UNL     1       5.024   5.518  17.775  0.00  0.00    +0.000 A 
ATOM      7  C   UNL     1       5.282   6.868  17.605  0.00  0.00    +0.000 A 
ATOM      8  N   UNL     1       4.106   7.592  17.611  0.00  0.00    +0.000 NA
ATOM      9  C   UNL     1       3.158   6.693  17.783  0.00  0.00    +0.000 A 
ATOM     10  N   UNL     1       3.665   5.424  17.895  0.00  0.00    +0.000 N 
ATOM     11  H   UNL     1       9.049   4.470  17.865  0.00  0.00    +0.000 HD
ATOM     12  H   UNL     1       7.902   3.228  18.188  0.00  0.00    +0.000 HD
ENDROOT
BRANCH  10  13
ATOM     13  C1* UNL     1       2.883   4.219  18.074  0.00  0.00    +0.000 C 
ATOM     14  O4* UNL     1       1.737   4.508  18.906  0.00  0.00    +0.000 OA
ATOM     15  C4* UNL     1       1.562   3.418  19.848  0.00  0.00    +0.000 C 
ATOM     16  C3* UNL     1       2.510   2.303  19.412  0.00  0.00    +0.000 C 
ATOM     17  C2* UNL     1       3.633   3.045  18.705  0.00  0.00    +0.000 C 
BRANCH  16  18
ATOM     18  O3* UNL     1       1.895   1.422  18.452  0.00  0.00    +0.000 OA
ATOM     19  H3* UNL     1       1.276   0.826  18.913  0.00  0.00    +0.000 HD
ENDBRANCH  16  18
BRANCH  17  20
ATOM     20  O2* UNL     1       4.269   2.218  17.730  0.00  0.00    +0.000 OA
ATOM     21  H2* UNL     1       3.546   1.805  17.210  0.00  0.00    +0.000 HD
ENDBRANCH  17  20
BRANCH  15  22
ATOM     22  C5* UNL     1       1.842   3.920  21.266  0.00  0.00    +0.000 C 
BRANCH  22  23
ATOM     23  O5* UNL     1       2.379   5.239  21.219  0.00  0.00    +0.000 OA
ATOM     24  H5* UNL     1       3.286   5.175  21.579  0.00  0.00    +0.000 HD
ENDBRANCH  22  23
ENDBRANCH  15  22
ENDBRANCH  10  13
BRANCH   1  25
ATOM     25  N   UNL     1       7.017   8.577  17.279  0.00  0.00    +0.000 N 
ATOM     26  H   UNL     1       6.614   8.938  16.414  0.00  0.00    +0.000 HD
BRANCH  25  27
ATOM     27  C   UNL     1       8.442   8.835  17.471  0.00  0.00    +0.000 C 
BRANCH  27  28
ATOM     28  C   UNL     1       8.646   9.791  18.653  0.00  0.00    +0.000 C 
BRANCH  28  33
ATOM     29  C   UNL     1      11.520  14.618  17.082  0.00  0.00    +0.000 C 
ATOM     30  C   UNL     1      10.787  13.383  17.517  0.00  0.00    +0.000 A 
ATOM     31  C   UNL     1      11.480  12.256  17.972  0.00  0.00    +0.000 A 
ATOM     32  C   UNL     1      10.787  11.102  18.351  0.00  0.00    +0.000 A 
ATOM     33  C   UNL     1       9.390  11.050  18.274  0.00  0.00    +0.000 A 
ATOM     34  C   UNL     1       8.697  12.186  17.837  0.00  0.00    +0.000 A 
ATOM     35  C   UNL     1       9.391  13.340  17.458  0.00  0.00    +0.000 A 
ENDBRANCH  28  33
ENDBRANCH  27  28
ENDBRANCH  25  27
ENDBRANCH   1  25
TORSDOF 9
ENDMDL
MODEL 9
REMARK VINA RESULT:      -8.2      1.403      1.553
REMARK  Name = 
REMARK  10 active torsions:
REMARK  status: ('A' for Active; 'I' for Inactive)
REMARK    1  A    between atoms: C_1  and  C_2
REMARK    2  A    between atoms: C_5  and  C_6
REMARK    3  A    between atoms: C_6  and  C_7
REMARK    4  A    between atoms: C_7  and  N_8
REMARK    5  A    between atoms: N_8  and  C_9
REMARK    6  A    between atoms: N_18  and  C1*_19
REMARK    7  A    between atoms: C4*_21  and  C5*_22
REMARK    8  A    between atoms: C5*_22  and  O5*_23
REMARK    9  A    between atoms: C3*_24  and  O3*_25
REMARK   10  A    between atoms: C2*_26  and  O2*_27
REMARK                            x       y       z     vdW  Elec       q    Type
REMARK                         _______ _______ _______ _____ _____    ______ ____
ROOT
ATOM      1  C   UNL     1       6.507   7.338  17.172  0.00  0.00    +0.000 A 
ATOM      2  N   UNL     1       7.377   6.392  16.728  0.00  0.00    +0.000 NA
ATOM      3  C   UNL     1       6.977   5.115  16.614  0.00  0.00    +0.000 A 
ATOM      4  N   UNL     1       7.922   4.215  16.160  0.00  0.00    +0.000 N 
ATOM      5  N   UNL     1       5.773   4.618  16.926  0.00  0.00    +0.000 NA
ATOM      6  C   UNL     1       4.932   5.567  17.356  0.00  0.00    +0.000 A 
ATOM      7  C   UNL     1       5.205   6.916  17.504  0.00  0.00    +0.000 A 
ATOM      8  N   UNL     1       4.086   7.593  17.948  0.00  0.00    +0.000 NA
ATOM      9  C   UNL     1       3.157   6.666  18.065  0.00  0.00    +0.000 A 
ATOM     10  N   UNL     1       3.622   5.422  17.726  0.00  0.00    +0.000 N 
ATOM     11  H   UNL     1       8.844   4.597  16.325  0.00  0.00    +0.000 HD
ATOM     12  H   UNL     1       7.736   3.295  16.535  0.00  0.00    +0.000 HD
ENDROOT
BRANCH  10  13
ATOM     13  C1* UNL     1       2.844   4.201  17.733  0.00  0.00    +0.000 C 
ATOM     14  O4* UNL     1       1.500   4.491  18.178  0.00  0.00    +0.000 OA
ATOM     15  C4* UNL     1       1.075   3.441  19.085  0.00  0.00    +0.000 C 
ATOM     16  C3* UNL     1       2.129   2.339  19.006  0.00  0.00    +0.000 C 
ATOM     17  C2* UNL     1       3.397   3.084  18.618  0.00  0.00    +0.000 C 
BRANCH  16  18
ATOM     18  O3* UNL     1       1.839   1.394  17.958  0.00  0.00    +0.000 OA
ATOM     19  H3* UNL     1       1.501   0.569  18.353  0.00  0.00    +0.000 HD
ENDBRANCH  16  18
BRANCH  17  20
ATOM     20  O2* UNL     1       4.306   2.234  17.918  0.00  0.00    +0.000 OA
ATOM     21  H2* UNL     1       3.946   2.141  17.009  0.00  0.00    +0.000 HD
ENDBRANCH  17  20
BRANCH  15  22
ATOM     22  C5* UNL     1       0.918   4.017  20.493  0.00  0.00    +0.000 C 
BRANCH  22  23
ATOM     23  O5* UNL     1       1.016   2.976  21.460  0.00  0.00    +0.000 OA
ATOM     24  H5* UNL     1       0.367   2.296  21.193  0.00  0.00    +0.000 HD
ENDBRANCH  22  23
ENDBRANCH  15  22
ENDBRANCH  10  13
BRANCH   1  25
ATOM     25  N   UNL     1       6.906   8.676  17.295  0.00  0.00    +0.000 N 
ATOM     26  H   UNL     1       6.475   9.225  16.551  0.00  0.00    +0.000 HD
BRANCH  25  27
ATOM     27  C   UNL     1       8.341   8.876  17.481  0.00  0.00    +0.000 C 
BRANCH  27  28
ATOM     28  C   UNL     1       8.637   9.213  18.948  0.00  0.00    +0.000 C 
BRANCH  28  33
ATOM     29  C   UNL     1      11.887  14.016  19.574  0.00  0.00    +0.000 C 
ATOM     30  C   UNL     1      11.078  12.764  19.406  0.00  0.00    +0.000 A 
ATOM     31  C   UNL     1      10.814  12.241  18.135  0.00  0.00    +0.000 A 
ATOM     32  C   UNL     1      10.037  11.087  17.990  0.00  0.00    +0.000 A 
ATOM     33  C   UNL     1       9.503  10.440  19.111  0.00  0.00    +0.000 A 
ATOM     34  C   UNL     1       9.784  10.954  20.383  0.00  0.00    +0.000 A 
ATOM     35  C   UNL     1      10.561  12.107  20.528  0.00  0.00    +0.000 A 
ENDBRANCH  28  33
ENDBRANCH  27  28
ENDBRANCH  25  27
ENDBRANCH   1  25
TORSDOF 9
ENDMDL
