MODEL 1
REMARK VINA RESULT:      -7.8      0.000      0.000
REMARK  Name = 
REMARK  10 active torsions:
REMARK  status: ('A' for Active; 'I' for Inactive)
REMARK    1  A    between atoms: C_2  and  C_3
REMARK    2  A    between atoms: N_5  and  C_6
REMARK    3  A    between atoms: C_6  and  C_7
REMARK    4  A    between atoms: C_7  and  C_8
REMARK    5  A    between atoms: C_8  and  C_9
REMARK    6  A    between atoms: C_9  and  N_10
REMARK    7  A    between atoms: C_9  and  C_22
REMARK    8  A    between atoms: C_11  and  C_13
REMARK    9  A    between atoms: C_18  and  C_19
REMARK   10  A    between atoms: C_19  and  O_21
REMARK                            x       y       z     vdW  Elec       q    Type
REMARK                         _______ _______ _______ _____ _____    ______ ____
ROOT
ATOM      1  C   UNL     1       6.650   5.356  17.301  0.00  0.00    +0.000 C 
ENDROOT
BRANCH   1   2
ATOM      2  C   UNL     1       6.518   6.741  16.645  0.00  0.00    +0.000 C 
ATOM      3  N   UNL     1       7.481   7.665  16.964  0.00  0.00    +0.000 N 
ATOM      4  O   UNL     1       5.566   7.072  15.945  0.00  0.00    +0.000 OA
ATOM      5  H   UNL     1       8.098   7.561  17.755  0.00  0.00    +0.000 HD
ATOM      6  H   UNL     1       7.326   8.602  16.609  0.00  0.00    +0.000 HD
ENDBRANCH   1   2
BRANCH   1   7
ATOM      7  N   UNL     1       5.331   5.017  17.841  0.00  0.00    +0.000 N 
ATOM      8  C   UNL     1       5.119   4.751  19.173  0.00  0.00    +0.000 C 
ATOM      9  O   UNL     1       5.973   4.870  20.042  0.00  0.00    +0.000 OA
ATOM     10  H   UNL     1       4.562   5.012  17.191  0.00  0.00    +0.000 HD
BRANCH   8  11
ATOM     11  C   UNL     1       3.739   4.348  19.550  0.00  0.00    +0.000 A 
ATOM     12  C   UNL     1       2.835   5.369  19.887  0.00  0.00    +0.000 A 
ATOM     13  C   UNL     1       1.528   5.059  20.274  0.00  0.00    +0.000 A 
ATOM     14  C   UNL     1       1.101   3.733  20.295  0.00  0.00    +0.000 A 
ATOM     15  C   UNL     1       1.985   2.712  19.951  0.00  0.00    +0.000 A 
ATOM     16  C   UNL     1       3.317   3.013  19.618  0.00  0.00    +0.000 A 
BRANCH  16  17
ATOM     17  C   UNL     1       4.310   1.916  19.580  0.00  0.00    +0.000 C 
ATOM     18  O   UNL     1       5.082   1.697  20.492  0.00  0.00    +0.000 OA
BRANCH  17  19
ATOM     19  O   UNL     1       4.296   1.215  18.430  0.00  0.00    +0.000 OA
ATOM     20  H   UNL     1       4.057   0.271  18.500  0.00  0.00    +0.000 HD
ENDBRANCH  17  19
ENDBRANCH  16  17
ENDBRANCH   8  11
ENDBRANCH   1   7
BRANCH   1  21
ATOM     21  C   UNL     1       7.080   4.272  16.302  0.00  0.00    +0.000 C 
BRANCH  21  22
ATOM     22  C   UNL     1       5.979   3.872  15.314  0.00  0.00    +0.000 C 
BRANCH  22  23
ATOM     23  C   UNL     1       6.355   4.272  13.885  0.00  0.00    +0.000 C 
BRANCH  23  26
ATOM     24  N   UNL     1       5.748   1.635  11.442  0.00  0.00    +0.000 NA
ATOM     25  C   UNL     1       5.516   2.753  12.064  0.00  0.00    +0.000 C 
ATOM     26  N   UNL     1       6.417   3.112  13.029  0.00  0.00    +0.000 N 
ATOM     27  H   UNL     1       5.004   1.481  10.747  0.00  0.00    +0.000 HD
ATOM     28  H   UNL     1       7.168   2.441  13.165  0.00  0.00    +0.000 HD
BRANCH  25  29
ATOM     29  C   UNL     1       4.312   3.634  11.752  0.00  0.00    +0.000 C 
ATOM     30 CL   UNL     1       3.393   3.015  10.365  0.00  0.00    +0.000 Cl
ENDBRANCH  25  29
ENDBRANCH  23  26
ENDBRANCH  22  23
ENDBRANCH  21  22
ENDBRANCH   1  21
TORSDOF 10
ENDMDL
MODEL 2
REMARK VINA RESULT:      -7.5      1.449      2.421
REMARK  Name = 
REMARK  10 active torsions:
REMARK  status: ('A' for Active; 'I' for Inactive)
REMARK    1  A    between atoms: C_2  and  C_3
REMARK    2  A    between atoms: N_5  and  C_6
REMARK    3  A    between atoms: C_6  and  C_7
REMARK    4  A    between atoms: C_7  and  C_8
REMARK    5  A    between atoms: C_8  and  C_9
REMARK    6  A    between atoms: C_9  and  N_10
REMARK    7  A    between atoms: C_9  and  C_22
REMARK    8  A    between atoms: C_11  and  C_13
REMARK    9  A    between atoms: C_18  and  C_19
REMARK   10  A    between atoms: C_19  and  O_21
REMARK                            x       y       z     vdW  Elec       q    Type
REMARK                         _______ _______ _______ _____ _____    ______ ____
ROOT
ATOM      1  C   UNL     1       6.960   4.736  17.386  0.00  0.00    +0.000 C 
ENDROOT
BRANCH   1   2
ATOM      2  C   UNL     1       7.031   6.246  17.669  0.00  0.00    +0.000 C 
ATOM      3  N   UNL     1       6.246   7.054  16.885  0.00  0.00    +0.000 N 
ATOM      4  O   UNL     1       7.805   6.750  18.477  0.00  0.00    +0.000 OA
ATOM      5  H   UNL     1       5.834   6.742  16.019  0.00  0.00    +0.000 HD
ATOM      6  H   UNL     1       6.379   8.051  17.011  0.00  0.00    +0.000 HD
ENDBRANCH   1   2
BRANCH   1   7
ATOM      7  N   UNL     1       5.569   4.330  17.605  0.00  0.00    +0.000 N 
ATOM      8  C   UNL     1       5.047   4.112  18.857  0.00  0.00    +0.000 C 
ATOM      9  O   UNL     1       5.648   4.333  19.900  0.00  0.00    +0.000 OA
ATOM     10  H   UNL     1       4.988   4.239  16.787  0.00  0.00    +0.000 HD
BRANCH   8  11
ATOM     11  C   UNL     1       3.642   3.631  18.908  0.00  0.00    +0.000 A 
ATOM     12  C   UNL     1       3.417   2.261  18.699  0.00  0.00    +0.000 A 
ATOM     13  C   UNL     1       2.118   1.746  18.710  0.00  0.00    +0.000 A 
ATOM     14  C   UNL     1       1.036   2.585  18.965  0.00  0.00    +0.000 A 
ATOM     15  C   UNL     1       1.247   3.945  19.187  0.00  0.00    +0.000 A 
ATOM     16  C   UNL     1       2.545   4.479  19.118  0.00  0.00    +0.000 A 
BRANCH  16  17
ATOM     17  C   UNL     1       2.710   5.947  19.028  0.00  0.00    +0.000 C 
ATOM     18  O   UNL     1       2.711   6.543  17.970  0.00  0.00    +0.000 OA
BRANCH  17  19
ATOM     19  O   UNL     1       2.893   6.543  20.222  0.00  0.00    +0.000 OA
ATOM     20  H   UNL     1       3.632   6.211  20.765  0.00  0.00    +0.000 HD
ENDBRANCH  17  19
ENDBRANCH  16  17
ENDBRANCH   8  11
ENDBRANCH   1   7
BRANCH   1  21
ATOM     21  C   UNL     1       7.365   4.389  15.946  0.00  0.00    +0.000 C 
BRANCH  21  22
ATOM     22  C   UNL     1       6.180   4.046  15.036  0.00  0.00    +0.000 C 
BRANCH  22  23
ATOM     23  C   UNL     1       6.511   4.345  13.572  0.00  0.00    +0.000 C 
BRANCH  23  26
ATOM     24  N   UNL     1       5.735   1.553  11.359  0.00  0.00    +0.000 NA
ATOM     25  C   UNL     1       5.544   2.709  11.923  0.00  0.00    +0.000 C 
ATOM     26  N   UNL     1       6.514   3.132  12.790  0.00  0.00    +0.000 N 
ATOM     27  H   UNL     1       4.941   1.353  10.735  0.00  0.00    +0.000 HD
ATOM     28  H   UNL     1       7.278   2.473  12.911  0.00  0.00    +0.000 HD
BRANCH  25  29
ATOM     29  C   UNL     1       4.313   3.566  11.649  0.00  0.00    +0.000 C 
ATOM     30 CL   UNL     1       3.297   2.858  10.378  0.00  0.00    +0.000 Cl
ENDBRANCH  25  29
ENDBRANCH  23  26
ENDBRANCH  22  23
ENDBRANCH  21  22
ENDBRANCH   1  21
TORSDOF 10
ENDMDL
MODEL 3
REMARK VINA RESULT:      -7.5      1.875      2.828
REMARK  Name = 
REMARK  10 active torsions:
REMARK  status: ('A' for Active; 'I' for Inactive)
REMARK    1  A    between atoms: C_2  and  C_3
REMARK    2  A    between atoms: N_5  and  C_6
REMARK    3  A    between atoms: C_6  and  C_7
REMARK    4  A    between atoms: C_7  and  C_8
REMARK    5  A    between atoms: C_8  and  C_9
REMARK    6  A    between atoms: C_9  and  N_10
REMARK    7  A    between atoms: C_9  and  C_22
REMARK    8  A    between atoms: C_11  and  C_13
REMARK    9  A    between atoms: C_18  and  C_19
REMARK   10  A    between atoms: C_19  and  O_21
REMARK                            x       y       z     vdW  Elec       q    Type
REMARK                         _______ _______ _______ _____ _____    ______ ____
ROOT
ATOM      1  C   UNL     1       6.295   5.335  18.191  0.00  0.00    +0.000 C 
ENDROOT
BRANCH   1   2
ATOM      2  C   UNL     1       7.380   5.813  19.171  0.00  0.00    +0.000 C 
ATOM      3  N   UNL     1       8.206   6.815  18.729  0.00  0.00    +0.000 N 
ATOM      4  O   UNL     1       7.589   5.288  20.261  0.00  0.00    +0.000 OA
ATOM      5  H   UNL     1       8.287   7.068  17.756  0.00  0.00    +0.000 HD
ATOM      6  H   UNL     1       8.980   7.048  19.341  0.00  0.00    +0.000 HD
ENDBRANCH   1   2
BRANCH   1   7
ATOM      7  N   UNL     1       5.143   4.929  19.002  0.00  0.00    +0.000 N 
ATOM      8  C   UNL     1       4.417   3.791  18.744  0.00  0.00    +0.000 C 
ATOM      9  O   UNL     1       4.716   2.963  17.894  0.00  0.00    +0.000 OA
ATOM     10  H   UNL     1       4.913   5.514  19.789  0.00  0.00    +0.000 HD
BRANCH   8  11
ATOM     11  C   UNL     1       3.232   3.559  19.610  0.00  0.00    +0.000 A 
ATOM     12  C   UNL     1       3.387   2.690  20.702  0.00  0.00    +0.000 A 
ATOM     13  C   UNL     1       2.307   2.408  21.543  0.00  0.00    +0.000 A 
ATOM     14  C   UNL     1       1.073   3.017  21.324  0.00  0.00    +0.000 A 
ATOM     15  C   UNL     1       0.910   3.891  20.251  0.00  0.00    +0.000 A 
ATOM     16  C   UNL     1       1.975   4.132  19.367  0.00  0.00    +0.000 A 
BRANCH  16  17
ATOM     17  C   UNL     1       1.695   4.788  18.070  0.00  0.00    +0.000 C 
ATOM     18  O   UNL     1       1.069   4.245  17.182  0.00  0.00    +0.000 OA
BRANCH  17  19
ATOM     19  O   UNL     1       2.228   6.020  17.963  0.00  0.00    +0.000 OA
ATOM     20  H   UNL     1       2.923   6.251  18.607  0.00  0.00    +0.000 HD
ENDBRANCH  17  19
ENDBRANCH  16  17
ENDBRANCH   8  11
ENDBRANCH   1   7
BRANCH   1  21
ATOM     21  C   UNL     1       5.860   6.436  17.213  0.00  0.00    +0.000 C 
BRANCH  21  22
ATOM     22  C   UNL     1       5.497   5.915  15.819  0.00  0.00    +0.000 C 
BRANCH  22  23
ATOM     23  C   UNL     1       6.218   4.597  15.522  0.00  0.00    +0.000 C 
BRANCH  23  26
ATOM     24  N   UNL     1       7.182   4.265  12.022  0.00  0.00    +0.000 NA
ATOM     25  C   UNL     1       6.401   4.145  13.054  0.00  0.00    +0.000 C 
ATOM     26  N   UNL     1       6.871   4.650  14.236  0.00  0.00    +0.000 N 
ATOM     27  H   UNL     1       6.716   3.850  11.203  0.00  0.00    +0.000 HD
ATOM     28  H   UNL     1       7.802   5.051  14.174  0.00  0.00    +0.000 HD
BRANCH  25  29
ATOM     29  C   UNL     1       5.030   3.482  12.977  0.00  0.00    +0.000 C 
ATOM     30 CL   UNL     1       4.605   3.058  11.307  0.00  0.00    +0.000 Cl
ENDBRANCH  25  29
ENDBRANCH  23  26
ENDBRANCH  22  23
ENDBRANCH  21  22
ENDBRANCH   1  21
TORSDOF 10
ENDMDL
MODEL 4
REMARK VINA RESULT:      -7.5      4.335      6.333
REMARK  Name = 
REMARK  10 active torsions:
REMARK  status: ('A' for Active; 'I' for Inactive)
REMARK    1  A    between atoms: C_2  and  C_3
REMARK    2  A    between atoms: N_5  and  C_6
REMARK    3  A    between atoms: C_6  and  C_7
REMARK    4  A    between atoms: C_7  and  C_8
REMARK    5  A    between atoms: C_8  and  C_9
REMARK    6  A    between atoms: C_9  and  N_10
REMARK    7  A    between atoms: C_9  and  C_22
REMARK    8  A    between atoms: C_11  and  C_13
REMARK    9  A    between atoms: C_18  and  C_19
REMARK   10  A    between atoms: C_19  and  O_21
REMARK                            x       y       z     vdW  Elec       q    Type
REMARK                         _______ _______ _______ _____ _____    ______ ____
ROOT
ATOM      1  C   UNL     1       6.741   6.252  17.416  0.00  0.00    +0.000 C 
ENDROOT
BRANCH   1   2
ATOM      2  C   UNL     1       7.436   4.982  16.897  0.00  0.00    +0.000 C 
ATOM      3  N   UNL     1       8.095   4.219  17.828  0.00  0.00    +0.000 N 
ATOM      4  O   UNL     1       7.503   4.682  15.708  0.00  0.00    +0.000 OA
ATOM      5  H   UNL     1       8.337   4.563  18.744  0.00  0.00    +0.000 HD
ATOM      6  H   UNL     1       8.635   3.444  17.459  0.00  0.00    +0.000 HD
ENDBRANCH   1   2
BRANCH   1   7
ATOM      7  N   UNL     1       5.664   5.810  18.306  0.00  0.00    +0.000 N 
ATOM      8  C   UNL     1       4.458   5.345  17.838  0.00  0.00    +0.000 C 
ATOM      9  O   UNL     1       4.205   5.158  16.655  0.00  0.00    +0.000 OA
ATOM     10  H   UNL     1       5.852   5.834  19.295  0.00  0.00    +0.000 HD
BRANCH   8  11
ATOM     11  C   UNL     1       3.441   5.007  18.867  0.00  0.00    +0.000 A 
ATOM     12  C   UNL     1       2.792   6.072  19.514  0.00  0.00    +0.000 A 
ATOM     13  C   UNL     1       1.842   5.824  20.509  0.00  0.00    +0.000 A 
ATOM     14  C   UNL     1       1.505   4.515  20.842  0.00  0.00    +0.000 A 
ATOM     15  C   UNL     1       2.133   3.449  20.200  0.00  0.00    +0.000 A 
ATOM     16  C   UNL     1       3.131   3.691  19.241  0.00  0.00    +0.000 A 
BRANCH  16  17
ATOM     17  C   UNL     1       4.003   2.573  18.818  0.00  0.00    +0.000 C 
ATOM     18  O   UNL     1       3.717   1.827  17.903  0.00  0.00    +0.000 OA
BRANCH  17  19
ATOM     19  O   UNL     1       5.117   2.445  19.565  0.00  0.00    +0.000 OA
ATOM     20  H   UNL     1       5.093   1.770  20.269  0.00  0.00    +0.000 HD
ENDBRANCH  17  19
ENDBRANCH  16  17
ENDBRANCH   8  11
ENDBRANCH   1   7
BRANCH   1  21
ATOM     21  C   UNL     1       7.696   7.166  18.198  0.00  0.00    +0.000 C 
BRANCH  21  22
ATOM     22  C   UNL     1       7.926   8.529  17.536  0.00  0.00    +0.000 C 
BRANCH  22  23
ATOM     23  C   UNL     1       8.646   9.485  18.490  0.00  0.00    +0.000 C 
BRANCH  23  26
ATOM     24  N   UNL     1       9.432  12.917  17.542  0.00  0.00    +0.000 NA
ATOM     25  C   UNL     1       9.663  11.745  18.055  0.00  0.00    +0.000 C 
ATOM     26  N   UNL     1       8.652  10.828  17.960  0.00  0.00    +0.000 N 
ATOM     27  H   UNL     1      10.263  13.509  17.678  0.00  0.00    +0.000 HD
ATOM     28  H   UNL     1       7.814  11.180  17.506  0.00  0.00    +0.000 HD
BRANCH  25  29
ATOM     29  C   UNL     1      10.981  11.389  18.733  0.00  0.00    +0.000 C 
ATOM     30 CL   UNL     1      11.474  12.637  19.895  0.00  0.00    +0.000 Cl
ENDBRANCH  25  29
ENDBRANCH  23  26
ENDBRANCH  22  23
ENDBRANCH  21  22
ENDBRANCH   1  21
TORSDOF 10
ENDMDL
MODEL 5
REMARK VINA RESULT:      -7.4      3.988      6.095
REMARK  Name = 
REMARK  10 active torsions:
REMARK  status: ('A' for Active; 'I' for Inactive)
REMARK    1  A    between atoms: C_2  and  C_3
REMARK    2  A    between atoms: N_5  and  C_6
REMARK    3  A    between atoms: C_6  and  C_7
REMARK    4  A    between atoms: C_7  and  C_8
REMARK    5  A    between atoms: C_8  and  C_9
REMARK    6  A    between atoms: C_9  and  N_10
REMARK    7  A    between atoms: C_9  and  C_22
REMARK    8  A    between atoms: C_11  and  C_13
REMARK    9  A    between atoms: C_18  and  C_19
REMARK   10  A    between atoms: C_19  and  O_21
REMARK                            x       y       z     vdW  Elec       q    Type
REMARK                         _______ _______ _______ _____ _____    ______ ____
ROOT
ATOM      1  C   UNL     1       6.230   5.776  17.091  0.00  0.00    +0.000 C 
ENDROOT
BRANCH   1   2
ATOM      2  C   UNL     1       6.933   4.466  16.700  0.00  0.00    +0.000 C 
ATOM      3  N   UNL     1       6.172   3.536  16.036  0.00  0.00    +0.000 N 
ATOM      4  O   UNL     1       8.082   4.188  17.028  0.00  0.00    +0.000 OA
ATOM      5  H   UNL     1       5.164   3.572  16.011  0.00  0.00    +0.000 HD
ATOM      6  H   UNL     1       6.615   2.639  15.877  0.00  0.00    +0.000 HD
ENDBRANCH   1   2
BRANCH   1   7
ATOM      7  N   UNL     1       4.969   5.403  17.738  0.00  0.00    +0.000 N 
ATOM      8  C   UNL     1       4.914   4.854  18.996  0.00  0.00    +0.000 C 
ATOM      9  O   UNL     1       5.883   4.722  19.732  0.00  0.00    +0.000 OA
ATOM     10  H   UNL     1       4.122   5.591  17.226  0.00  0.00    +0.000 HD
BRANCH   8  11
ATOM     11  C   UNL     1       3.565   4.460  19.482  0.00  0.00    +0.000 A 
ATOM     12  C   UNL     1       2.767   5.459  20.061  0.00  0.00    +0.000 A 
ATOM     13  C   UNL     1       1.497   5.153  20.560  0.00  0.00    +0.000 A 
ATOM     14  C   UNL     1       1.000   3.856  20.454  0.00  0.00    +0.000 A 
ATOM     15  C   UNL     1       1.778   2.857  19.871  0.00  0.00    +0.000 A 
ATOM     16  C   UNL     1       3.078   3.146  19.421  0.00  0.00    +0.000 A 
BRANCH  16  17
ATOM     17  C   UNL     1       3.995   2.026  19.115  0.00  0.00    +0.000 C 
ATOM     18  O   UNL     1       3.848   1.302  18.151  0.00  0.00    +0.000 OA
BRANCH  17  19
ATOM     19  O   UNL     1       4.979   1.871  20.021  0.00  0.00    +0.000 OA
ATOM     20  H   UNL     1       4.719   1.501  20.886  0.00  0.00    +0.000 HD
ENDBRANCH  17  19
ENDBRANCH  16  17
ENDBRANCH   8  11
ENDBRANCH   1   7
BRANCH   1  21
ATOM     21  C   UNL     1       7.064   6.622  18.064  0.00  0.00    +0.000 C 
BRANCH  21  22
ATOM     22  C   UNL     1       7.768   7.811  17.401  0.00  0.00    +0.000 C 
BRANCH  22  23
ATOM     23  C   UNL     1       8.498   8.664  18.443  0.00  0.00    +0.000 C 
BRANCH  23  26
ATOM     24  N   UNL     1       9.260  12.203  18.012  0.00  0.00    +0.000 NA
ATOM     25  C   UNL     1       9.190  11.073  18.652  0.00  0.00    +0.000 C 
ATOM     26  N   UNL     1       8.714  10.002  17.947  0.00  0.00    +0.000 N 
ATOM     27  H   UNL     1       9.631  12.923  18.648  0.00  0.00    +0.000 HD
ATOM     28  H   UNL     1       8.446  10.220  16.991  0.00  0.00    +0.000 HD
BRANCH  25  29
ATOM     29  C   UNL     1       9.611  10.926  20.110  0.00  0.00    +0.000 C 
ATOM     30 CL   UNL     1      10.978  11.987  20.503  0.00  0.00    +0.000 Cl
ENDBRANCH  25  29
ENDBRANCH  23  26
ENDBRANCH  22  23
ENDBRANCH  21  22
ENDBRANCH   1  21
TORSDOF 10
ENDMDL
MODEL 6
REMARK VINA RESULT:      -7.4      1.381      1.464
REMARK  Name = 
REMARK  10 active torsions:
REMARK  status: ('A' for Active; 'I' for Inactive)
REMARK    1  A    between atoms: C_2  and  C_3
REMARK    2  A    between atoms: N_5  and  C_6
REMARK    3  A    between atoms: C_6  and  C_7
REMARK    4  A    between atoms: C_7  and  C_8
REMARK    5  A    between atoms: C_8  and  C_9
REMARK    6  A    between atoms: C_9  and  N_10
REMARK    7  A    between atoms: C_9  and  C_22
REMARK    8  A    between atoms: C_11  and  C_13
REMARK    9  A    between atoms: C_18  and  C_19
REMARK   10  A    between atoms: C_19  and  O_21
REMARK                            x       y       z     vdW  Elec       q    Type
REMARK                         _______ _______ _______ _____ _____    ______ ____
ROOT
ATOM      1  C   UNL     1       7.017   5.528  17.285  0.00  0.00    +0.000 C 
ENDROOT
BRANCH   1   2
ATOM      2  C   UNL     1       7.522   6.879  17.818  0.00  0.00    +0.000 C 
ATOM      3  N   UNL     1       7.149   7.995  17.112  0.00  0.00    +0.000 N 
ATOM      4  O   UNL     1       8.297   6.989  18.764  0.00  0.00    +0.000 OA
ATOM      5  H   UNL     1       6.783   7.950  16.173  0.00  0.00    +0.000 HD
ATOM      6  H   UNL     1       7.572   8.866  17.411  0.00  0.00    +0.000 HD
ENDBRANCH   1   2
BRANCH   1   7
ATOM      7  N   UNL     1       5.672   5.333  17.834  0.00  0.00    +0.000 N 
ATOM      8  C   UNL     1       5.449   4.892  19.116  0.00  0.00    +0.000 C 
ATOM      9  O   UNL     1       6.331   4.721  19.947  0.00  0.00    +0.000 OA
ATOM     10  H   UNL     1       4.898   5.565  17.233  0.00  0.00    +0.000 HD
BRANCH   8  11
ATOM     11  C   UNL     1       4.029   4.674  19.498  0.00  0.00    +0.000 A 
ATOM     12  C   UNL     1       3.268   5.803  19.839  0.00  0.00    +0.000 A 
ATOM     13  C   UNL     1       1.933   5.667  20.230  0.00  0.00    +0.000 A 
ATOM     14  C   UNL     1       1.336   4.408  20.251  0.00  0.00    +0.000 A 
ATOM     15  C   UNL     1       2.078   3.280  19.903  0.00  0.00    +0.000 A 
ATOM     16  C   UNL     1       3.437   3.404  19.566  0.00  0.00    +0.000 A 
BRANCH  16  17
ATOM     17  C   UNL     1       4.277   2.188  19.524  0.00  0.00    +0.000 C 
ATOM     18  O   UNL     1       4.963   1.831  20.460  0.00  0.00    +0.000 OA
BRANCH  17  19
ATOM     19  O   UNL     1       4.232   1.542  18.343  0.00  0.00    +0.000 OA
ATOM     20  H   UNL     1       5.071   1.479  17.848  0.00  0.00    +0.000 HD
ENDBRANCH  17  19
ENDBRANCH  16  17
ENDBRANCH   8  11
ENDBRANCH   1   7
BRANCH   1  21
ATOM     21  C   UNL     1       6.945   5.490  15.752  0.00  0.00    +0.000 C 
BRANCH  21  22
ATOM     22  C   UNL     1       5.754   4.694  15.208  0.00  0.00    +0.000 C 
BRANCH  22  23
ATOM     23  C   UNL     1       6.181   3.802  14.039  0.00  0.00    +0.000 C 
BRANCH  23  26
ATOM     24  N   UNL     1       4.093   3.091  11.136  0.00  0.00    +0.000 NA
ATOM     25  C   UNL     1       5.166   3.035  11.869  0.00  0.00    +0.000 C 
ATOM     26  N   UNL     1       5.114   3.679  13.075  0.00  0.00    +0.000 N 
ATOM     27  H   UNL     1       4.260   2.572  10.262  0.00  0.00    +0.000 HD
ATOM     28  H   UNL     1       4.233   4.151  13.255  0.00  0.00    +0.000 HD
BRANCH  25  29
ATOM     29  C   UNL     1       6.426   2.298  11.429  0.00  0.00    +0.000 C 
ATOM     30 CL   UNL     1       6.108   0.575  11.148  0.00  0.00    +0.000 Cl
ENDBRANCH  25  29
ENDBRANCH  23  26
ENDBRANCH  22  23
ENDBRANCH  21  22
ENDBRANCH   1  21
TORSDOF 10
ENDMDL
MODEL 7
REMARK VINA RESULT:      -7.3      4.072      5.956
REMARK  Name = 
REMARK  10 active torsions:
REMARK  status: ('A' for Active; 'I' for Inactive)
REMARK    1  A    between atoms: C_2  and  C_3
REMARK    2  A    between atoms: N_5  and  C_6
REMARK    3  A    between atoms: C_6  and  C_7
REMARK    4  A    between atoms: C_7  and  C_8
REMARK    5  A    between atoms: C_8  and  C_9
REMARK    6  A    between atoms: C_9  and  N_10
REMARK    7  A    between atoms: C_9  and  C_22
REMARK    8  A    between atoms: C_11  and  C_13
REMARK    9  A    between atoms: C_18  and  C_19
REMARK   10  A    between atoms: C_19  and  O_21
REMARK                            x       y       z     vdW  Elec       q    Type
REMARK                         _______ _______ _______ _____ _____    ______ ____
ROOT
ATOM      1  C   UNL     1       6.061   5.838  17.304  0.00  0.00    +0.000 C 
ENDROOT
BRANCH   1   2
ATOM      2  C   UNL     1       7.270   4.896  17.424  0.00  0.00    +0.000 C 
ATOM      3  N   UNL     1       7.810   4.439  16.248  0.00  0.00    +0.000 N 
ATOM      4  O   UNL     1       7.700   4.476  18.494  0.00  0.00    +0.000 OA
ATOM      5  H   UNL     1       7.325   4.494  15.366  0.00  0.00    +0.000 HD
ATOM      6  H   UNL     1       8.538   3.739  16.342  0.00  0.00    +0.000 HD
ENDBRANCH   1   2
BRANCH   1   7
ATOM      7  N   UNL     1       5.063   5.369  18.269  0.00  0.00    +0.000 N 
ATOM      8  C   UNL     1       4.129   4.408  17.965  0.00  0.00    +0.000 C 
ATOM      9  O   UNL     1       4.102   3.784  16.913  0.00  0.00    +0.000 OA
ATOM     10  H   UNL     1       5.104   5.766  19.194  0.00  0.00    +0.000 HD
BRANCH   8  11
ATOM     11  C   UNL     1       3.138   4.096  19.028  0.00  0.00    +0.000 A 
ATOM     12  C   UNL     1       2.216   5.098  19.371  0.00  0.00    +0.000 A 
ATOM     13  C   UNL     1       1.273   4.879  20.379  0.00  0.00    +0.000 A 
ATOM     14  C   UNL     1       1.217   3.648  21.029  0.00  0.00    +0.000 A 
ATOM     15  C   UNL     1       2.119   2.641  20.689  0.00  0.00    +0.000 A 
ATOM     16  C   UNL     1       3.108   2.875  19.718  0.00  0.00    +0.000 A 
BRANCH  16  17
ATOM     17  C   UNL     1       4.241   1.930  19.609  0.00  0.00    +0.000 C 
ATOM     18  O   UNL     1       5.146   1.895  20.418  0.00  0.00    +0.000 OA
BRANCH  17  19
ATOM     19  O   UNL     1       4.186   1.146  18.515  0.00  0.00    +0.000 OA
ATOM     20  H   UNL     1       3.424   0.540  18.453  0.00  0.00    +0.000 HD
ENDBRANCH  17  19
ENDBRANCH  16  17
ENDBRANCH   8  11
ENDBRANCH   1   7
BRANCH   1  21
ATOM     21  C   UNL     1       6.419   7.298  17.619  0.00  0.00    +0.000 C 
BRANCH  21  22
ATOM     22  C   UNL     1       7.902   7.627  17.416  0.00  0.00    +0.000 C 
BRANCH  22  23
ATOM     23  C   UNL     1       8.375   8.668  18.434  0.00  0.00    +0.000 C 
BRANCH  23  26
ATOM     24  N   UNL     1       8.824  12.205  17.672  0.00  0.00    +0.000 NA
ATOM     25  C   UNL     1       9.002  11.103  18.338  0.00  0.00    +0.000 C 
ATOM     26  N   UNL     1       8.373   9.989  17.852  0.00  0.00    +0.000 N 
ATOM     27  H   UNL     1       9.345  12.962  18.138  0.00  0.00    +0.000 HD
ATOM     28  H   UNL     1       7.814  10.158  17.020  0.00  0.00    +0.000 HD
BRANCH  25  29
ATOM     29  C   UNL     1       9.859  11.030  19.597  0.00  0.00    +0.000 C 
ATOM     30 CL   UNL     1      11.548  11.456  19.260  0.00  0.00    +0.000 Cl
ENDBRANCH  25  29
ENDBRANCH  23  26
ENDBRANCH  22  23
ENDBRANCH  21  22
ENDBRANCH   1  21
TORSDOF 10
ENDMDL
MODEL 8
REMARK VINA RESULT:      -7.3      4.371      6.552
REMARK  Name = 
REMARK  10 active torsions:
REMARK  status: ('A' for Active; 'I' for Inactive)
REMARK    1  A    between atoms: C_2  and  C_3
REMARK    2  A    between atoms: N_5  and  C_6
REMARK    3  A    between atoms: C_6  and  C_7
REMARK    4  A    between atoms: C_7  and  C_8
REMARK    5  A    between atoms: C_8  and  C_9
REMARK    6  A    between atoms: C_9  and  N_10
REMARK    7  A    between atoms: C_9  and  C_22
REMARK    8  A    between atoms: C_11  and  C_13
REMARK    9  A    between atoms: C_18  and  C_19
REMARK   10  A    between atoms: C_19  and  O_21
REMARK                            x       y       z     vdW  Elec       q    Type
REMARK                         _______ _______ _______ _____ _____    ______ ____
ROOT
ATOM      1  C   UNL     1       6.865   6.281  17.315  0.00  0.00    +0.000 C 
ENDROOT
BRANCH   1   2
ATOM      2  C   UNL     1       7.522   4.986  16.810  0.00  0.00    +0.000 C 
ATOM      3  N   UNL     1       7.294   4.653  15.499  0.00  0.00    +0.000 N 
ATOM      4  O   UNL     1       8.144   4.214  17.534  0.00  0.00    +0.000 OA
ATOM      5  H   UNL     1       6.557   5.068  14.950  0.00  0.00    +0.000 HD
ATOM      6  H   UNL     1       7.645   3.747  15.208  0.00  0.00    +0.000 HD
ENDBRANCH   1   2
BRANCH   1   7
ATOM      7  N   UNL     1       5.776   5.882  18.211  0.00  0.00    +0.000 N 
ATOM      8  C   UNL     1       4.558   5.443  17.750  0.00  0.00    +0.000 C 
ATOM      9  O   UNL     1       4.300   5.244  16.571  0.00  0.00    +0.000 OA
ATOM     10  H   UNL     1       5.966   5.917  19.199  0.00  0.00    +0.000 HD
BRANCH   8  11
ATOM     11  C   UNL     1       3.533   5.147  18.785  0.00  0.00    +0.000 A 
ATOM     12  C   UNL     1       2.911   6.239  19.413  0.00  0.00    +0.000 A 
ATOM     13  C   UNL     1       1.955   6.032  20.412  0.00  0.00    +0.000 A 
ATOM     14  C   UNL     1       1.586   4.737  20.768  0.00  0.00    +0.000 A 
ATOM     15  C   UNL     1       2.187   3.645  20.144  0.00  0.00    +0.000 A 
ATOM     16  C   UNL     1       3.191   3.846  19.182  0.00  0.00    +0.000 A 
BRANCH  16  17
ATOM     17  C   UNL     1       4.035   2.700  18.778  0.00  0.00    +0.000 C 
ATOM     18  O   UNL     1       3.736   1.952  17.869  0.00  0.00    +0.000 OA
BRANCH  17  19
ATOM     19  O   UNL     1       5.139   2.550  19.535  0.00  0.00    +0.000 OA
ATOM     20  H   UNL     1       5.096   2.905  20.443  0.00  0.00    +0.000 HD
ENDBRANCH  17  19
ENDBRANCH  16  17
ENDBRANCH   8  11
ENDBRANCH   1   7
BRANCH   1  21
ATOM     21  C   UNL     1       7.847   7.177  18.083  0.00  0.00    +0.000 C 
BRANCH  21  22
ATOM     22  C   UNL     1       7.693   8.670  17.774  0.00  0.00    +0.000 C 
BRANCH  22  23
ATOM     23  C   UNL     1       8.947   9.446  18.185  0.00  0.00    +0.000 C 
BRANCH  23  26
ATOM     24  N   UNL     1       9.410  10.970  21.464  0.00  0.00    +0.000 NA
ATOM     25  C   UNL     1       9.612  10.813  20.190  0.00  0.00    +0.000 C 
ATOM     26  N   UNL     1       8.872   9.843  19.570  0.00  0.00    +0.000 N 
ATOM     27  H   UNL     1      10.022  11.724  21.807  0.00  0.00    +0.000 HD
ATOM     28  H   UNL     1       8.251   9.334  20.194  0.00  0.00    +0.000 HD
BRANCH  25  29
ATOM     29  C   UNL     1      10.614  11.652  19.405  0.00  0.00    +0.000 C 
ATOM     30 CL   UNL     1      10.837  13.253  20.138  0.00  0.00    +0.000 Cl
ENDBRANCH  25  29
ENDBRANCH  23  26
ENDBRANCH  22  23
ENDBRANCH  21  22
ENDBRANCH   1  21
TORSDOF 10
ENDMDL
MODEL 9
REMARK VINA RESULT:      -7.3      3.082      7.065
REMARK  Name = 
REMARK  10 active torsions:
REMARK  status: ('A' for Active; 'I' for Inactive)
REMARK    1  A    between atoms: C_2  and  C_3
REMARK    2  A    between atoms: N_5  and  C_6
REMARK    3  A    between atoms: C_6  and  C_7
REMARK    4  A    between atoms: C_7  and  C_8
REMARK    5  A    between atoms: C_8  and  C_9
REMARK    6  A    between atoms: C_9  and  N_10
REMARK    7  A    between atoms: C_9  and  C_22
REMARK    8  A    between atoms: C_11  and  C_13
REMARK    9  A    between atoms: C_18  and  C_19
REMARK   10  A    between atoms: C_19  and  O_21
REMARK                            x       y       z     vdW  Elec       q    Type
REMARK                         _______ _______ _______ _____ _____    ______ ____
ROOT
ATOM      1  C   UNL     1       3.999   3.282  18.202  0.00  0.00    +0.000 C 
ENDROOT
BRANCH   1   2
ATOM      2  C   UNL     1       4.986   3.204  19.379  0.00  0.00    +0.000 C 
ATOM      3  N   UNL     1       6.036   4.087  19.358  0.00  0.00    +0.000 N 
ATOM      4  O   UNL     1       4.927   2.350  20.259  0.00  0.00    +0.000 OA
ATOM      5  H   UNL     1       6.311   4.590  18.529  0.00  0.00    +0.000 HD
ATOM      6  H   UNL     1       6.734   3.956  20.082  0.00  0.00    +0.000 HD
ENDBRANCH   1   2
BRANCH   1   7
ATOM      7  N   UNL     1       4.804   3.393  16.983  0.00  0.00    +0.000 N 
ATOM      8  C   UNL     1       4.765   4.497  16.165  0.00  0.00    +0.000 C 
ATOM      9  O   UNL     1       4.146   5.521  16.421  0.00  0.00    +0.000 OA
ATOM     10  H   UNL     1       5.422   2.626  16.774  0.00  0.00    +0.000 HD
BRANCH   8  11
ATOM     11  C   UNL     1       5.583   4.425  14.926  0.00  0.00    +0.000 A 
ATOM     12  C   UNL     1       5.042   3.731  13.831  0.00  0.00    +0.000 A 
ATOM     13  C   UNL     1       5.768   3.605  12.643  0.00  0.00    +0.000 A 
ATOM     14  C   UNL     1       7.023   4.199  12.524  0.00  0.00    +0.000 A 
ATOM     15  C   UNL     1       7.565   4.900  13.600  0.00  0.00    +0.000 A 
ATOM     16  C   UNL     1       6.866   4.980  14.816  0.00  0.00    +0.000 A 
BRANCH  16  17
ATOM     17  C   UNL     1       7.585   5.434  16.027  0.00  0.00    +0.000 C 
ATOM     18  O   UNL     1       7.807   6.606  16.258  0.00  0.00    +0.000 OA
BRANCH  17  19
ATOM     19  O   UNL     1       7.996   4.426  16.821  0.00  0.00    +0.000 OA
ATOM     20  H   UNL     1       8.959   4.340  16.951  0.00  0.00    +0.000 HD
ENDBRANCH  17  19
ENDBRANCH  16  17
ENDBRANCH   8  11
ENDBRANCH   1   7
BRANCH   1  21
ATOM     21  C   UNL     1       3.104   2.038  18.103  0.00  0.00    +0.000 C 
BRANCH  21  22
ATOM     22  C   UNL     1       1.651   2.352  17.732  0.00  0.00    +0.000 C 
BRANCH  22  23
ATOM     23  C   UNL     1       0.730   2.189  18.944  0.00  0.00    +0.000 C 
BRANCH  23  26
ATOM     24  N   UNL     1       2.475   3.047  22.027  0.00  0.00    +0.000 NA
ATOM     25  C   UNL     1       1.714   3.262  20.995  0.00  0.00    +0.000 C 
ATOM     26  N   UNL     1       1.492   2.194  20.169  0.00  0.00    +0.000 N 
ATOM     27  H   UNL     1       2.562   3.922  22.564  0.00  0.00    +0.000 HD
ATOM     28  H   UNL     1       1.972   1.344  20.452  0.00  0.00    +0.000 HD
BRANCH  25  29
ATOM     29  C   UNL     1       1.091   4.622  20.700  0.00  0.00    +0.000 C 
ATOM     30 CL   UNL     1       2.282   5.751  20.024  0.00  0.00    +0.000 Cl
ENDBRANCH  25  29
ENDBRANCH  23  26
ENDBRANCH  22  23
ENDBRANCH  21  22
ENDBRANCH   1  21
TORSDOF 10
ENDMDL
