MODEL 1
REMARK VINA RESULT:      -7.2      0.000      0.000
REMARK  Name = 
REMARK  5 active torsions:
REMARK  status: ('A' for Active; 'I' for Inactive)
REMARK    1  A    between atoms: C_2  and  O_3
REMARK    2  A    between atoms: C_2  and  C_4
REMARK    3  A    between atoms: C_4  and  C_5
REMARK    4  A    between atoms: C_5  and  C_6
REMARK    5  A    between atoms: C_6  and  N_7
REMARK                            x       y       z     vdW  Elec       q    Type
REMARK                         _______ _______ _______ _____ _____    ______ ____
ROOT
ATOM      1  N   UNL     1       6.124   4.150  16.590  0.00  0.00    +0.000 N 
ATOM      2  C   UNL     1       5.135   4.250  17.550  0.00  0.00    +0.000 C 
ATOM      3  N   UNL     1       4.177   3.373  17.624  0.00  0.00    +0.000 NA
ATOM      4  C   UNL     1       3.168   3.471  18.595  0.00  0.00    +0.000 A 
ATOM      5  C   UNL     1       2.834   2.292  19.273  0.00  0.00    +0.000 A 
ATOM      6  C   UNL     1       1.813   2.266  20.221  0.00  0.00    +0.000 A 
ATOM      7  C   UNL     1       1.106   3.429  20.504  0.00  0.00    +0.000 A 
ATOM      8  C   UNL     1       1.416   4.611  19.831  0.00  0.00    +0.000 A 
ATOM      9  C   UNL     1       2.445   4.649  18.871  0.00  0.00    +0.000 A 
ATOM     10  C   UNL     1       2.683   5.924  18.101  0.00  0.00    +0.000 C 
ATOM     11  C   UNL     1       4.124   6.448  18.046  0.00  0.00    +0.000 C 
ATOM     12  C   UNL     1       5.202   5.458  18.466  0.00  0.00    +0.000 C 
ATOM     13  H   UNL     1       6.681   4.987  16.456  0.00  0.00    +0.000 HD
ENDROOT
BRANCH   1  14
ATOM     14  C   UNL     1       5.860   3.416  15.360  0.00  0.00    +0.000 C 
BRANCH  14  15
ATOM     15  C   UNL     1       5.753   4.390  14.181  0.00  0.00    +0.000 C 
BRANCH  15  16
ATOM     16  C   UNL     1       6.447   3.843  12.934  0.00  0.00    +0.000 C 
BRANCH  16  18
ATOM     17  O   UNL     1       4.422   3.374  11.690  0.00  0.00    +0.000 OA
ATOM     18  C   UNL     1       5.517   3.006  12.086  0.00  0.00    +0.000 C 
BRANCH  18  19
ATOM     19  O   UNL     1       6.031   1.797  11.770  0.00  0.00    +0.000 OA
ATOM     20  H   UNL     1       6.452   1.327  12.516  0.00  0.00    +0.000 HD
ENDBRANCH  18  19
ENDBRANCH  16  18
ENDBRANCH  15  16
ENDBRANCH  14  15
ENDBRANCH   1  14
TORSDOF 5
ENDMDL
MODEL 2
REMARK VINA RESULT:      -7.2      3.688      6.213
REMARK  Name = 
REMARK  5 active torsions:
REMARK  status: ('A' for Active; 'I' for Inactive)
REMARK    1  A    between atoms: C_2  and  O_3
REMARK    2  A    between atoms: C_2  and  C_4
REMARK    3  A    between atoms: C_4  and  C_5
REMARK    4  A    between atoms: C_5  and  C_6
REMARK    5  A    between atoms: C_6  and  N_7
REMARK                            x       y       z     vdW  Elec       q    Type
REMARK                         _______ _______ _______ _____ _____    ______ ____
ROOT
ATOM      1  N   UNL     1       2.773   3.306  17.054  0.00  0.00    +0.000 N 
ATOM      2  C   UNL     1       4.013   3.913  17.123  0.00  0.00    +0.000 C 
ATOM      3  N   UNL     1       4.328   4.687  18.121  0.00  0.00    +0.000 NA
ATOM      4  C   UNL     1       5.585   5.310  18.195  0.00  0.00    +0.000 A 
ATOM      5  C   UNL     1       6.235   5.262  19.435  0.00  0.00    +0.000 A 
ATOM      6  C   UNL     1       7.464   5.889  19.634  0.00  0.00    +0.000 A 
ATOM      7  C   UNL     1       8.061   6.579  18.585  0.00  0.00    +0.000 A 
ATOM      8  C   UNL     1       7.424   6.647  17.345  0.00  0.00    +0.000 A 
ATOM      9  C   UNL     1       6.182   6.019  17.135  0.00  0.00    +0.000 A 
ATOM     10  C   UNL     1       5.486   6.198  15.808  0.00  0.00    +0.000 C 
ATOM     11  C   UNL     1       4.998   4.927  15.099  0.00  0.00    +0.000 C 
ATOM     12  C   UNL     1       4.952   3.670  15.956  0.00  0.00    +0.000 C 
ATOM     13  H   UNL     1       2.531   2.922  16.147  0.00  0.00    +0.000 HD
ENDROOT
BRANCH   1  14
ATOM     14  C   UNL     1       1.645   3.892  17.765  0.00  0.00    +0.000 C 
BRANCH  14  15
ATOM     15  C   UNL     1       1.113   2.903  18.810  0.00  0.00    +0.000 C 
BRANCH  15  16
ATOM     16  C   UNL     1       1.048   3.534  20.200  0.00  0.00    +0.000 C 
BRANCH  16  18
ATOM     17  O   UNL     1       2.159   2.958  22.274  0.00  0.00    +0.000 OA
ATOM     18  C   UNL     1       2.217   3.124  21.066  0.00  0.00    +0.000 C 
BRANCH  18  19
ATOM     19  O   UNL     1       3.354   2.923  20.363  0.00  0.00    +0.000 OA
ATOM     20  H   UNL     1       3.439   2.030  19.977  0.00  0.00    +0.000 HD
ENDBRANCH  18  19
ENDBRANCH  16  18
ENDBRANCH  15  16
ENDBRANCH  14  15
ENDBRANCH   1  14
TORSDOF 5
ENDMDL
MODEL 3
REMARK VINA RESULT:      -7.1      3.503      5.927
REMARK  Name = 
REMARK  5 active torsions:
REMARK  status: ('A' for Active; 'I' for Inactive)
REMARK    1  A    between atoms: C_2  and  O_3
REMARK    2  A    between atoms: C_2  and  C_4
REMARK    3  A    between atoms: C_4  and  C_5
REMARK    4  A    between atoms: C_5  and  C_6
REMARK    5  A    between atoms: C_6  and  N_7
REMARK                            x       y       z     vdW  Elec       q    Type
REMARK                         _______ _______ _______ _____ _____    ______ ____
ROOT
ATOM      1  N   UNL     1       3.892   2.497  19.604  0.00  0.00    +0.000 N 
ATOM      2  C   UNL     1       4.631   3.441  18.916  0.00  0.00    +0.000 C 
ATOM      3  N   UNL     1       5.274   4.381  19.546  0.00  0.00    +0.000 NA
ATOM      4  C   UNL     1       6.022   5.346  18.854  0.00  0.00    +0.000 A 
ATOM      5  C   UNL     1       7.298   5.630  19.358  0.00  0.00    +0.000 A 
ATOM      6  C   UNL     1       8.107   6.606  18.777  0.00  0.00    +0.000 A 
ATOM      7  C   UNL     1       7.643   7.317  17.676  0.00  0.00    +0.000 A 
ATOM      8  C   UNL     1       6.371   7.057  17.166  0.00  0.00    +0.000 A 
ATOM      9  C   UNL     1       5.546   6.074  17.745  0.00  0.00    +0.000 A 
ATOM     10  C   UNL     1       4.143   5.892  17.220  0.00  0.00    +0.000 C 
ATOM     11  C   UNL     1       3.710   4.463  16.865  0.00  0.00    +0.000 C 
ATOM     12  C   UNL     1       4.602   3.352  17.402  0.00  0.00    +0.000 C 
ATOM     13  H   UNL     1       3.245   1.959  19.036  0.00  0.00    +0.000 HD
ENDROOT
BRANCH   1  14
ATOM     14  C   UNL     1       3.391   2.805  20.935  0.00  0.00    +0.000 C 
BRANCH  14  15
ATOM     15  C   UNL     1       1.920   2.387  21.052  0.00  0.00    +0.000 C 
BRANCH  15  16
ATOM     16  C   UNL     1       1.014   3.270  20.197  0.00  0.00    +0.000 C 
BRANCH  16  18
ATOM     17  O   UNL     1       0.767   3.541  17.803  0.00  0.00    +0.000 OA
ATOM     18  C   UNL     1       0.959   2.807  18.760  0.00  0.00    +0.000 C 
BRANCH  18  19
ATOM     19  O   UNL     1       1.178   1.481  18.621  0.00  0.00    +0.000 OA
ATOM     20  H   UNL     1       1.438   1.204  17.721  0.00  0.00    +0.000 HD
ENDBRANCH  18  19
ENDBRANCH  16  18
ENDBRANCH  15  16
ENDBRANCH  14  15
ENDBRANCH   1  14
TORSDOF 5
ENDMDL
MODEL 4
REMARK VINA RESULT:      -7.0      1.671      2.055
REMARK  Name = 
REMARK  5 active torsions:
REMARK  status: ('A' for Active; 'I' for Inactive)
REMARK    1  A    between atoms: C_2  and  O_3
REMARK    2  A    between atoms: C_2  and  C_4
REMARK    3  A    between atoms: C_4  and  C_5
REMARK    4  A    between atoms: C_5  and  C_6
REMARK    5  A    between atoms: C_6  and  N_7
REMARK                            x       y       z     vdW  Elec       q    Type
REMARK                         _______ _______ _______ _____ _____    ______ ____
ROOT
ATOM      1  N   UNL     1       5.909   5.473  17.892  0.00  0.00    +0.000 N 
ATOM      2  C   UNL     1       4.748   5.178  18.582  0.00  0.00    +0.000 C 
ATOM      3  N   UNL     1       4.511   3.974  19.014  0.00  0.00    +0.000 NA
ATOM      4  C   UNL     1       3.331   3.666  19.712  0.00  0.00    +0.000 A 
ATOM      5  C   UNL     1       3.472   2.887  20.867  0.00  0.00    +0.000 A 
ATOM      6  C   UNL     1       2.363   2.483  21.609  0.00  0.00    +0.000 A 
ATOM      7  C   UNL     1       1.088   2.855  21.197  0.00  0.00    +0.000 A 
ATOM      8  C   UNL     1       0.926   3.622  20.043  0.00  0.00    +0.000 A 
ATOM      9  C   UNL     1       2.039   4.034  19.287  0.00  0.00    +0.000 A 
ATOM     10  C   UNL     1       1.812   4.781  17.995  0.00  0.00    +0.000 C 
ATOM     11  C   UNL     1       2.590   6.089  17.799  0.00  0.00    +0.000 C 
ATOM     12  C   UNL     1       3.755   6.312  18.753  0.00  0.00    +0.000 C 
ATOM     13  H   UNL     1       5.902   6.358  17.396  0.00  0.00    +0.000 HD
ENDROOT
BRANCH   1  14
ATOM     14  C   UNL     1       6.620   4.412  17.194  0.00  0.00    +0.000 C 
BRANCH  14  15
ATOM     15  C   UNL     1       5.778   3.901  16.019  0.00  0.00    +0.000 C 
BRANCH  15  16
ATOM     16  C   UNL     1       5.680   4.939  14.902  0.00  0.00    +0.000 C 
BRANCH  16  18
ATOM     17  O   UNL     1       7.868   5.487  14.019  0.00  0.00    +0.000 OA
ATOM     18  C   UNL     1       6.835   4.842  13.932  0.00  0.00    +0.000 C 
BRANCH  18  19
ATOM     19  O   UNL     1       6.632   3.932  12.954  0.00  0.00    +0.000 OA
ATOM     20  H   UNL     1       5.861   4.115  12.382  0.00  0.00    +0.000 HD
ENDBRANCH  18  19
ENDBRANCH  16  18
ENDBRANCH  15  16
ENDBRANCH  14  15
ENDBRANCH   1  14
TORSDOF 5
ENDMDL
MODEL 5
REMARK VINA RESULT:      -7.0      1.017      1.110
REMARK  Name = 
REMARK  5 active torsions:
REMARK  status: ('A' for Active; 'I' for Inactive)
REMARK    1  A    between atoms: C_2  and  O_3
REMARK    2  A    between atoms: C_2  and  C_4
REMARK    3  A    between atoms: C_4  and  C_5
REMARK    4  A    between atoms: C_5  and  C_6
REMARK    5  A    between atoms: C_6  and  N_7
REMARK                            x       y       z     vdW  Elec       q    Type
REMARK                         _______ _______ _______ _____ _____    ______ ____
ROOT
ATOM      1  N   UNL     1       6.705   4.469  17.055  0.00  0.00    +0.000 N 
ATOM      2  C   UNL     1       5.491   4.342  17.702  0.00  0.00    +0.000 C 
ATOM      3  N   UNL     1       4.652   3.400  17.379  0.00  0.00    +0.000 NA
ATOM      4  C   UNL     1       3.415   3.267  18.030  0.00  0.00    +0.000 A 
ATOM      5  C   UNL     1       3.046   1.972  18.415  0.00  0.00    +0.000 A 
ATOM      6  C   UNL     1       1.818   1.720  19.024  0.00  0.00    +0.000 A 
ATOM      7  C   UNL     1       0.936   2.769  19.256  0.00  0.00    +0.000 A 
ATOM      8  C   UNL     1       1.281   4.065  18.871  0.00  0.00    +0.000 A 
ATOM      9  C   UNL     1       2.518   4.331  18.253  0.00  0.00    +0.000 A 
ATOM     10  C   UNL     1       2.810   5.730  17.768  0.00  0.00    +0.000 C 
ATOM     11  C   UNL     1       4.145   6.353  18.195  0.00  0.00    +0.000 C 
ATOM     12  C   UNL     1       5.174   5.383  18.759  0.00  0.00    +0.000 C 
ATOM     13  H   UNL     1       7.181   5.353  17.202  0.00  0.00    +0.000 HD
ENDROOT
BRANCH   1  14
ATOM     14  C   UNL     1       6.863   3.932  15.710  0.00  0.00    +0.000 C 
BRANCH  14  15
ATOM     15  C   UNL     1       6.173   4.850  14.694  0.00  0.00    +0.000 C 
BRANCH  15  16
ATOM     16  C   UNL     1       5.427   4.050  13.628  0.00  0.00    +0.000 C 
BRANCH  16  18
ATOM     17  O   UNL     1       7.228   4.268  12.023  0.00  0.00    +0.000 OA
ATOM     18  C   UNL     1       6.343   3.588  12.518  0.00  0.00    +0.000 C 
BRANCH  18  19
ATOM     19  O   UNL     1       6.111   2.313  12.135  0.00  0.00    +0.000 OA
ATOM     20  H   UNL     1       6.237   1.648  12.839  0.00  0.00    +0.000 HD
ENDBRANCH  18  19
ENDBRANCH  16  18
ENDBRANCH  15  16
ENDBRANCH  14  15
ENDBRANCH   1  14
TORSDOF 5
ENDMDL
MODEL 6
REMARK VINA RESULT:      -7.0      3.386      4.543
REMARK  Name = 
REMARK  5 active torsions:
REMARK  status: ('A' for Active; 'I' for Inactive)
REMARK    1  A    between atoms: C_2  and  O_3
REMARK    2  A    between atoms: C_2  and  C_4
REMARK    3  A    between atoms: C_4  and  C_5
REMARK    4  A    between atoms: C_5  and  C_6
REMARK    5  A    between atoms: C_6  and  N_7
REMARK                            x       y       z     vdW  Elec       q    Type
REMARK                         _______ _______ _______ _____ _____    ______ ____
ROOT
ATOM      1  N   UNL     1       5.097   6.459  16.573  0.00  0.00    +0.000 N 
ATOM      2  C   UNL     1       4.311   5.610  17.328  0.00  0.00    +0.000 C 
ATOM      3  N   UNL     1       3.943   5.931  18.535  0.00  0.00    +0.000 NA
ATOM      4  C   UNL     1       3.147   5.071  19.310  0.00  0.00    +0.000 A 
ATOM      5  C   UNL     1       2.073   5.656  19.990  0.00  0.00    +0.000 A 
ATOM      6  C   UNL     1       1.248   4.904  20.826  0.00  0.00    +0.000 A 
ATOM      7  C   UNL     1       1.493   3.546  20.993  0.00  0.00    +0.000 A 
ATOM      8  C   UNL     1       2.566   2.947  20.332  0.00  0.00    +0.000 A 
ATOM      9  C   UNL     1       3.405   3.697  19.487  0.00  0.00    +0.000 A 
ATOM     10  C   UNL     1       4.608   3.029  18.867  0.00  0.00    +0.000 C 
ATOM     11  C   UNL     1       4.792   3.188  17.352  0.00  0.00    +0.000 C 
ATOM     12  C   UNL     1       3.954   4.277  16.698  0.00  0.00    +0.000 C 
ATOM     13  H   UNL     1       5.526   6.036  15.756  0.00  0.00    +0.000 HD
ENDROOT
BRANCH   1  14
ATOM     14  C   UNL     1       5.942   7.441  17.239  0.00  0.00    +0.000 C 
BRANCH  14  15
ATOM     15  C   UNL     1       7.409   7.000  17.174  0.00  0.00    +0.000 C 
BRANCH  15  16
ATOM     16  C   UNL     1       8.026   6.888  18.567  0.00  0.00    +0.000 C 
BRANCH  16  18
ATOM     17  O   UNL     1       7.856   4.475  18.450  0.00  0.00    +0.000 OA
ATOM     18  C   UNL     1       7.917   5.489  19.127  0.00  0.00    +0.000 C 
BRANCH  18  19
ATOM     19  O   UNL     1       7.924   5.456  20.478  0.00  0.00    +0.000 OA
ATOM     20  H   UNL     1       8.754   5.767  20.888  0.00  0.00    +0.000 HD
ENDBRANCH  18  19
ENDBRANCH  16  18
ENDBRANCH  15  16
ENDBRANCH  14  15
ENDBRANCH   1  14
TORSDOF 5
ENDMDL
MODEL 7
REMARK VINA RESULT:      -6.9      3.129      5.916
REMARK  Name = 
REMARK  5 active torsions:
REMARK  status: ('A' for Active; 'I' for Inactive)
REMARK    1  A    between atoms: C_2  and  O_3
REMARK    2  A    between atoms: C_2  and  C_4
REMARK    3  A    between atoms: C_4  and  C_5
REMARK    4  A    between atoms: C_5  and  C_6
REMARK    5  A    between atoms: C_6  and  N_7
REMARK                            x       y       z     vdW  Elec       q    Type
REMARK                         _______ _______ _______ _____ _____    ______ ____
ROOT
ATOM      1  N   UNL     1       1.731   4.008  18.285  0.00  0.00    +0.000 N 
ATOM      2  C   UNL     1       2.915   4.488  17.758  0.00  0.00    +0.000 C 
ATOM      3  N   UNL     1       3.660   3.744  16.993  0.00  0.00    +0.000 NA
ATOM      4  C   UNL     1       4.867   4.224  16.457  0.00  0.00    +0.000 A 
ATOM      5  C   UNL     1       5.098   3.962  15.101  0.00  0.00    +0.000 A 
ATOM      6  C   UNL     1       6.284   4.350  14.480  0.00  0.00    +0.000 A 
ATOM      7  C   UNL     1       7.262   5.009  15.216  0.00  0.00    +0.000 A 
ATOM      8  C   UNL     1       7.055   5.269  16.571  0.00  0.00    +0.000 A 
ATOM      9  C   UNL     1       5.862   4.881  17.208  0.00  0.00    +0.000 A 
ATOM     10  C   UNL     1       5.720   5.098  18.695  0.00  0.00    +0.000 C 
ATOM     11  C   UNL     1       4.447   5.804  19.179  0.00  0.00    +0.000 C 
ATOM     12  C   UNL     1       3.316   5.894  18.163  0.00  0.00    +0.000 C 
ATOM     13  H   UNL     1       1.344   4.558  19.045  0.00  0.00    +0.000 HD
ENDROOT
BRANCH   1  14
ATOM     14  C   UNL     1       1.542   2.573  18.441  0.00  0.00    +0.000 C 
BRANCH  14  15
ATOM     15  C   UNL     1       1.783   2.168  19.900  0.00  0.00    +0.000 C 
BRANCH  15  16
ATOM     16  C   UNL     1       3.017   2.858  20.480  0.00  0.00    +0.000 C 
BRANCH  16  18
ATOM     17  O   UNL     1       5.059   1.757  21.174  0.00  0.00    +0.000 OA
ATOM     18  C   UNL     1       4.271   2.039  20.285  0.00  0.00    +0.000 C 
BRANCH  18  19
ATOM     19  O   UNL     1       4.432   1.609  19.014  0.00  0.00    +0.000 OA
ATOM     20  H   UNL     1       4.312   2.300  18.334  0.00  0.00    +0.000 HD
ENDBRANCH  18  19
ENDBRANCH  16  18
ENDBRANCH  15  16
ENDBRANCH  14  15
ENDBRANCH   1  14
TORSDOF 5
ENDMDL
MODEL 8
REMARK VINA RESULT:      -6.9      5.898      8.333
REMARK  Name = 
REMARK  5 active torsions:
REMARK  status: ('A' for Active; 'I' for Inactive)
REMARK    1  A    between atoms: C_2  and  O_3
REMARK    2  A    between atoms: C_2  and  C_4
REMARK    3  A    between atoms: C_4  and  C_5
REMARK    4  A    between atoms: C_5  and  C_6
REMARK    5  A    between atoms: C_6  and  N_7
REMARK                            x       y       z     vdW  Elec       q    Type
REMARK                         _______ _______ _______ _____ _____    ______ ____
ROOT
ATOM      1  N   UNL     1       1.739   7.290  20.982  0.00  0.00    +0.000 N 
ATOM      2  C   UNL     1       2.333   6.356  20.154  0.00  0.00    +0.000 C 
ATOM      3  N   UNL     1       2.852   6.704  19.012  0.00  0.00    +0.000 NA
ATOM      4  C   UNL     1       3.453   5.759  18.164  0.00  0.00    +0.000 A 
ATOM      5  C   UNL     1       4.685   6.116  17.603  0.00  0.00    +0.000 A 
ATOM      6  C   UNL     1       5.346   5.275  16.709  0.00  0.00    +0.000 A 
ATOM      7  C   UNL     1       4.775   4.056  16.362  0.00  0.00    +0.000 A 
ATOM      8  C   UNL     1       3.543   3.686  16.903  0.00  0.00    +0.000 A 
ATOM      9  C   UNL     1       2.867   4.529  17.805  0.00  0.00    +0.000 A 
ATOM     10  C   UNL     1       1.494   4.133  18.290  0.00  0.00    +0.000 C 
ATOM     11  C   UNL     1       1.254   4.162  19.805  0.00  0.00    +0.000 C 
ATOM     12  C   UNL     1       2.295   4.914  20.623  0.00  0.00    +0.000 C 
ATOM     13  H   UNL     1       1.162   6.904  21.722  0.00  0.00    +0.000 HD
ENDROOT
BRANCH   1  14
ATOM     14  C   UNL     1       1.220   8.527  20.415  0.00  0.00    +0.000 C 
BRANCH  14  15
ATOM     15  C   UNL     1      -0.110   8.893  21.085  0.00  0.00    +0.000 C 
BRANCH  15  16
ATOM     16  C   UNL     1      -0.072  10.300  21.680  0.00  0.00    +0.000 C 
BRANCH  16  18
ATOM     17  O   UNL     1      -1.684  11.019  23.339  0.00  0.00    +0.000 OA
ATOM     18  C   UNL     1      -0.701  10.354  23.053  0.00  0.00    +0.000 C 
BRANCH  18  19
ATOM     19  O   UNL     1      -0.082   9.557  23.952  0.00  0.00    +0.000 OA
ATOM     20  H   UNL     1       0.782   9.889  24.263  0.00  0.00    +0.000 HD
ENDBRANCH  18  19
ENDBRANCH  16  18
ENDBRANCH  15  16
ENDBRANCH  14  15
ENDBRANCH   1  14
TORSDOF 5
ENDMDL
MODEL 9
REMARK VINA RESULT:      -6.8      2.818      4.222
REMARK  Name = 
REMARK  5 active torsions:
REMARK  status: ('A' for Active; 'I' for Inactive)
REMARK    1  A    between atoms: C_2  and  O_3
REMARK    2  A    between atoms: C_2  and  C_4
REMARK    3  A    between atoms: C_4  and  C_5
REMARK    4  A    between atoms: C_5  and  C_6
REMARK    5  A    between atoms: C_6  and  N_7
REMARK                            x       y       z     vdW  Elec       q    Type
REMARK                         _______ _______ _______ _____ _____    ______ ____
ROOT
ATOM      1  N   UNL     1       3.373   3.521  17.173  0.00  0.00    +0.000 N 
ATOM      2  C   UNL     1       2.689   4.467  17.913  0.00  0.00    +0.000 C 
ATOM      3  N   UNL     1       3.165   5.667  18.074  0.00  0.00    +0.000 NA
ATOM      4  C   UNL     1       2.478   6.632  18.829  0.00  0.00    +0.000 A 
ATOM      5  C   UNL     1       2.385   7.913  18.271  0.00  0.00    +0.000 A 
ATOM      6  C   UNL     1       1.767   8.959  18.956  0.00  0.00    +0.000 A 
ATOM      7  C   UNL     1       1.232   8.732  20.219  0.00  0.00    +0.000 A 
ATOM      8  C   UNL     1       1.324   7.465  20.796  0.00  0.00    +0.000 A 
ATOM      9  C   UNL     1       1.947   6.403  20.113  0.00  0.00    +0.000 A 
ATOM     10  C   UNL     1       2.107   5.076  20.813  0.00  0.00    +0.000 C 
ATOM     11  C   UNL     1       1.640   3.826  20.055  0.00  0.00    +0.000 C 
ATOM     12  C   UNL     1       1.396   4.012  18.564  0.00  0.00    +0.000 C 
ATOM     13  H   UNL     1       3.055   2.565  17.296  0.00  0.00    +0.000 HD
ENDROOT
BRANCH   1  14
ATOM     14  C   UNL     1       4.813   3.645  17.002  0.00  0.00    +0.000 C 
BRANCH  14  15
ATOM     15  C   UNL     1       5.134   4.130  15.583  0.00  0.00    +0.000 C 
BRANCH  15  16
ATOM     16  C   UNL     1       5.752   5.526  15.591  0.00  0.00    +0.000 C 
BRANCH  16  18
ATOM     17  O   UNL     1       7.864   4.537  16.246  0.00  0.00    +0.000 OA
ATOM     18  C   UNL     1       7.153   5.526  16.158  0.00  0.00    +0.000 C 
BRANCH  18  19
ATOM     19  O   UNL     1       7.571   6.753  16.541  0.00  0.00    +0.000 OA
ATOM     20  H   UNL     1       8.524   6.811  16.747  0.00  0.00    +0.000 HD
ENDBRANCH  18  19
ENDBRANCH  16  18
ENDBRANCH  15  16
ENDBRANCH  14  15
ENDBRANCH   1  14
TORSDOF 5
ENDMDL
