MODEL 1
REMARK VINA RESULT:      -8.1      0.000      0.000
REMARK  Name = 
REMARK  5 active torsions:
REMARK  status: ('A' for Active; 'I' for Inactive)
REMARK    1  A    between atoms: C_1  and  O_2
REMARK    2  A    between atoms: O_2  and  C_3
REMARK    3  A    between atoms: C_8  and  C_9
REMARK    4  A    between atoms: C_12  and  N_13
REMARK    5  A    between atoms: C_14  and  C_16
REMARK                            x       y       z     vdW  Elec       q    Type
REMARK                         _______ _______ _______ _____ _____    ______ ____
ROOT
ATOM      1  C   UNL     1       2.576   7.383  18.641  0.00  0.00    +0.000 A 
ATOM      2  C   UNL     1       2.058   8.513  17.995  0.00  0.00    +0.000 A 
ATOM      3  C   UNL     1       1.251   9.440  18.659  0.00  0.00    +0.000 A 
ATOM      4  C   UNL     1       0.880   9.246  19.986  0.00  0.00    +0.000 A 
ATOM      5  C   UNL     1       1.383   8.128  20.659  0.00  0.00    +0.000 A 
ATOM      6  C   UNL     1       2.217   7.213  19.993  0.00  0.00    +0.000 A 
ENDROOT
BRANCH   1  12
ATOM      7  C   UNL     1       5.550   5.878  16.794  0.00  0.00    +0.000 A 
ATOM      8  C   UNL     1       5.160   4.556  16.619  0.00  0.00    +0.000 A 
ATOM      9  C   UNL     1       3.902   4.145  17.055  0.00  0.00    +0.000 A 
ATOM     10  C   UNL     1       3.024   5.049  17.668  0.00  0.00    +0.000 A 
ATOM     11 CL   UNL     1       1.451   4.414  18.036  0.00  0.00    +0.000 Cl
ATOM     12  C   UNL     1       3.404   6.389  17.908  0.00  0.00    +0.000 A 
ATOM     13  C   UNL     1       4.683   6.771  17.441  0.00  0.00    +0.000 A 
BRANCH   7  15
ATOM     14  C   UNL     1       7.464   7.167  17.356  0.00  0.00    +0.000 C 
ATOM     15  O   UNL     1       6.738   6.421  16.387  0.00  0.00    +0.000 OA
ENDBRANCH   7  15
ENDBRANCH   1  12
BRANCH   4  16
ATOM     16  N   UNL     1       0.023  10.133  20.677  0.00  0.00    +0.000 N 
ATOM     17  C   UNL     1       0.421  11.309  21.295  0.00  0.00    +0.000 C 
ATOM     18  O   UNL     1       1.544  11.803  21.251  0.00  0.00    +0.000 OA
ATOM     19  H   UNL     1      -0.956   9.883  20.693  0.00  0.00    +0.000 HD
BRANCH  17  20
ATOM     20  C   UNL     1      -0.605  12.036  22.092  0.00  0.00    +0.000 A 
ATOM     21  C   UNL     1      -0.472  13.432  22.182  0.00  0.00    +0.000 A 
ATOM     22  C   UNL     1      -1.389  14.188  22.910  0.00  0.00    +0.000 A 
ATOM     23  C   UNL     1      -2.453  13.550  23.548  0.00  0.00    +0.000 A 
ATOM     24  C   UNL     1      -2.604  12.168  23.447  0.00  0.00    +0.000 A 
ATOM     25  C   UNL     1      -1.686  11.407  22.717  0.00  0.00    +0.000 A 
ENDBRANCH  17  20
ENDBRANCH   4  16
TORSDOF 4
ENDMDL
MODEL 2
REMARK VINA RESULT:      -8.0      0.330      1.412
REMARK  Name = 
REMARK  5 active torsions:
REMARK  status: ('A' for Active; 'I' for Inactive)
REMARK    1  A    between atoms: C_1  and  O_2
REMARK    2  A    between atoms: O_2  and  C_3
REMARK    3  A    between atoms: C_8  and  C_9
REMARK    4  A    between atoms: C_12  and  N_13
REMARK    5  A    between atoms: C_14  and  C_16
REMARK                            x       y       z     vdW  Elec       q    Type
REMARK                         _______ _______ _______ _____ _____    ______ ____
ROOT
ATOM      1  C   UNL     1       2.569   7.447  18.462  0.00  0.00    +0.000 A 
ATOM      2  C   UNL     1       2.217   7.305  19.811  0.00  0.00    +0.000 A 
ATOM      3  C   UNL     1       1.347   8.194  20.447  0.00  0.00    +0.000 A 
ATOM      4  C   UNL     1       0.835   9.299  19.774  0.00  0.00    +0.000 A 
ATOM      5  C   UNL     1       1.166   9.467  18.426  0.00  0.00    +0.000 A 
ATOM      6  C   UNL     1       2.020   8.554  17.784  0.00  0.00    +0.000 A 
ENDROOT
BRANCH   1  12
ATOM      7  C   UNL     1       5.783   6.153  16.876  0.00  0.00    +0.000 A 
ATOM      8  C   UNL     1       5.509   4.803  16.695  0.00  0.00    +0.000 A 
ATOM      9  C   UNL     1       4.255   4.302  17.041  0.00  0.00    +0.000 A 
ATOM     10  C   UNL     1       3.266   5.143  17.568  0.00  0.00    +0.000 A 
ATOM     11 CL   UNL     1       1.722   4.394  17.826  0.00  0.00    +0.000 Cl
ATOM     12  C   UNL     1       3.525   6.511  17.813  0.00  0.00    +0.000 A 
ATOM     13  C   UNL     1       4.804   6.984  17.439  0.00  0.00    +0.000 A 
BRANCH   7  15
ATOM     14  C   UNL     1       7.580   7.536  17.582  0.00  0.00    +0.000 C 
ATOM     15  O   UNL     1       6.955   6.780  16.552  0.00  0.00    +0.000 OA
ENDBRANCH   7  15
ENDBRANCH   1  12
BRANCH   4  16
ATOM     16  N   UNL     1      -0.006  10.250  20.397  0.00  0.00    +0.000 N 
ATOM     17  C   UNL     1       0.428  11.297  21.197  0.00  0.00    +0.000 C 
ATOM     18  O   UNL     1       1.596  11.614  21.400  0.00  0.00    +0.000 OA
ATOM     19  H   UNL     1      -0.995  10.154  20.217  0.00  0.00    +0.000 HD
BRANCH  17  20
ATOM     20  C   UNL     1      -0.620  12.107  21.878  0.00  0.00    +0.000 A 
ATOM     21  C   UNL     1      -1.480  11.429  22.757  0.00  0.00    +0.000 A 
ATOM     22  C   UNL     1      -2.488  12.113  23.434  0.00  0.00    +0.000 A 
ATOM     23  C   UNL     1      -2.637  13.487  23.239  0.00  0.00    +0.000 A 
ATOM     24  C   UNL     1      -1.774  14.171  22.384  0.00  0.00    +0.000 A 
ATOM     25  C   UNL     1      -0.762  13.488  21.704  0.00  0.00    +0.000 A 
ENDBRANCH  17  20
ENDBRANCH   4  16
TORSDOF 4
ENDMDL
MODEL 3
REMARK VINA RESULT:      -8.0      0.675      1.066
REMARK  Name = 
REMARK  5 active torsions:
REMARK  status: ('A' for Active; 'I' for Inactive)
REMARK    1  A    between atoms: C_1  and  O_2
REMARK    2  A    between atoms: O_2  and  C_3
REMARK    3  A    between atoms: C_8  and  C_9
REMARK    4  A    between atoms: C_12  and  N_13
REMARK    5  A    between atoms: C_14  and  C_16
REMARK                            x       y       z     vdW  Elec       q    Type
REMARK                         _______ _______ _______ _____ _____    ______ ____
ROOT
ATOM      1  C   UNL     1       2.585   7.582  18.424  0.00  0.00    +0.000 A 
ATOM      2  C   UNL     1       2.004   8.612  17.672  0.00  0.00    +0.000 A 
ATOM      3  C   UNL     1       1.102   9.519  18.231  0.00  0.00    +0.000 A 
ATOM      4  C   UNL     1       0.697   9.401  19.557  0.00  0.00    +0.000 A 
ATOM      5  C   UNL     1       1.260   8.386  20.335  0.00  0.00    +0.000 A 
ATOM      6  C   UNL     1       2.189   7.492  19.774  0.00  0.00    +0.000 A 
ENDROOT
BRANCH   1  12
ATOM      7  C   UNL     1       5.763   6.165  16.872  0.00  0.00    +0.000 A 
ATOM      8  C   UNL     1       5.458   4.817  16.734  0.00  0.00    +0.000 A 
ATOM      9  C   UNL     1       4.194   4.356  17.098  0.00  0.00    +0.000 A 
ATOM     10  C   UNL     1       3.226   5.236  17.601  0.00  0.00    +0.000 A 
ATOM     11 CL   UNL     1       1.666   4.531  17.885  0.00  0.00    +0.000 Cl
ATOM     12  C   UNL     1       3.516   6.604  17.802  0.00  0.00    +0.000 A 
ATOM     13  C   UNL     1       4.805   7.037  17.410  0.00  0.00    +0.000 A 
BRANCH   7  15
ATOM     14  C   UNL     1       7.669   7.399  17.568  0.00  0.00    +0.000 C 
ATOM     15  O   UNL     1       6.948   6.755  16.525  0.00  0.00    +0.000 OA
ENDBRANCH   7  15
ENDBRANCH   1  12
BRANCH   4  16
ATOM     16  N   UNL     1      -0.253  10.267  20.145  0.00  0.00    +0.000 N 
ATOM     17  C   UNL     1       0.033  11.249  21.082  0.00  0.00    +0.000 C 
ATOM     18  O   UNL     1       1.152  11.579  21.463  0.00  0.00    +0.000 OA
ATOM     19  H   UNL     1      -1.207  10.161  19.830  0.00  0.00    +0.000 HD
BRANCH  17  20
ATOM     20  C   UNL     1      -1.124  11.965  21.688  0.00  0.00    +0.000 A 
ATOM     21  C   UNL     1      -1.603  11.478  22.916  0.00  0.00    +0.000 A 
ATOM     22  C   UNL     1      -2.683  12.090  23.550  0.00  0.00    +0.000 A 
ATOM     23  C   UNL     1      -3.287  13.201  22.961  0.00  0.00    +0.000 A 
ATOM     24  C   UNL     1      -2.805  13.703  21.753  0.00  0.00    +0.000 A 
ATOM     25  C   UNL     1      -1.721  13.092  21.114  0.00  0.00    +0.000 A 
ENDBRANCH  17  20
ENDBRANCH   4  16
TORSDOF 4
ENDMDL
MODEL 4
REMARK VINA RESULT:      -7.8      0.669      1.231
REMARK  Name = 
REMARK  5 active torsions:
REMARK  status: ('A' for Active; 'I' for Inactive)
REMARK    1  A    between atoms: C_1  and  O_2
REMARK    2  A    between atoms: O_2  and  C_3
REMARK    3  A    between atoms: C_8  and  C_9
REMARK    4  A    between atoms: C_12  and  N_13
REMARK    5  A    between atoms: C_14  and  C_16
REMARK                            x       y       z     vdW  Elec       q    Type
REMARK                         _______ _______ _______ _____ _____    ______ ____
ROOT
ATOM      1  C   UNL     1       2.567   7.192  18.562  0.00  0.00    +0.000 A 
ATOM      2  C   UNL     1       2.054   8.300  17.874  0.00  0.00    +0.000 A 
ATOM      3  C   UNL     1       1.312   9.293  18.517  0.00  0.00    +0.000 A 
ATOM      4  C   UNL     1       1.000   9.191  19.870  0.00  0.00    +0.000 A 
ATOM      5  C   UNL     1       1.499   8.098  20.585  0.00  0.00    +0.000 A 
ATOM      6  C   UNL     1       2.269   7.116  19.937  0.00  0.00    +0.000 A 
ENDROOT
BRANCH   1  12
ATOM      7  C   UNL     1       5.342   5.509  16.566  0.00  0.00    +0.000 A 
ATOM      8  C   UNL     1       4.958   4.174  16.580  0.00  0.00    +0.000 A 
ATOM      9  C   UNL     1       3.764   3.807  17.198  0.00  0.00    +0.000 A 
ATOM     10  C   UNL     1       2.944   4.768  17.803  0.00  0.00    +0.000 A 
ATOM     11 CL   UNL     1       1.433   4.169  18.412  0.00  0.00    +0.000 Cl
ATOM     12  C   UNL     1       3.325   6.128  17.852  0.00  0.00    +0.000 A 
ATOM     13  C   UNL     1       4.538   6.463  17.206  0.00  0.00    +0.000 A 
BRANCH   7  15
ATOM     14  C   UNL     1       6.942   5.322  14.821  0.00  0.00    +0.000 C 
ATOM     15  O   UNL     1       6.468   6.010  15.972  0.00  0.00    +0.000 OA
ENDBRANCH   7  15
ENDBRANCH   1  12
BRANCH   4  16
ATOM     16  N   UNL     1       0.208  10.147  20.545  0.00  0.00    +0.000 N 
ATOM     17  C   UNL     1       0.672  11.346  21.064  0.00  0.00    +0.000 C 
ATOM     18  O   UNL     1       1.804  11.800  20.930  0.00  0.00    +0.000 OA
ATOM     19  H   UNL     1      -0.776   9.931  20.627  0.00  0.00    +0.000 HD
BRANCH  17  20
ATOM     20  C   UNL     1      -0.289  12.155  21.864  0.00  0.00    +0.000 A 
ATOM     21  C   UNL     1      -1.341  11.464  22.486  0.00  0.00    +0.000 A 
ATOM     22  C   UNL     1      -2.285  12.146  23.253  0.00  0.00    +0.000 A 
ATOM     23  C   UNL     1      -2.175  13.528  23.407  0.00  0.00    +0.000 A 
ATOM     24  C   UNL     1      -1.122  14.219  22.810  0.00  0.00    +0.000 A 
ATOM     25  C   UNL     1      -0.174  13.538  22.041  0.00  0.00    +0.000 A 
ENDBRANCH  17  20
ENDBRANCH   4  16
TORSDOF 4
ENDMDL
MODEL 5
REMARK VINA RESULT:      -7.8      1.211      1.631
REMARK  Name = 
REMARK  5 active torsions:
REMARK  status: ('A' for Active; 'I' for Inactive)
REMARK    1  A    between atoms: C_1  and  O_2
REMARK    2  A    between atoms: O_2  and  C_3
REMARK    3  A    between atoms: C_8  and  C_9
REMARK    4  A    between atoms: C_12  and  N_13
REMARK    5  A    between atoms: C_14  and  C_16
REMARK                            x       y       z     vdW  Elec       q    Type
REMARK                         _______ _______ _______ _____ _____    ______ ____
ROOT
ATOM      1  C   UNL     1       2.693   7.230  18.487  0.00  0.00    +0.000 A 
ATOM      2  C   UNL     1       2.321   7.043  19.825  0.00  0.00    +0.000 A 
ATOM      3  C   UNL     1       1.535   7.971  20.512  0.00  0.00    +0.000 A 
ATOM      4  C   UNL     1       1.134   9.158  19.905  0.00  0.00    +0.000 A 
ATOM      5  C   UNL     1       1.487   9.373  18.569  0.00  0.00    +0.000 A 
ATOM      6  C   UNL     1       2.254   8.421  17.875  0.00  0.00    +0.000 A 
ENDROOT
BRANCH   1  12
ATOM      7  C   UNL     1       5.761   5.752  16.778  0.00  0.00    +0.000 A 
ATOM      8  C   UNL     1       5.381   4.433  16.561  0.00  0.00    +0.000 A 
ATOM      9  C   UNL     1       4.101   4.016  16.923  0.00  0.00    +0.000 A 
ATOM     10  C   UNL     1       3.191   4.911  17.502  0.00  0.00    +0.000 A 
ATOM     11 CL   UNL     1       1.601   4.272  17.775  0.00  0.00    +0.000 Cl
ATOM     12  C   UNL     1       3.559   6.246  17.783  0.00  0.00    +0.000 A 
ATOM     13  C   UNL     1       4.861   6.635  17.392  0.00  0.00    +0.000 A 
BRANCH   7  15
ATOM     14  C   UNL     1       7.540   7.204  17.382  0.00  0.00    +0.000 C 
ATOM     15  O   UNL     1       6.969   6.300  16.444  0.00  0.00    +0.000 OA
ENDBRANCH   7  15
ENDBRANCH   1  12
BRANCH   4  16
ATOM     16  N   UNL     1       0.384  10.146  20.582  0.00  0.00    +0.000 N 
ATOM     17  C   UNL     1      -0.782  10.729  20.108  0.00  0.00    +0.000 C 
ATOM     18  O   UNL     1      -1.386  10.409  19.088  0.00  0.00    +0.000 OA
ATOM     19  H   UNL     1       0.728  10.420  21.491  0.00  0.00    +0.000 HD
BRANCH  17  20
ATOM     20  C   UNL     1      -1.350  11.853  20.903  0.00  0.00    +0.000 A 
ATOM     21  C   UNL     1      -0.842  12.036  22.200  0.00  0.00    +0.000 A 
ATOM     22  C   UNL     1      -1.320  13.064  23.012  0.00  0.00    +0.000 A 
ATOM     23  C   UNL     1      -2.308  13.921  22.525  0.00  0.00    +0.000 A 
ATOM     24  C   UNL     1      -2.803  13.758  21.232  0.00  0.00    +0.000 A 
ATOM     25  C   UNL     1      -2.325  12.729  20.415  0.00  0.00    +0.000 A 
ENDBRANCH  17  20
ENDBRANCH   4  16
TORSDOF 4
ENDMDL
MODEL 6
REMARK VINA RESULT:      -7.8      1.380      1.568
REMARK  Name = 
REMARK  5 active torsions:
REMARK  status: ('A' for Active; 'I' for Inactive)
REMARK    1  A    between atoms: C_1  and  O_2
REMARK    2  A    between atoms: O_2  and  C_3
REMARK    3  A    between atoms: C_8  and  C_9
REMARK    4  A    between atoms: C_12  and  N_13
REMARK    5  A    between atoms: C_14  and  C_16
REMARK                            x       y       z     vdW  Elec       q    Type
REMARK                         _______ _______ _______ _____ _____    ______ ____
ROOT
ATOM      1  C   UNL     1       2.692   7.109  18.423  0.00  0.00    +0.000 A 
ATOM      2  C   UNL     1       2.291   8.283  17.771  0.00  0.00    +0.000 A 
ATOM      3  C   UNL     1       1.608   9.304  18.437  0.00  0.00    +0.000 A 
ATOM      4  C   UNL     1       1.245   9.169  19.773  0.00  0.00    +0.000 A 
ATOM      5  C   UNL     1       1.633   8.011  20.453  0.00  0.00    +0.000 A 
ATOM      6  C   UNL     1       2.345   6.999  19.785  0.00  0.00    +0.000 A 
ENDROOT
BRANCH   1  12
ATOM      7  C   UNL     1       5.333   5.330  16.332  0.00  0.00    +0.000 A 
ATOM      8  C   UNL     1       4.905   4.009  16.364  0.00  0.00    +0.000 A 
ATOM      9  C   UNL     1       3.723   3.683  17.026  0.00  0.00    +0.000 A 
ATOM     10  C   UNL     1       2.959   4.672  17.659  0.00  0.00    +0.000 A 
ATOM     11 CL   UNL     1       1.453   4.126  18.325  0.00  0.00    +0.000 Cl
ATOM     12  C   UNL     1       3.387   6.019  17.689  0.00  0.00    +0.000 A 
ATOM     13  C   UNL     1       4.586   6.312  16.998  0.00  0.00    +0.000 A 
BRANCH   7  15
ATOM     14  C   UNL     1       7.036   4.931  14.725  0.00  0.00    +0.000 C 
ATOM     15  O   UNL     1       6.452   5.792  15.694  0.00  0.00    +0.000 OA
ENDBRANCH   7  15
ENDBRANCH   1  12
BRANCH   4  16
ATOM     16  N   UNL     1       0.508  10.156  20.467  0.00  0.00    +0.000 N 
ATOM     17  C   UNL     1      -0.718  10.666  20.067  0.00  0.00    +0.000 C 
ATOM     18  O   UNL     1      -1.388  10.271  19.118  0.00  0.00    +0.000 OA
ATOM     19  H   UNL     1       0.914  10.489  21.330  0.00  0.00    +0.000 HD
BRANCH  17  20
ATOM     20  C   UNL     1      -1.270  11.802  20.856  0.00  0.00    +0.000 A 
ATOM     21  C   UNL     1      -0.935  11.853  22.220  0.00  0.00    +0.000 A 
ATOM     22  C   UNL     1      -1.411  12.882  23.031  0.00  0.00    +0.000 A 
ATOM     23  C   UNL     1      -2.221  13.874  22.477  0.00  0.00    +0.000 A 
ATOM     24  C   UNL     1      -2.542  13.842  21.121  0.00  0.00    +0.000 A 
ATOM     25  C   UNL     1      -2.066  12.810  20.305  0.00  0.00    +0.000 A 
ENDBRANCH  17  20
ENDBRANCH   4  16
TORSDOF 4
ENDMDL
MODEL 7
REMARK VINA RESULT:      -7.7      1.276      1.655
REMARK  Name = 
REMARK  5 active torsions:
REMARK  status: ('A' for Active; 'I' for Inactive)
REMARK    1  A    between atoms: C_1  and  O_2
REMARK    2  A    between atoms: O_2  and  C_3
REMARK    3  A    between atoms: C_8  and  C_9
REMARK    4  A    between atoms: C_12  and  N_13
REMARK    5  A    between atoms: C_14  and  C_16
REMARK                            x       y       z     vdW  Elec       q    Type
REMARK                         _______ _______ _______ _____ _____    ______ ____
ROOT
ATOM      1  C   UNL     1       2.845   7.102  18.463  0.00  0.00    +0.000 A 
ATOM      2  C   UNL     1       2.440   6.875  19.785  0.00  0.00    +0.000 A 
ATOM      3  C   UNL     1       1.632   7.780  20.478  0.00  0.00    +0.000 A 
ATOM      4  C   UNL     1       1.241   8.982  19.895  0.00  0.00    +0.000 A 
ATOM      5  C   UNL     1       1.626   9.237  18.576  0.00  0.00    +0.000 A 
ATOM      6  C   UNL     1       2.416   8.310  17.874  0.00  0.00    +0.000 A 
ENDROOT
BRANCH   1  12
ATOM      7  C   UNL     1       5.970   5.680  16.811  0.00  0.00    +0.000 A 
ATOM      8  C   UNL     1       5.595   4.373  16.529  0.00  0.00    +0.000 A 
ATOM      9  C   UNL     1       4.302   3.947  16.828  0.00  0.00    +0.000 A 
ATOM     10  C   UNL     1       3.374   4.822  17.407  0.00  0.00    +0.000 A 
ATOM     11 CL   UNL     1       1.773   4.179  17.597  0.00  0.00    +0.000 Cl
ATOM     12  C   UNL     1       3.734   6.144  17.754  0.00  0.00    +0.000 A 
ATOM     13  C   UNL     1       5.051   6.543  17.425  0.00  0.00    +0.000 A 
BRANCH   7  15
ATOM     14  C   UNL     1       7.586   7.331  17.360  0.00  0.00    +0.000 C 
ATOM     15  O   UNL     1       7.191   6.236  16.543  0.00  0.00    +0.000 OA
ENDBRANCH   7  15
ENDBRANCH   1  12
BRANCH   4  16
ATOM     16  N   UNL     1       0.468   9.946  20.582  0.00  0.00    +0.000 N 
ATOM     17  C   UNL     1      -0.660  10.575  20.074  0.00  0.00    +0.000 C 
ATOM     18  O   UNL     1      -1.209  10.320  19.007  0.00  0.00    +0.000 OA
ATOM     19  H   UNL     1       0.764  10.166  21.522  0.00  0.00    +0.000 HD
BRANCH  17  20
ATOM     20  C   UNL     1      -1.255  11.665  20.896  0.00  0.00    +0.000 A 
ATOM     21  C   UNL     1      -2.304  12.399  20.318  0.00  0.00    +0.000 A 
ATOM     22  C   UNL     1      -2.916  13.437  21.019  0.00  0.00    +0.000 A 
ATOM     23  C   UNL     1      -2.484  13.743  22.310  0.00  0.00    +0.000 A 
ATOM     24  C   UNL     1      -1.457  13.006  22.898  0.00  0.00    +0.000 A 
ATOM     25  C   UNL     1      -0.842  11.964  22.198  0.00  0.00    +0.000 A 
ENDBRANCH  17  20
ENDBRANCH   4  16
TORSDOF 4
ENDMDL
MODEL 8
REMARK VINA RESULT:      -7.6      1.096      1.525
REMARK  Name = 
REMARK  5 active torsions:
REMARK  status: ('A' for Active; 'I' for Inactive)
REMARK    1  A    between atoms: C_1  and  O_2
REMARK    2  A    between atoms: O_2  and  C_3
REMARK    3  A    between atoms: C_8  and  C_9
REMARK    4  A    between atoms: C_12  and  N_13
REMARK    5  A    between atoms: C_14  and  C_16
REMARK                            x       y       z     vdW  Elec       q    Type
REMARK                         _______ _______ _______ _____ _____    ______ ____
ROOT
ATOM      1  C   UNL     1       2.621   7.061  18.467  0.00  0.00    +0.000 A 
ATOM      2  C   UNL     1       2.353   6.973  19.840  0.00  0.00    +0.000 A 
ATOM      3  C   UNL     1       1.707   7.998  20.536  0.00  0.00    +0.000 A 
ATOM      4  C   UNL     1       1.351   9.182  19.898  0.00  0.00    +0.000 A 
ATOM      5  C   UNL     1       1.603   9.300  18.528  0.00  0.00    +0.000 A 
ATOM      6  C   UNL     1       2.228   8.254  17.827  0.00  0.00    +0.000 A 
ENDROOT
BRANCH   1  12
ATOM      7  C   UNL     1       5.331   5.294  16.454  0.00  0.00    +0.000 A 
ATOM      8  C   UNL     1       4.903   3.972  16.465  0.00  0.00    +0.000 A 
ATOM      9  C   UNL     1       3.699   3.643  17.086  0.00  0.00    +0.000 A 
ATOM     10  C   UNL     1       2.914   4.629  17.699  0.00  0.00    +0.000 A 
ATOM     11 CL   UNL     1       1.387   4.079  18.312  0.00  0.00    +0.000 Cl
ATOM     12  C   UNL     1       3.341   5.975  17.751  0.00  0.00    +0.000 A 
ATOM     13  C   UNL     1       4.561   6.272  17.100  0.00  0.00    +0.000 A 
BRANCH   7  15
ATOM     14  C   UNL     1       7.015   4.962  14.813  0.00  0.00    +0.000 C 
ATOM     15  O   UNL     1       6.470   5.759  15.857  0.00  0.00    +0.000 OA
ENDBRANCH   7  15
ENDBRANCH   1  12
BRANCH   4  16
ATOM     16  N   UNL     1       0.744  10.263  20.579  0.00  0.00    +0.000 N 
ATOM     17  C   UNL     1      -0.056  10.148  21.706  0.00  0.00    +0.000 C 
ATOM     18  O   UNL     1      -0.273   9.117  22.335  0.00  0.00    +0.000 OA
ATOM     19  H   UNL     1       0.937  11.184  20.212  0.00  0.00    +0.000 HD
BRANCH  17  20
ATOM     20  C   UNL     1      -0.719  11.389  22.195  0.00  0.00    +0.000 A 
ATOM     21  C   UNL     1      -0.185  12.612  21.756  0.00  0.00    +0.000 A 
ATOM     22  C   UNL     1      -0.746  13.820  22.168  0.00  0.00    +0.000 A 
ATOM     23  C   UNL     1      -1.852  13.810  23.019  0.00  0.00    +0.000 A 
ATOM     24  C   UNL     1      -2.400  12.600  23.442  0.00  0.00    +0.000 A 
ATOM     25  C   UNL     1      -1.840  11.387  23.031  0.00  0.00    +0.000 A 
ENDBRANCH  17  20
ENDBRANCH   4  16
TORSDOF 4
ENDMDL
MODEL 9
REMARK VINA RESULT:      -7.5      1.911      2.807
REMARK  Name = 
REMARK  5 active torsions:
REMARK  status: ('A' for Active; 'I' for Inactive)
REMARK    1  A    between atoms: C_1  and  O_2
REMARK    2  A    between atoms: O_2  and  C_3
REMARK    3  A    between atoms: C_8  and  C_9
REMARK    4  A    between atoms: C_12  and  N_13
REMARK    5  A    between atoms: C_14  and  C_16
REMARK                            x       y       z     vdW  Elec       q    Type
REMARK                         _______ _______ _______ _____ _____    ______ ____
ROOT
ATOM      1  C   UNL     1       2.440   7.015  18.629  0.00  0.00    +0.000 A 
ATOM      2  C   UNL     1       2.150   8.162  17.878  0.00  0.00    +0.000 A 
ATOM      3  C   UNL     1       1.528   9.279  18.442  0.00  0.00    +0.000 A 
ATOM      4  C   UNL     1       1.116   9.274  19.771  0.00  0.00    +0.000 A 
ATOM      5  C   UNL     1       1.392   8.145  20.547  0.00  0.00    +0.000 A 
ATOM      6  C   UNL     1       2.044   7.035  19.982  0.00  0.00    +0.000 A 
ENDROOT
BRANCH   1  12
ATOM      7  C   UNL     1       2.885   3.429  17.421  0.00  0.00    +0.000 A 
ATOM      8  C   UNL     1       4.084   3.492  16.723  0.00  0.00    +0.000 A 
ATOM      9  C   UNL     1       4.792   4.691  16.675  0.00  0.00    +0.000 A 
ATOM     10  C   UNL     1       4.311   5.835  17.325  0.00  0.00    +0.000 A 
ATOM     11 CL   UNL     1       5.370   7.209  17.280  0.00  0.00    +0.000 Cl
ATOM     12  C   UNL     1       3.071   5.823  18.003  0.00  0.00    +0.000 A 
ATOM     13  C   UNL     1       2.387   4.585  18.039  0.00  0.00    +0.000 A 
BRANCH   7  15
ATOM     14  C   UNL     1       1.128   2.356  18.605  0.00  0.00    +0.000 C 
ATOM     15  O   UNL     1       2.107   2.314  17.574  0.00  0.00    +0.000 OA
ENDBRANCH   7  15
ENDBRANCH   1  12
BRANCH   4  16
ATOM     16  N   UNL     1       0.437  10.363  20.363  0.00  0.00    +0.000 N 
ATOM     17  C   UNL     1       0.414  10.648  21.720  0.00  0.00    +0.000 C 
ATOM     18  O   UNL     1       1.055  10.066  22.590  0.00  0.00    +0.000 OA
ATOM     19  H   UNL     1      -0.048  10.983  19.729  0.00  0.00    +0.000 HD
BRANCH  17  20
ATOM     20  C   UNL     1      -0.473  11.759  22.165  0.00  0.00    +0.000 A 
ATOM     21  C   UNL     1      -1.612  11.406  22.907  0.00  0.00    +0.000 A 
ATOM     22  C   UNL     1      -2.496  12.384  23.361  0.00  0.00    +0.000 A 
ATOM     23  C   UNL     1      -2.239  13.726  23.079  0.00  0.00    +0.000 A 
ATOM     24  C   UNL     1      -1.100  14.086  22.360  0.00  0.00    +0.000 A 
ATOM     25  C   UNL     1      -0.212  13.107  21.904  0.00  0.00    +0.000 A 
ENDBRANCH  17  20
ENDBRANCH   4  16
TORSDOF 4
ENDMDL
