MODEL 1
REMARK VINA RESULT:      -6.8      0.000      0.000
REMARK  Name = 
REMARK  8 active torsions:
REMARK  status: ('A' for Active; 'I' for Inactive)
REMARK    1  A    between atoms: C_1  and  S_2
REMARK    2  A    between atoms: S_2  and  C_3
REMARK    3  A    between atoms: C_3  and  C_4
REMARK    4  A    between atoms: C_3  and  N_14
REMARK    5  A    between atoms: C_4  and  N_5
REMARK    6  A    between atoms: N_8  and  C_9
REMARK    7  A    between atoms: N_8  and  N_12
REMARK    8  A    between atoms: C_9  and  C_10
REMARK                            x       y       z     vdW  Elec       q    Type
REMARK                         _______ _______ _______ _____ _____    ______ ____
ROOT
ATOM      1  C   UNL     1       3.310   3.352  19.379  0.00  0.00    +0.000 C 
ENDROOT
BRANCH   1   2
ATOM      2  N   UNL     1       2.903   4.773  19.525  0.00  0.00    +0.000 N 
ATOM      3  C   UNL     1       3.052   5.700  18.500  0.00  0.00    +0.000 A 
ATOM      4  C   UNL     1       2.621   6.955  18.608  0.00  0.00    +0.000 A 
ATOM      5  F   UNL     1       2.715   7.838  17.598  0.00  0.00    +0.000 F 
ATOM      6  C   UNL     1       1.985   7.407  19.856  0.00  0.00    +0.000 A 
ATOM      7  O   UNL     1       1.539   8.540  20.004  0.00  0.00    +0.000 OA
ATOM      8  N   UNL     1       1.937   6.459  20.844  0.00  0.00    +0.000 N 
ATOM      9  C   UNL     1       2.372   5.160  20.758  0.00  0.00    +0.000 A 
ATOM     10  O   UNL     1       2.279   4.408  21.723  0.00  0.00    +0.000 OA
ATOM     11  H   UNL     1       1.515   6.740  21.718  0.00  0.00    +0.000 HD
ENDBRANCH   1   2
BRANCH   1  13
ATOM     12  C   UNL     1       0.916   2.182  18.433  0.00  0.00    +0.000 C 
ATOM     13  S   UNL     1       2.570   2.603  17.848  0.00  0.00    +0.000 S 
ENDBRANCH   1  13
BRANCH   1  14
ATOM     14  C   UNL     1       4.850   3.151  19.489  0.00  0.00    +0.000 C 
BRANCH  14  15
ATOM     15  N   UNL     1       5.619   3.967  18.555  0.00  0.00    +0.000 N 
ATOM     16  C   UNL     1       6.475   4.972  18.973  0.00  0.00    +0.000 C 
ATOM     17  O   UNL     1       6.638   5.232  20.161  0.00  0.00    +0.000 OA
ATOM     18  N   UNL     1       7.103   5.682  17.939  0.00  0.00    +0.000 N 
ATOM     19  H   UNL     1       5.848   3.533  17.675  0.00  0.00    +0.000 HD
BRANCH  18  20
ATOM     20  N   UNL     1       6.701   5.429  16.614  0.00  0.00    +0.000 NA
ATOM     21  O   UNL     1       7.301   4.510  16.056  0.00  0.00    +0.000 OA
ENDBRANCH  18  20
BRANCH  18  22
ATOM     22  C   UNL     1       7.968   6.825  18.251  0.00  0.00    +0.000 C 
BRANCH  22  23
ATOM     23  C   UNL     1       7.580   8.140  17.577  0.00  0.00    +0.000 C 
ATOM     24 CL   UNL     1       8.551   9.512  18.166  0.00  0.00    +0.000 Cl
ENDBRANCH  22  23
ENDBRANCH  18  22
ENDBRANCH  14  15
ENDBRANCH   1  14
TORSDOF 7
ENDMDL
MODEL 2
REMARK VINA RESULT:      -6.7      3.966      5.138
REMARK  Name = 
REMARK  8 active torsions:
REMARK  status: ('A' for Active; 'I' for Inactive)
REMARK    1  A    between atoms: C_1  and  S_2
REMARK    2  A    between atoms: S_2  and  C_3
REMARK    3  A    between atoms: C_3  and  C_4
REMARK    4  A    between atoms: C_3  and  N_14
REMARK    5  A    between atoms: C_4  and  N_5
REMARK    6  A    between atoms: N_8  and  C_9
REMARK    7  A    between atoms: N_8  and  N_12
REMARK    8  A    between atoms: C_9  and  C_10
REMARK                            x       y       z     vdW  Elec       q    Type
REMARK                         _______ _______ _______ _____ _____    ______ ____
ROOT
ATOM      1  C   UNL     1       5.432   6.245  18.384  0.00  0.00    +0.000 C 
ENDROOT
BRANCH   1   2
ATOM      2  N   UNL     1       4.552   5.192  18.953  0.00  0.00    +0.000 N 
ATOM      3  C   UNL     1       4.888   3.844  18.920  0.00  0.00    +0.000 A 
ATOM      4  C   UNL     1       4.133   2.909  19.494  0.00  0.00    +0.000 A 
ATOM      5  F   UNL     1       4.484   1.610  19.511  0.00  0.00    +0.000 F 
ATOM      6  C   UNL     1       2.882   3.289  20.169  0.00  0.00    +0.000 A 
ATOM      7  O   UNL     1       2.161   2.479  20.743  0.00  0.00    +0.000 OA
ATOM      8  N   UNL     1       2.582   4.624  20.099  0.00  0.00    +0.000 N 
ATOM      9  C   UNL     1       3.343   5.607  19.516  0.00  0.00    +0.000 A 
ATOM     10  O   UNL     1       2.959   6.772  19.514  0.00  0.00    +0.000 OA
ATOM     11  H   UNL     1       1.725   4.918  20.544  0.00  0.00    +0.000 HD
ENDBRANCH   1   2
BRANCH   1  13
ATOM     12  C   UNL     1       8.036   7.348  18.358  0.00  0.00    +0.000 C 
ATOM     13  S   UNL     1       7.219   5.745  18.486  0.00  0.00    +0.000 S 
ENDBRANCH   1  13
BRANCH   1  14
ATOM     14  C   UNL     1       4.992   6.695  16.960  0.00  0.00    +0.000 C 
BRANCH  14  15
ATOM     15  N   UNL     1       5.860   6.207  15.893  0.00  0.00    +0.000 N 
ATOM     16  C   UNL     1       5.615   5.025  15.215  0.00  0.00    +0.000 C 
ATOM     17  O   UNL     1       4.645   4.318  15.474  0.00  0.00    +0.000 OA
ATOM     18  N   UNL     1       6.573   4.689  14.247  0.00  0.00    +0.000 N 
ATOM     19  H   UNL     1       6.366   6.911  15.380  0.00  0.00    +0.000 HD
BRANCH  18  20
ATOM     20  N   UNL     1       7.741   5.469  14.164  0.00  0.00    +0.000 NA
ATOM     21  O   UNL     1       8.086   5.770  13.021  0.00  0.00    +0.000 OA
ENDBRANCH  18  20
BRANCH  18  22
ATOM     22  C   UNL     1       6.470   3.419  13.520  0.00  0.00    +0.000 C 
BRANCH  22  23
ATOM     23  C   UNL     1       5.594   3.454  12.268  0.00  0.00    +0.000 C 
ATOM     24 CL   UNL     1       5.606   1.902  11.394  0.00  0.00    +0.000 Cl
ENDBRANCH  22  23
ENDBRANCH  18  22
ENDBRANCH  14  15
ENDBRANCH   1  14
TORSDOF 7
ENDMDL
MODEL 3
REMARK VINA RESULT:      -6.5      3.416      5.967
REMARK  Name = 
REMARK  8 active torsions:
REMARK  status: ('A' for Active; 'I' for Inactive)
REMARK    1  A    between atoms: C_1  and  S_2
REMARK    2  A    between atoms: S_2  and  C_3
REMARK    3  A    between atoms: C_3  and  C_4
REMARK    4  A    between atoms: C_3  and  N_14
REMARK    5  A    between atoms: C_4  and  N_5
REMARK    6  A    between atoms: N_8  and  C_9
REMARK    7  A    between atoms: N_8  and  N_12
REMARK    8  A    between atoms: C_9  and  C_10
REMARK                            x       y       z     vdW  Elec       q    Type
REMARK                         _______ _______ _______ _____ _____    ______ ____
ROOT
ATOM      1  C   UNL     1       3.002   4.766  19.205  0.00  0.00    +0.000 C 
ENDROOT
BRANCH   1   2
ATOM      2  N   UNL     1       4.382   4.715  18.656  0.00  0.00    +0.000 N 
ATOM      3  C   UNL     1       5.464   5.291  19.310  0.00  0.00    +0.000 A 
ATOM      4  C   UNL     1       6.711   5.183  18.853  0.00  0.00    +0.000 A 
ATOM      5  F   UNL     1       7.766   5.691  19.514  0.00  0.00    +0.000 F 
ATOM      6  C   UNL     1       6.971   4.458  17.600  0.00  0.00    +0.000 A 
ATOM      7  O   UNL     1       8.099   4.297  17.145  0.00  0.00    +0.000 OA
ATOM      8  N   UNL     1       5.849   3.980  16.975  0.00  0.00    +0.000 N 
ATOM      9  C   UNL     1       4.555   4.076  17.426  0.00  0.00    +0.000 A 
ATOM     10  O   UNL     1       3.631   3.611  16.767  0.00  0.00    +0.000 OA
ATOM     11  H   UNL     1       5.991   3.485  16.107  0.00  0.00    +0.000 HD
ENDBRANCH   1   2
BRANCH   1  13
ATOM     12  C   UNL     1       1.032   2.744  19.037  0.00  0.00    +0.000 C 
ATOM     13  S   UNL     1       2.529   3.137  19.963  0.00  0.00    +0.000 S 
ENDBRANCH   1  13
BRANCH   1  14
ATOM     14  C   UNL     1       2.771   5.983  20.148  0.00  0.00    +0.000 C 
BRANCH  14  15
ATOM     15  N   UNL     1       2.261   7.168  19.466  0.00  0.00    +0.000 N 
ATOM     16  C   UNL     1       1.584   8.177  20.129  0.00  0.00    +0.000 C 
ATOM     17  O   UNL     1       1.376   8.131  21.338  0.00  0.00    +0.000 OA
ATOM     18  N   UNL     1       1.130   9.222  19.312  0.00  0.00    +0.000 N 
ATOM     19  H   UNL     1       2.758   7.446  18.634  0.00  0.00    +0.000 HD
BRANCH  18  20
ATOM     20  N   UNL     1       1.256   9.082  17.917  0.00  0.00    +0.000 NA
ATOM     21  O   UNL     1       2.245   9.629  17.427  0.00  0.00    +0.000 OA
ENDBRANCH  18  20
BRANCH  18  22
ATOM     22  C   UNL     1       0.326  10.308  19.884  0.00  0.00    +0.000 C 
BRANCH  22  23
ATOM     23  C   UNL     1      -0.912  10.697  19.077  0.00  0.00    +0.000 C 
ATOM     24 CL   UNL     1      -1.644  12.214  19.656  0.00  0.00    +0.000 Cl
ENDBRANCH  22  23
ENDBRANCH  18  22
ENDBRANCH  14  15
ENDBRANCH   1  14
TORSDOF 7
ENDMDL
MODEL 4
REMARK VINA RESULT:      -6.5      3.607      6.505
REMARK  Name = 
REMARK  8 active torsions:
REMARK  status: ('A' for Active; 'I' for Inactive)
REMARK    1  A    between atoms: C_1  and  S_2
REMARK    2  A    between atoms: S_2  and  C_3
REMARK    3  A    between atoms: C_3  and  C_4
REMARK    4  A    between atoms: C_3  and  N_14
REMARK    5  A    between atoms: C_4  and  N_5
REMARK    6  A    between atoms: N_8  and  C_9
REMARK    7  A    between atoms: N_8  and  N_12
REMARK    8  A    between atoms: C_9  and  C_10
REMARK                            x       y       z     vdW  Elec       q    Type
REMARK                         _______ _______ _______ _____ _____    ______ ____
ROOT
ATOM      1  C   UNL     1       3.236   5.966  18.112  0.00  0.00    +0.000 C 
ENDROOT
BRANCH   1   2
ATOM      2  N   UNL     1       4.630   5.532  17.837  0.00  0.00    +0.000 N 
ATOM      3  C   UNL     1       5.728   6.341  18.103  0.00  0.00    +0.000 A 
ATOM      4  C   UNL     1       6.980   5.924  17.923  0.00  0.00    +0.000 A 
ATOM      5  F   UNL     1       8.044   6.686  18.232  0.00  0.00    +0.000 F 
ATOM      6  C   UNL     1       7.233   4.572  17.400  0.00  0.00    +0.000 A 
ATOM      7  O   UNL     1       8.363   4.119  17.244  0.00  0.00    +0.000 OA
ATOM      8  N   UNL     1       6.104   3.860  17.095  0.00  0.00    +0.000 N 
ATOM      9  C   UNL     1       4.804   4.266  17.272  0.00  0.00    +0.000 A 
ATOM     10  O   UNL     1       3.874   3.533  16.951  0.00  0.00    +0.000 OA
ATOM     11  H   UNL     1       6.242   2.931  16.724  0.00  0.00    +0.000 HD
ENDBRANCH   1   2
BRANCH   1  13
ATOM     12  C   UNL     1       1.535   4.174  19.486  0.00  0.00    +0.000 C 
ATOM     13  S   UNL     1       2.719   5.490  19.831  0.00  0.00    +0.000 S 
ENDBRANCH   1  13
BRANCH   1  14
ATOM     14  C   UNL     1       2.995   7.468  17.781  0.00  0.00    +0.000 C 
BRANCH  14  15
ATOM     15  N   UNL     1       2.031   8.117  18.663  0.00  0.00    +0.000 N 
ATOM     16  C   UNL     1       1.604   9.420  18.471  0.00  0.00    +0.000 C 
ATOM     17  O   UNL     1       2.015  10.106  17.539  0.00  0.00    +0.000 OA
ATOM     18  N   UNL     1       0.705   9.898  19.436  0.00  0.00    +0.000 N 
ATOM     19  H   UNL     1       1.380   7.507  19.131  0.00  0.00    +0.000 HD
BRANCH  18  20
ATOM     20  N   UNL     1       0.449   9.096  20.564  0.00  0.00    +0.000 NA
ATOM     21  O   UNL     1       1.381   9.013  21.364  0.00  0.00    +0.000 OA
ENDBRANCH  18  20
BRANCH  18  22
ATOM     22  C   UNL     1       0.245  11.290  19.389  0.00  0.00    +0.000 C 
BRANCH  22  23
ATOM     23  C   UNL     1      -1.198  11.484  18.924  0.00  0.00    +0.000 C 
ATOM     24 CL   UNL     1      -1.783  10.110  17.953  0.00  0.00    +0.000 Cl
ENDBRANCH  22  23
ENDBRANCH  18  22
ENDBRANCH  14  15
ENDBRANCH   1  14
TORSDOF 7
ENDMDL
MODEL 5
REMARK VINA RESULT:      -6.5      3.662      5.966
REMARK  Name = 
REMARK  8 active torsions:
REMARK  status: ('A' for Active; 'I' for Inactive)
REMARK    1  A    between atoms: C_1  and  S_2
REMARK    2  A    between atoms: S_2  and  C_3
REMARK    3  A    between atoms: C_3  and  C_4
REMARK    4  A    between atoms: C_3  and  N_14
REMARK    5  A    between atoms: C_4  and  N_5
REMARK    6  A    between atoms: N_8  and  C_9
REMARK    7  A    between atoms: N_8  and  N_12
REMARK    8  A    between atoms: C_9  and  C_10
REMARK                            x       y       z     vdW  Elec       q    Type
REMARK                         _______ _______ _______ _____ _____    ______ ____
ROOT
ATOM      1  C   UNL     1       5.475   4.340  15.827  0.00  0.00    +0.000 C 
ENDROOT
BRANCH   1   2
ATOM      2  N   UNL     1       6.234   5.314  16.653  0.00  0.00    +0.000 N 
ATOM      3  C   UNL     1       7.011   4.925  17.736  0.00  0.00    +0.000 A 
ATOM      4  C   UNL     1       7.748   5.790  18.431  0.00  0.00    +0.000 A 
ATOM      5  F   UNL     1       8.543   5.407  19.446  0.00  0.00    +0.000 F 
ATOM      6  C   UNL     1       7.732   7.217  18.075  0.00  0.00    +0.000 A 
ATOM      7  O   UNL     1       8.412   8.058  18.656  0.00  0.00    +0.000 OA
ATOM      8  N   UNL     1       6.889   7.536  17.043  0.00  0.00    +0.000 N 
ATOM      9  C   UNL     1       6.122   6.664  16.310  0.00  0.00    +0.000 A 
ATOM     10  O   UNL     1       5.398   7.077  15.410  0.00  0.00    +0.000 OA
ATOM     11  H   UNL     1       6.846   8.510  16.778  0.00  0.00    +0.000 HD
ENDBRANCH   1   2
BRANCH   1  13
ATOM     12  C   UNL     1       5.055   3.727  13.098  0.00  0.00    +0.000 C 
ATOM     13  S   UNL     1       6.408   3.915  14.277  0.00  0.00    +0.000 S 
ENDBRANCH   1  13
BRANCH   1  14
ATOM     14  C   UNL     1       5.011   3.094  16.637  0.00  0.00    +0.000 C 
BRANCH  14  15
ATOM     15  N   UNL     1       3.680   3.233  17.219  0.00  0.00    +0.000 N 
ATOM     16  C   UNL     1       3.363   2.749  18.477  0.00  0.00    +0.000 C 
ATOM     17  O   UNL     1       4.190   2.175  19.178  0.00  0.00    +0.000 OA
ATOM     18  N   UNL     1       2.027   2.935  18.862  0.00  0.00    +0.000 N 
ATOM     19  H   UNL     1       3.141   4.024  16.904  0.00  0.00    +0.000 HD
BRANCH  18  20
ATOM     20  N   UNL     1       1.119   3.433  17.909  0.00  0.00    +0.000 NA
ATOM     21  O   UNL     1       1.280   4.616  17.607  0.00  0.00    +0.000 OA
ENDBRANCH  18  20
BRANCH  18  22
ATOM     22  C   UNL     1       1.546   2.392  20.138  0.00  0.00    +0.000 C 
BRANCH  22  23
ATOM     23  C   UNL     1       1.454   3.400  21.282  0.00  0.00    +0.000 C 
ATOM     24 CL   UNL     1       2.201   4.963  20.865  0.00  0.00    +0.000 Cl
ENDBRANCH  22  23
ENDBRANCH  18  22
ENDBRANCH  14  15
ENDBRANCH   1  14
TORSDOF 7
ENDMDL
MODEL 6
REMARK VINA RESULT:      -6.5      0.890      1.507
REMARK  Name = 
REMARK  8 active torsions:
REMARK  status: ('A' for Active; 'I' for Inactive)
REMARK    1  A    between atoms: C_1  and  S_2
REMARK    2  A    between atoms: S_2  and  C_3
REMARK    3  A    between atoms: C_3  and  C_4
REMARK    4  A    between atoms: C_3  and  N_14
REMARK    5  A    between atoms: C_4  and  N_5
REMARK    6  A    between atoms: N_8  and  C_9
REMARK    7  A    between atoms: N_8  and  N_12
REMARK    8  A    between atoms: C_9  and  C_10
REMARK                            x       y       z     vdW  Elec       q    Type
REMARK                         _______ _______ _______ _____ _____    ______ ____
ROOT
ATOM      1  C   UNL     1       3.164   2.853  19.389  0.00  0.00    +0.000 C 
ENDROOT
BRANCH   1   2
ATOM      2  N   UNL     1       2.843   4.291  19.579  0.00  0.00    +0.000 N 
ATOM      3  C   UNL     1       2.916   5.213  18.542  0.00  0.00    +0.000 A 
ATOM      4  C   UNL     1       2.559   6.487  18.696  0.00  0.00    +0.000 A 
ATOM      5  F   UNL     1       2.576   7.367  17.680  0.00  0.00    +0.000 F 
ATOM      6  C   UNL     1       2.095   6.963  20.008  0.00  0.00    +0.000 A 
ATOM      7  O   UNL     1       1.723   8.116  20.205  0.00  0.00    +0.000 OA
ATOM      8  N   UNL     1       2.118   6.016  20.998  0.00  0.00    +0.000 N 
ATOM      9  C   UNL     1       2.479   4.698  20.864  0.00  0.00    +0.000 A 
ATOM     10  O   UNL     1       2.463   3.948  21.835  0.00  0.00    +0.000 OA
ATOM     11  H   UNL     1       1.815   6.313  21.914  0.00  0.00    +0.000 HD
ENDBRANCH   1   2
BRANCH   1  13
ATOM     12  C   UNL     1       0.486   2.276  18.688  0.00  0.00    +0.000 C 
ATOM     13  S   UNL     1       2.151   2.122  18.013  0.00  0.00    +0.000 S 
ENDBRANCH   1  13
BRANCH   1  14
ATOM     14  C   UNL     1       4.692   2.588  19.247  0.00  0.00    +0.000 C 
BRANCH  14  15
ATOM     15  N   UNL     1       5.510   3.791  19.358  0.00  0.00    +0.000 N 
ATOM     16  C   UNL     1       6.045   4.434  18.255  0.00  0.00    +0.000 C 
ATOM     17  O   UNL     1       5.855   4.027  17.113  0.00  0.00    +0.000 OA
ATOM     18  N   UNL     1       6.839   5.553  18.549  0.00  0.00    +0.000 N 
ATOM     19  H   UNL     1       5.333   4.372  20.162  0.00  0.00    +0.000 HD
BRANCH  18  20
ATOM     20  N   UNL     1       7.146   5.819  19.896  0.00  0.00    +0.000 NA
ATOM     21  O   UNL     1       8.092   5.175  20.350  0.00  0.00    +0.000 OA
ENDBRANCH  18  20
BRANCH  18  22
ATOM     22  C   UNL     1       7.529   6.269  17.471  0.00  0.00    +0.000 C 
BRANCH  22  23
ATOM     23  C   UNL     1       7.363   7.788  17.487  0.00  0.00    +0.000 C 
ATOM     24 CL   UNL     1       8.571   8.587  18.524  0.00  0.00    +0.000 Cl
ENDBRANCH  22  23
ENDBRANCH  18  22
ENDBRANCH  14  15
ENDBRANCH   1  14
TORSDOF 7
ENDMDL
MODEL 7
REMARK VINA RESULT:      -6.3      1.049      1.049
REMARK  Name = 
REMARK  8 active torsions:
REMARK  status: ('A' for Active; 'I' for Inactive)
REMARK    1  A    between atoms: C_1  and  S_2
REMARK    2  A    between atoms: S_2  and  C_3
REMARK    3  A    between atoms: C_3  and  C_4
REMARK    4  A    between atoms: C_3  and  N_14
REMARK    5  A    between atoms: C_4  and  N_5
REMARK    6  A    between atoms: N_8  and  C_9
REMARK    7  A    between atoms: N_8  and  N_12
REMARK    8  A    between atoms: C_9  and  C_10
REMARK                            x       y       z     vdW  Elec       q    Type
REMARK                         _______ _______ _______ _____ _____    ______ ____
ROOT
ATOM      1  C   UNL     1       3.094   3.094  19.500  0.00  0.00    +0.000 C 
ENDROOT
BRANCH   1   2
ATOM      2  N   UNL     1       2.757   4.534  19.647  0.00  0.00    +0.000 N 
ATOM      3  C   UNL     1       2.856   5.433  18.592  0.00  0.00    +0.000 A 
ATOM      4  C   UNL     1       2.486   6.707  18.706  0.00  0.00    +0.000 A 
ATOM      5  F   UNL     1       2.528   7.565  17.671  0.00  0.00    +0.000 F 
ATOM      6  C   UNL     1       1.977   7.209  19.992  0.00  0.00    +0.000 A 
ATOM      7  O   UNL     1       1.591   8.363  20.151  0.00  0.00    +0.000 OA
ATOM      8  N   UNL     1       1.975   6.285  21.003  0.00  0.00    +0.000 N 
ATOM      9  C   UNL     1       2.349   4.967  20.911  0.00  0.00    +0.000 A 
ATOM     10  O   UNL     1       2.308   4.238  21.897  0.00  0.00    +0.000 OA
ATOM     11  H   UNL     1       1.641   6.600  21.903  0.00  0.00    +0.000 HD
ENDBRANCH   1   2
BRANCH   1  13
ATOM     12  C   UNL     1       0.684   2.125  18.381  0.00  0.00    +0.000 C 
ATOM     13  S   UNL     1       2.403   2.409  17.916  0.00  0.00    +0.000 S 
ENDBRANCH   1  13
BRANCH   1  14
ATOM     14  C   UNL     1       4.611   2.806  19.695  0.00  0.00    +0.000 C 
BRANCH  14  15
ATOM     15  N   UNL     1       5.460   3.399  18.667  0.00  0.00    +0.000 N 
ATOM     16  C   UNL     1       6.189   4.557  18.878  0.00  0.00    +0.000 C 
ATOM     17  O   UNL     1       6.163   5.152  19.952  0.00  0.00    +0.000 OA
ATOM     18  N   UNL     1       6.920   5.007  17.769  0.00  0.00    +0.000 N 
ATOM     19  H   UNL     1       5.838   2.761  17.985  0.00  0.00    +0.000 HD
BRANCH  18  20
ATOM     20  N   UNL     1       6.729   4.358  16.535  0.00  0.00    +0.000 NA
ATOM     21  O   UNL     1       7.661   4.470  15.739  0.00  0.00    +0.000 OA
ENDBRANCH  18  20
BRANCH  18  22
ATOM     22  C   UNL     1       7.666   6.268  17.841  0.00  0.00    +0.000 C 
BRANCH  22  23
ATOM     23  C   UNL     1       6.941   7.487  17.272  0.00  0.00    +0.000 C 
ATOM     24 CL   UNL     1       5.364   7.062  16.561  0.00  0.00    +0.000 Cl
ENDBRANCH  22  23
ENDBRANCH  18  22
ENDBRANCH  14  15
ENDBRANCH   1  14
TORSDOF 7
ENDMDL
MODEL 8
REMARK VINA RESULT:      -6.3      3.564      6.491
REMARK  Name = 
REMARK  8 active torsions:
REMARK  status: ('A' for Active; 'I' for Inactive)
REMARK    1  A    between atoms: C_1  and  S_2
REMARK    2  A    between atoms: S_2  and  C_3
REMARK    3  A    between atoms: C_3  and  C_4
REMARK    4  A    between atoms: C_3  and  N_14
REMARK    5  A    between atoms: C_4  and  N_5
REMARK    6  A    between atoms: N_8  and  C_9
REMARK    7  A    between atoms: N_8  and  N_12
REMARK    8  A    between atoms: C_9  and  C_10
REMARK                            x       y       z     vdW  Elec       q    Type
REMARK                         _______ _______ _______ _____ _____    ______ ____
ROOT
ATOM      1  C   UNL     1       2.950   5.853  18.187  0.00  0.00    +0.000 C 
ENDROOT
BRANCH   1   2
ATOM      2  N   UNL     1       4.316   5.503  17.721  0.00  0.00    +0.000 N 
ATOM      3  C   UNL     1       5.363   6.417  17.732  0.00  0.00    +0.000 A 
ATOM      4  C   UNL     1       6.603   6.081  17.381  0.00  0.00    +0.000 A 
ATOM      5  F   UNL     1       7.629   6.949  17.445  0.00  0.00    +0.000 F 
ATOM      6  C   UNL     1       6.893   4.709  16.937  0.00  0.00    +0.000 A 
ATOM      7  O   UNL     1       8.020   4.331  16.632  0.00  0.00    +0.000 OA
ATOM      8  N   UNL     1       5.799   3.885  16.884  0.00  0.00    +0.000 N 
ATOM      9  C   UNL     1       4.513   4.206  17.241  0.00  0.00    +0.000 A 
ATOM     10  O   UNL     1       3.615   3.376  17.141  0.00  0.00    +0.000 OA
ATOM     11  H   UNL     1       5.962   2.938  16.574  0.00  0.00    +0.000 HD
ENDBRANCH   1   2
BRANCH   1  13
ATOM     12  C   UNL     1       1.323   4.156  19.758  0.00  0.00    +0.000 C 
ATOM     13  S   UNL     1       2.690   5.316  19.947  0.00  0.00    +0.000 S 
ENDBRANCH   1  13
BRANCH   1  14
ATOM     14  C   UNL     1       2.588   7.346  17.931  0.00  0.00    +0.000 C 
BRANCH  14  15
ATOM     15  N   UNL     1       1.982   8.010  19.080  0.00  0.00    +0.000 N 
ATOM     16  C   UNL     1       1.497   9.306  19.022  0.00  0.00    +0.000 C 
ATOM     17  O   UNL     1       1.548   9.971  17.991  0.00  0.00    +0.000 OA
ATOM     18  N   UNL     1       0.984   9.801  20.230  0.00  0.00    +0.000 N 
ATOM     19  H   UNL     1       1.543   7.408  19.758  0.00  0.00    +0.000 HD
BRANCH  18  20
ATOM     20  N   UNL     1       1.148   9.025  21.393  0.00  0.00    +0.000 NA
ATOM     21  O   UNL     1       0.307   8.139  21.550  0.00  0.00    +0.000 OA
ENDBRANCH  18  20
BRANCH  18  22
ATOM     22  C   UNL     1       0.517  11.188  20.318  0.00  0.00    +0.000 C 
BRANCH  22  23
ATOM     23  C   UNL     1      -0.905  11.365  20.849  0.00  0.00    +0.000 C 
ATOM     24 CL   UNL     1      -0.948  11.514  22.624  0.00  0.00    +0.000 Cl
ENDBRANCH  22  23
ENDBRANCH  18  22
ENDBRANCH  14  15
ENDBRANCH   1  14
TORSDOF 7
ENDMDL
MODEL 9
REMARK VINA RESULT:      -6.2      1.507      1.652
REMARK  Name = 
REMARK  8 active torsions:
REMARK  status: ('A' for Active; 'I' for Inactive)
REMARK    1  A    between atoms: C_1  and  S_2
REMARK    2  A    between atoms: S_2  and  C_3
REMARK    3  A    between atoms: C_3  and  C_4
REMARK    4  A    between atoms: C_3  and  N_14
REMARK    5  A    between atoms: C_4  and  N_5
REMARK    6  A    between atoms: N_8  and  C_9
REMARK    7  A    between atoms: N_8  and  N_12
REMARK    8  A    between atoms: C_9  and  C_10
REMARK                            x       y       z     vdW  Elec       q    Type
REMARK                         _______ _______ _______ _____ _____    ______ ____
ROOT
ATOM      1  C   UNL     1       2.866   4.574  18.535  0.00  0.00    +0.000 C 
ENDROOT
BRANCH   1   2
ATOM      2  N   UNL     1       2.438   5.875  19.108  0.00  0.00    +0.000 N 
ATOM      3  C   UNL     1       2.368   7.036  18.349  0.00  0.00    +0.000 A 
ATOM      4  C   UNL     1       1.916   8.186  18.846  0.00  0.00    +0.000 A 
ATOM      5  F   UNL     1       1.796   9.297  18.098  0.00  0.00    +0.000 F 
ATOM      6  C   UNL     1       1.495   8.259  20.254  0.00  0.00    +0.000 A 
ATOM      7  O   UNL     1       1.039   9.280  20.761  0.00  0.00    +0.000 OA
ATOM      8  N   UNL     1       1.658   7.095  20.958  0.00  0.00    +0.000 N 
ATOM      9  C   UNL     1       2.120   5.898  20.468  0.00  0.00    +0.000 A 
ATOM     10  O   UNL     1       2.228   4.925  21.207  0.00  0.00    +0.000 OA
ATOM     11  H   UNL     1       1.388   7.114  21.931  0.00  0.00    +0.000 HD
ENDBRANCH   1   2
BRANCH   1  13
ATOM     12  C   UNL     1       2.040   1.929  19.100  0.00  0.00    +0.000 C 
ATOM     13  S   UNL     1       1.416   3.431  18.321  0.00  0.00    +0.000 S 
ENDBRANCH   1  13
BRANCH   1  14
ATOM     14  C   UNL     1       3.728   4.735  17.248  0.00  0.00    +0.000 C 
BRANCH  14  15
ATOM     15  N   UNL     1       5.143   4.968  17.512  0.00  0.00    +0.000 N 
ATOM     16  C   UNL     1       5.746   6.199  17.312  0.00  0.00    +0.000 C 
ATOM     17  O   UNL     1       5.117   7.170  16.901  0.00  0.00    +0.000 OA
ATOM     18  N   UNL     1       7.123   6.234  17.580  0.00  0.00    +0.000 N 
ATOM     19  H   UNL     1       5.563   4.384  18.217  0.00  0.00    +0.000 HD
BRANCH  18  20
ATOM     20  N   UNL     1       7.780   5.022  17.862  0.00  0.00    +0.000 NA
ATOM     21  O   UNL     1       8.044   4.333  16.876  0.00  0.00    +0.000 OA
ENDBRANCH  18  20
BRANCH  18  22
ATOM     22  C   UNL     1       7.891   7.458  17.327  0.00  0.00    +0.000 C 
BRANCH  22  23
ATOM     23  C   UNL     1       8.347   8.212  18.576  0.00  0.00    +0.000 C 
ATOM     24 CL   UNL     1       8.725   9.918  18.232  0.00  0.00    +0.000 Cl
ENDBRANCH  22  23
ENDBRANCH  18  22
ENDBRANCH  14  15
ENDBRANCH   1  14
TORSDOF 7
ENDMDL
