MODEL 1
REMARK VINA RESULT:      -7.0      0.000      0.000
REMARK  Name = 
REMARK  11 active torsions:
REMARK  status: ('A' for Active; 'I' for Inactive)
REMARK    1  A    between atoms: C_1  and  C_2
REMARK    2  A    between atoms: C_2  and  C_3
REMARK    3  A    between atoms: C_12  and  O_13
REMARK    4  A    between atoms: O_13  and  C_14
REMARK    5  A    between atoms: N_19  and  C_20
REMARK    6  A    between atoms: C_23  and  C_24
REMARK    7  A    between atoms: C_24  and  C_28
REMARK    8  A    between atoms: C_25  and  O_26
REMARK    9  A    between atoms: O_26  and  C_27
REMARK   10  A    between atoms: C_28  and  O_30
REMARK   11  A    between atoms: O_30  and  C_31
REMARK                            x       y       z     vdW  Elec       q    Type
REMARK                         _______ _______ _______ _____ _____    ______ ____
ROOT
ATOM      1  C   UNL     1       4.756   3.377  17.794  0.00  0.00    +0.000 C 
ATOM      2  C   UNL     1       4.047   2.711  18.978  0.00  0.00    +0.000 C 
ATOM      3  N   UNL     1       3.275   3.602  19.825  0.00  0.00    +0.000 NA
ATOM      4  C   UNL     1       1.850   3.586  19.560  0.00  0.00    +0.000 C 
ATOM      5  C   UNL     1       1.426   4.979  19.130  0.00  0.00    +0.000 C 
ATOM      6  C   UNL     1       2.604   5.959  19.429  0.00  0.00    +0.000 C 
ATOM      7  C   UNL     1       1.998   6.953  20.458  0.00  0.00    +0.000 C 
ATOM      8  O   UNL     1       1.822   6.771  21.651  0.00  0.00    +0.000 OA
ATOM      9  C   UNL     1       1.582   8.153  19.721  0.00  0.00    +0.000 A 
ATOM     10  C   UNL     1       0.875   9.291  20.093  0.00  0.00    +0.000 A 
ATOM     11  C   UNL     1       0.772  10.332  19.155  0.00  0.00    +0.000 A 
ATOM     12  C   UNL     1       1.355  10.227  17.887  0.00  0.00    +0.000 A 
ATOM     13  C   UNL     1       2.001   9.057  17.518  0.00  0.00    +0.000 A 
ATOM     14  C   UNL     1       2.121   8.021  18.445  0.00  0.00    +0.000 A 
ATOM     15  N   UNL     1       2.843   6.815  18.197  0.00  0.00    +0.000 N 
ATOM     16  C   UNL     1       4.174   7.201  17.751  0.00  0.00    +0.000 C 
ATOM     17  C   UNL     1       3.731   4.999  19.969  0.00  0.00    +0.000 C 
ATOM     18  C   UNL     1       5.243   5.156  19.624  0.00  0.00    +0.000 C 
ATOM     19  C   UNL     1       5.838   4.330  18.409  0.00  0.00    +0.000 C 
ENDROOT
BRANCH   1  21
ATOM     20  C   UNL     1       2.614   3.172  16.308  0.00  0.00    +0.000 C 
ATOM     21  C   UNL     1       3.826   3.997  16.727  0.00  0.00    +0.000 C 
ENDBRANCH   1  21
BRANCH  10  22
ATOM     22  O   UNL     1       0.284   9.326  21.322  0.00  0.00    +0.000 OA
ATOM     23  C   UNL     1      -0.038  10.624  21.809  0.00  0.00    +0.000 C 
ENDBRANCH  10  22
BRANCH  19  24
ATOM     24  C   UNL     1       6.833   5.024  17.446  0.00  0.00    +0.000 C 
ATOM     25  C   UNL     1       7.036   4.738  16.145  0.00  0.00    +0.000 C 
BRANCH  25  26
ATOM     26  O   UNL     1       6.407   3.740  15.452  0.00  0.00    +0.000 OA
ATOM     27  C   UNL     1       6.373   3.990  14.050  0.00  0.00    +0.000 C 
ENDBRANCH  25  26
BRANCH  24  28
ATOM     28  C   UNL     1       7.553   6.254  17.917  0.00  0.00    +0.000 C 
ATOM     29  O   UNL     1       8.159   6.314  18.973  0.00  0.00    +0.000 OA
BRANCH  28  30
ATOM     30  O   UNL     1       7.506   7.264  17.006  0.00  0.00    +0.000 OA
ATOM     31  C   UNL     1       7.815   8.546  17.569  0.00  0.00    +0.000 C 
ENDBRANCH  28  30
ENDBRANCH  24  28
ENDBRANCH  19  24
TORSDOF 6
ENDMDL
MODEL 2
REMARK VINA RESULT:      -6.6      5.939     11.995
REMARK  Name = 
REMARK  11 active torsions:
REMARK  status: ('A' for Active; 'I' for Inactive)
REMARK    1  A    between atoms: C_1  and  C_2
REMARK    2  A    between atoms: C_2  and  C_3
REMARK    3  A    between atoms: C_12  and  O_13
REMARK    4  A    between atoms: O_13  and  C_14
REMARK    5  A    between atoms: N_19  and  C_20
REMARK    6  A    between atoms: C_23  and  C_24
REMARK    7  A    between atoms: C_24  and  C_28
REMARK    8  A    between atoms: C_25  and  O_26
REMARK    9  A    between atoms: O_26  and  C_27
REMARK   10  A    between atoms: C_28  and  O_30
REMARK   11  A    between atoms: O_30  and  C_31
REMARK                            x       y       z     vdW  Elec       q    Type
REMARK                         _______ _______ _______ _____ _____    ______ ____
ROOT
ATOM      1  C   UNL     1      -4.371  15.244  22.643  0.00  0.00    +0.000 C 
ATOM      2  C   UNL     1      -3.609  15.126  23.967  0.00  0.00    +0.000 C 
ATOM      3  N   UNL     1      -2.625  14.061  24.028  0.00  0.00    +0.000 NA
ATOM      4  C   UNL     1      -1.261  14.499  23.817  0.00  0.00    +0.000 C 
ATOM      5  C   UNL     1      -0.718  13.799  22.584  0.00  0.00    +0.000 C 
ATOM      6  C   UNL     1      -1.710  12.657  22.198  0.00  0.00    +0.000 C 
ATOM      7  C   UNL     1      -0.853  11.368  22.334  0.00  0.00    +0.000 C 
ATOM      8  O   UNL     1      -0.551  10.783  23.361  0.00  0.00    +0.000 OA
ATOM      9  C   UNL     1      -0.382  11.006  20.991  0.00  0.00    +0.000 A 
ATOM     10  C   UNL     1       0.509  10.042  20.532  0.00  0.00    +0.000 A 
ATOM     11  C   UNL     1       0.625   9.870  19.143  0.00  0.00    +0.000 A 
ATOM     12  C   UNL     1      -0.124  10.644  18.249  0.00  0.00    +0.000 A 
ATOM     13  C   UNL     1      -0.959  11.641  18.731  0.00  0.00    +0.000 A 
ATOM     14  C   UNL     1      -1.092  11.814  20.109  0.00  0.00    +0.000 A 
ATOM     15  N   UNL     1      -1.991  12.748  20.707  0.00  0.00    +0.000 N 
ATOM     16  C   UNL     1      -3.307  12.497  20.136  0.00  0.00    +0.000 C 
ATOM     17  C   UNL     1      -2.874  12.834  23.245  0.00  0.00    +0.000 C 
ATOM     18  C   UNL     1      -4.384  12.659  22.901  0.00  0.00    +0.000 C 
ATOM     19  C   UNL     1      -5.232  13.940  22.513  0.00  0.00    +0.000 C 
ENDROOT
BRANCH   1  21
ATOM     20  C   UNL     1      -2.865  17.002  21.425  0.00  0.00    +0.000 C 
ATOM     21  C   UNL     1      -3.513  15.621  21.414  0.00  0.00    +0.000 C 
ENDBRANCH   1  21
BRANCH  10  22
ATOM     22  O   UNL     1       1.251   9.347  21.441  0.00  0.00    +0.000 OA
ATOM     23  C   UNL     1       1.173   7.929  21.337  0.00  0.00    +0.000 C 
ENDBRANCH  10  22
BRANCH  19  24
ATOM     24  C   UNL     1      -6.244  13.845  21.344  0.00  0.00    +0.000 C 
ATOM     25  C   UNL     1      -6.936  12.754  20.958  0.00  0.00    +0.000 C 
BRANCH  25  26
ATOM     26  O   UNL     1      -6.829  11.514  21.524  0.00  0.00    +0.000 OA
ATOM     27  C   UNL     1      -7.718  10.569  20.935  0.00  0.00    +0.000 C 
ENDBRANCH  25  26
BRANCH  24  28
ATOM     28  C   UNL     1      -6.654  15.105  20.641  0.00  0.00    +0.000 C 
ATOM     29  O   UNL     1      -7.293  15.995  21.177  0.00  0.00    +0.000 OA
BRANCH  28  30
ATOM     30  O   UNL     1      -6.178  15.169  19.367  0.00  0.00    +0.000 OA
ATOM     31  C   UNL     1      -6.349  16.458  18.765  0.00  0.00    +0.000 C 
ENDBRANCH  28  30
ENDBRANCH  24  28
ENDBRANCH  19  24
TORSDOF 6
ENDMDL
MODEL 3
REMARK VINA RESULT:      -6.4      8.416     12.668
REMARK  Name = 
REMARK  11 active torsions:
REMARK  status: ('A' for Active; 'I' for Inactive)
REMARK    1  A    between atoms: C_1  and  C_2
REMARK    2  A    between atoms: C_2  and  C_3
REMARK    3  A    between atoms: C_12  and  O_13
REMARK    4  A    between atoms: O_13  and  C_14
REMARK    5  A    between atoms: N_19  and  C_20
REMARK    6  A    between atoms: C_23  and  C_24
REMARK    7  A    between atoms: C_24  and  C_28
REMARK    8  A    between atoms: C_25  and  O_26
REMARK    9  A    between atoms: O_26  and  C_27
REMARK   10  A    between atoms: C_28  and  O_30
REMARK   11  A    between atoms: O_30  and  C_31
REMARK                            x       y       z     vdW  Elec       q    Type
REMARK                         _______ _______ _______ _____ _____    ______ ____
ROOT
ATOM      1  C   UNL     1      -6.118  14.352  22.764  0.00  0.00    +0.000 C 
ATOM      2  C   UNL     1      -7.440  14.120  22.025  0.00  0.00    +0.000 C 
ATOM      3  N   UNL     1      -7.319  13.588  20.681  0.00  0.00    +0.000 NA
ATOM      4  C   UNL     1      -7.549  12.161  20.582  0.00  0.00    +0.000 C 
ATOM      5  C   UNL     1      -6.283  11.505  20.061  0.00  0.00    +0.000 C 
ATOM      6  C   UNL     1      -5.333  12.630  19.541  0.00  0.00    +0.000 C 
ATOM      7  C   UNL     1      -5.177  12.305  18.030  0.00  0.00    +0.000 C 
ATOM      8  O   UNL     1      -5.972  12.538  17.135  0.00  0.00    +0.000 OA
ATOM      9  C   UNL     1      -3.914  11.575  17.863  0.00  0.00    +0.000 A 
ATOM     10  C   UNL     1      -3.333  10.932  16.775  0.00  0.00    +0.000 A 
ATOM     11  C   UNL     1      -2.023  10.446  16.928  0.00  0.00    +0.000 A 
ATOM     12  C   UNL     1      -1.328  10.597  18.133  0.00  0.00    +0.000 A 
ATOM     13  C   UNL     1      -1.952  11.187  19.222  0.00  0.00    +0.000 A 
ATOM     14  C   UNL     1      -3.248  11.684  19.079  0.00  0.00    +0.000 A 
ATOM     15  N   UNL     1      -3.944  12.387  20.109  0.00  0.00    +0.000 N 
ATOM     16  C   UNL     1      -3.073  13.467  20.549  0.00  0.00    +0.000 C 
ATOM     17  C   UNL     1      -6.123  13.947  19.892  0.00  0.00    +0.000 C 
ATOM     18  C   UNL     1      -5.447  15.249  20.420  0.00  0.00    +0.000 C 
ATOM     19  C   UNL     1      -5.373  15.489  21.985  0.00  0.00    +0.000 C 
ENDROOT
BRANCH   1  21
ATOM     20  C   UNL     1      -5.346  12.553  24.499  0.00  0.00    +0.000 C 
ATOM     21  C   UNL     1      -5.296  13.080  23.068  0.00  0.00    +0.000 C 
ENDBRANCH   1  21
BRANCH  10  22
ATOM     22  O   UNL     1      -4.068  10.766  15.638  0.00  0.00    +0.000 OA
ATOM     23  C   UNL     1      -3.375  10.180  14.542  0.00  0.00    +0.000 C 
ENDBRANCH  10  22
BRANCH  19  24
ATOM     24  C   UNL     1      -4.069  16.061  22.595  0.00  0.00    +0.000 C 
ATOM     25  C   UNL     1      -3.165  16.851  21.981  0.00  0.00    +0.000 C 
BRANCH  25  26
ATOM     26  O   UNL     1      -3.233  17.258  20.677  0.00  0.00    +0.000 OA
ATOM     27  C   UNL     1      -2.016  17.031  19.973  0.00  0.00    +0.000 C 
ENDBRANCH  25  26
BRANCH  24  28
ATOM     28  C   UNL     1      -3.821  15.881  24.064  0.00  0.00    +0.000 C 
ATOM     29  O   UNL     1      -4.499  16.408  24.928  0.00  0.00    +0.000 OA
BRANCH  28  30
ATOM     30  O   UNL     1      -2.800  15.016  24.316  0.00  0.00    +0.000 OA
ATOM     31  C   UNL     1      -1.964  15.433  25.403  0.00  0.00    +0.000 C 
ENDBRANCH  28  30
ENDBRANCH  24  28
ENDBRANCH  19  24
TORSDOF 6
ENDMDL
MODEL 4
REMARK VINA RESULT:      -6.4      0.629      2.106
REMARK  Name = 
REMARK  11 active torsions:
REMARK  status: ('A' for Active; 'I' for Inactive)
REMARK    1  A    between atoms: C_1  and  C_2
REMARK    2  A    between atoms: C_2  and  C_3
REMARK    3  A    between atoms: C_12  and  O_13
REMARK    4  A    between atoms: O_13  and  C_14
REMARK    5  A    between atoms: N_19  and  C_20
REMARK    6  A    between atoms: C_23  and  C_24
REMARK    7  A    between atoms: C_24  and  C_28
REMARK    8  A    between atoms: C_25  and  O_26
REMARK    9  A    between atoms: O_26  and  C_27
REMARK   10  A    between atoms: C_28  and  O_30
REMARK   11  A    between atoms: O_30  and  C_31
REMARK                            x       y       z     vdW  Elec       q    Type
REMARK                         _______ _______ _______ _____ _____    ______ ____
ROOT
ATOM      1  C   UNL     1       4.622   3.532  17.820  0.00  0.00    +0.000 C 
ATOM      2  C   UNL     1       4.160   2.955  19.161  0.00  0.00    +0.000 C 
ATOM      3  N   UNL     1       3.478   3.886  20.041  0.00  0.00    +0.000 NA
ATOM      4  C   UNL     1       2.034   3.773  20.022  0.00  0.00    +0.000 C 
ATOM      5  C   UNL     1       1.455   5.093  19.544  0.00  0.00    +0.000 C 
ATOM      6  C   UNL     1       2.600   6.155  19.551  0.00  0.00    +0.000 C 
ATOM      7  C   UNL     1       2.104   7.216  20.572  0.00  0.00    +0.000 C 
ATOM      8  O   UNL     1       2.137   7.147  21.790  0.00  0.00    +0.000 OA
ATOM      9  C   UNL     1       1.496   8.314  19.810  0.00  0.00    +0.000 A 
ATOM     10  C   UNL     1       0.786   9.447  20.191  0.00  0.00    +0.000 A 
ATOM     11  C   UNL     1       0.464  10.382  19.192  0.00  0.00    +0.000 A 
ATOM     12  C   UNL     1       0.840  10.180  17.859  0.00  0.00    +0.000 A 
ATOM     13  C   UNL     1       1.493   9.012  17.495  0.00  0.00    +0.000 A 
ATOM     14  C   UNL     1       1.829   8.081  18.479  0.00  0.00    +0.000 A 
ATOM     15  N   UNL     1       2.579   6.894  18.223  0.00  0.00    +0.000 N 
ATOM     16  C   UNL     1       3.791   7.299  17.528  0.00  0.00    +0.000 C 
ATOM     17  C   UNL     1       3.859   5.311  19.979  0.00  0.00    +0.000 C 
ATOM     18  C   UNL     1       5.282   5.508  19.372  0.00  0.00    +0.000 C 
ATOM     19  C   UNL     1       5.725   4.595  18.155  0.00  0.00    +0.000 C 
ENDROOT
BRANCH   1  21
ATOM     20  C   UNL     1       2.284   3.074  16.740  0.00  0.00    +0.000 C 
ATOM     21  C   UNL     1       3.493   3.995  16.872  0.00  0.00    +0.000 C 
ENDBRANCH   1  21
BRANCH  10  22
ATOM     22  O   UNL     1       0.401   9.576  21.493  0.00  0.00    +0.000 OA
ATOM     23  C   UNL     1      -0.472  10.666  21.768  0.00  0.00    +0.000 C 
ENDBRANCH  10  22
BRANCH  19  24
ATOM     24  C   UNL     1       6.503   5.237  16.980  0.00  0.00    +0.000 C 
ATOM     25  C   UNL     1       7.332   6.298  17.041  0.00  0.00    +0.000 C 
BRANCH  25  26
ATOM     26  O   UNL     1       7.601   7.023  18.170  0.00  0.00    +0.000 OA
ATOM     27  C   UNL     1       7.945   8.374  17.879  0.00  0.00    +0.000 C 
ENDBRANCH  25  26
BRANCH  24  28
ATOM     28  C   UNL     1       6.497   4.547  15.648  0.00  0.00    +0.000 C 
ATOM     29  O   UNL     1       6.374   3.341  15.518  0.00  0.00    +0.000 OA
BRANCH  28  30
ATOM     30  O   UNL     1       6.576   5.422  14.608  0.00  0.00    +0.000 OA
ATOM     31  C   UNL     1       7.152   4.846  13.429  0.00  0.00    +0.000 C 
ENDBRANCH  28  30
ENDBRANCH  24  28
ENDBRANCH  19  24
TORSDOF 6
ENDMDL
MODEL 5
REMARK VINA RESULT:      -6.4      5.751     12.020
REMARK  Name = 
REMARK  11 active torsions:
REMARK  status: ('A' for Active; 'I' for Inactive)
REMARK    1  A    between atoms: C_1  and  C_2
REMARK    2  A    between atoms: C_2  and  C_3
REMARK    3  A    between atoms: C_12  and  O_13
REMARK    4  A    between atoms: O_13  and  C_14
REMARK    5  A    between atoms: N_19  and  C_20
REMARK    6  A    between atoms: C_23  and  C_24
REMARK    7  A    between atoms: C_24  and  C_28
REMARK    8  A    between atoms: C_25  and  O_26
REMARK    9  A    between atoms: O_26  and  C_27
REMARK   10  A    between atoms: C_28  and  O_30
REMARK   11  A    between atoms: O_30  and  C_31
REMARK                            x       y       z     vdW  Elec       q    Type
REMARK                         _______ _______ _______ _____ _____    ______ ____
ROOT
ATOM      1  C   UNL     1      -2.453  15.767  23.222  0.00  0.00    +0.000 C 
ATOM      2  C   UNL     1      -0.970  15.794  23.605  0.00  0.00    +0.000 C 
ATOM      3  N   UNL     1      -0.163  14.720  23.057  0.00  0.00    +0.000 NA
ATOM      4  C   UNL     1       0.609  15.092  21.889  0.00  0.00    +0.000 C 
ATOM      5  C   UNL     1       0.161  14.230  20.723  0.00  0.00    +0.000 C 
ATOM      6  C   UNL     1      -0.728  13.076  21.285  0.00  0.00    +0.000 C 
ATOM      7  C   UNL     1       0.060  11.792  20.903  0.00  0.00    +0.000 C 
ATOM      8  O   UNL     1       1.043  11.331  21.459  0.00  0.00    +0.000 OA
ATOM      9  C   UNL     1      -0.541  11.253  19.676  0.00  0.00    +0.000 A 
ATOM     10  C   UNL     1      -0.177  10.216  18.824  0.00  0.00    +0.000 A 
ATOM     11  C   UNL     1      -1.072   9.870  17.798  0.00  0.00    +0.000 A 
ATOM     12  C   UNL     1      -2.287  10.546  17.634  0.00  0.00    +0.000 A 
ATOM     13  C   UNL     1      -2.598  11.617  18.459  0.00  0.00    +0.000 A 
ATOM     14  C   UNL     1      -1.723  11.963  19.489  0.00  0.00    +0.000 A 
ATOM     15  N   UNL     1      -1.991  12.988  20.446  0.00  0.00    +0.000 N 
ATOM     16  C   UNL     1      -3.299  12.702  21.018  0.00  0.00    +0.000 C 
ATOM     17  C   UNL     1      -0.808  13.412  22.822  0.00  0.00    +0.000 C 
ATOM     18  C   UNL     1      -2.096  13.235  23.682  0.00  0.00    +0.000 C 
ATOM     19  C   UNL     1      -3.055  14.480  23.885  0.00  0.00    +0.000 C 
ENDROOT
BRANCH   1  21
ATOM     20  C   UNL     1      -2.362  17.307  21.110  0.00  0.00    +0.000 C 
ATOM     21  C   UNL     1      -2.754  15.965  21.719  0.00  0.00    +0.000 C 
ENDBRANCH   1  21
BRANCH  10  22
ATOM     22  O   UNL     1       1.038   9.620  18.995  0.00  0.00    +0.000 OA
ATOM     23  C   UNL     1       1.795   9.423  17.805  0.00  0.00    +0.000 C 
ENDBRANCH  10  22
BRANCH  19  24
ATOM     24  C   UNL     1      -4.587  14.267  23.810  0.00  0.00    +0.000 C 
ATOM     25  C   UNL     1      -5.526  15.206  23.578  0.00  0.00    +0.000 C 
BRANCH  25  26
ATOM     26  O   UNL     1      -5.278  16.539  23.401  0.00  0.00    +0.000 OA
ATOM     27  C   UNL     1      -6.205  17.151  22.509  0.00  0.00    +0.000 C 
ENDBRANCH  25  26
BRANCH  24  28
ATOM     28  C   UNL     1      -5.122  12.865  23.829  0.00  0.00    +0.000 C 
ATOM     29  O   UNL     1      -4.751  12.016  24.622  0.00  0.00    +0.000 OA
BRANCH  28  30
ATOM     30  O   UNL     1      -6.107  12.672  22.910  0.00  0.00    +0.000 OA
ATOM     31  C   UNL     1      -7.351  12.264  23.494  0.00  0.00    +0.000 C 
ENDBRANCH  28  30
ENDBRANCH  24  28
ENDBRANCH  19  24
TORSDOF 6
ENDMDL
MODEL 6
REMARK VINA RESULT:      -6.3      5.925     12.278
REMARK  Name = 
REMARK  11 active torsions:
REMARK  status: ('A' for Active; 'I' for Inactive)
REMARK    1  A    between atoms: C_1  and  C_2
REMARK    2  A    between atoms: C_2  and  C_3
REMARK    3  A    between atoms: C_12  and  O_13
REMARK    4  A    between atoms: O_13  and  C_14
REMARK    5  A    between atoms: N_19  and  C_20
REMARK    6  A    between atoms: C_23  and  C_24
REMARK    7  A    between atoms: C_24  and  C_28
REMARK    8  A    between atoms: C_25  and  O_26
REMARK    9  A    between atoms: O_26  and  C_27
REMARK   10  A    between atoms: C_28  and  O_30
REMARK   11  A    between atoms: O_30  and  C_31
REMARK                            x       y       z     vdW  Elec       q    Type
REMARK                         _______ _______ _______ _____ _____    ______ ____
ROOT
ATOM      1  C   UNL     1      -4.617  15.247  23.038  0.00  0.00    +0.000 C 
ATOM      2  C   UNL     1      -3.755  15.131  24.300  0.00  0.00    +0.000 C 
ATOM      3  N   UNL     1      -2.763  14.072  24.285  0.00  0.00    +0.000 NA
ATOM      4  C   UNL     1      -1.421  14.519  23.971  0.00  0.00    +0.000 C 
ATOM      5  C   UNL     1      -0.969  13.825  22.699  0.00  0.00    +0.000 C 
ATOM      6  C   UNL     1      -1.981  12.678  22.387  0.00  0.00    +0.000 C 
ATOM      7  C   UNL     1      -1.108  11.394  22.455  0.00  0.00    +0.000 C 
ATOM      8  O   UNL     1      -0.726  10.809  23.454  0.00  0.00    +0.000 OA
ATOM      9  C   UNL     1      -0.738  11.037  21.079  0.00  0.00    +0.000 A 
ATOM     10  C   UNL     1       0.121  10.079  20.552  0.00  0.00    +0.000 A 
ATOM     11  C   UNL     1       0.133   9.911  19.157  0.00  0.00    +0.000 A 
ATOM     12  C   UNL     1      -0.687  10.682  18.325  0.00  0.00    +0.000 A 
ATOM     13  C   UNL     1      -1.489  11.673  18.870  0.00  0.00    +0.000 A 
ATOM     14  C   UNL     1      -1.519  11.842  20.255  0.00  0.00    +0.000 A 
ATOM     15  N   UNL     1      -2.375  12.770  20.922  0.00  0.00    +0.000 N 
ATOM     16  C   UNL     1      -3.729  12.511  20.452  0.00  0.00    +0.000 C 
ATOM     17  C   UNL     1      -3.063  12.846  23.519  0.00  0.00    +0.000 C 
ATOM     18  C   UNL     1      -4.594  12.661  23.291  0.00  0.00    +0.000 C 
ATOM     19  C   UNL     1      -5.477  13.938  22.971  0.00  0.00    +0.000 C 
ENDROOT
BRANCH   1  21
ATOM     20  C   UNL     1      -3.191  17.004  21.726  0.00  0.00    +0.000 C 
ATOM     21  C   UNL     1      -3.856  15.632  21.749  0.00  0.00    +0.000 C 
ENDBRANCH   1  21
BRANCH  10  22
ATOM     22  O   UNL     1       0.934   9.387  21.399  0.00  0.00    +0.000 OA
ATOM     23  C   UNL     1       1.434   8.153  20.895  0.00  0.00    +0.000 C 
ENDBRANCH  10  22
BRANCH  19  24
ATOM     24  C   UNL     1      -6.574  13.839  21.882  0.00  0.00    +0.000 C 
ATOM     25  C   UNL     1      -7.217  14.861  21.284  0.00  0.00    +0.000 C 
BRANCH  25  26
ATOM     26  O   UNL     1      -7.030  16.185  21.572  0.00  0.00    +0.000 OA
ATOM     27  C   UNL     1      -6.954  16.991  20.400  0.00  0.00    +0.000 C 
ENDBRANCH  25  26
BRANCH  24  28
ATOM     28  C   UNL     1      -6.871  12.497  21.280  0.00  0.00    +0.000 C 
ATOM     29  O   UNL     1      -7.085  11.496  21.942  0.00  0.00    +0.000 OA
BRANCH  28  30
ATOM     30  O   UNL     1      -6.940  12.542  19.921  0.00  0.00    +0.000 OA
ATOM     31  C   UNL     1      -7.098  11.249  19.322  0.00  0.00    +0.000 C 
ENDBRANCH  28  30
ENDBRANCH  24  28
ENDBRANCH  19  24
TORSDOF 6
ENDMDL
MODEL 7
REMARK VINA RESULT:      -6.1      5.501     11.852
REMARK  Name = 
REMARK  11 active torsions:
REMARK  status: ('A' for Active; 'I' for Inactive)
REMARK    1  A    between atoms: C_1  and  C_2
REMARK    2  A    between atoms: C_2  and  C_3
REMARK    3  A    between atoms: C_12  and  O_13
REMARK    4  A    between atoms: O_13  and  C_14
REMARK    5  A    between atoms: N_19  and  C_20
REMARK    6  A    between atoms: C_23  and  C_24
REMARK    7  A    between atoms: C_24  and  C_28
REMARK    8  A    between atoms: C_25  and  O_26
REMARK    9  A    between atoms: O_26  and  C_27
REMARK   10  A    between atoms: C_28  and  O_30
REMARK   11  A    between atoms: O_30  and  C_31
REMARK                            x       y       z     vdW  Elec       q    Type
REMARK                         _______ _______ _______ _____ _____    ______ ____
ROOT
ATOM      1  C   UNL     1      -1.975  16.090  22.549  0.00  0.00    +0.000 C 
ATOM      2  C   UNL     1      -0.538  15.997  23.071  0.00  0.00    +0.000 C 
ATOM      3  N   UNL     1       0.195  14.809  22.674  0.00  0.00    +0.000 NA
ATOM      4  C   UNL     1       1.104  15.016  21.564  0.00  0.00    +0.000 C 
ATOM      5  C   UNL     1       0.673  14.120  20.417  0.00  0.00    +0.000 C 
ATOM      6  C   UNL     1      -0.380  13.105  20.964  0.00  0.00    +0.000 C 
ATOM      7  C   UNL     1       0.297  11.724  20.742  0.00  0.00    +0.000 C 
ATOM      8  O   UNL     1       1.171  11.209  21.419  0.00  0.00    +0.000 OA
ATOM      9  C   UNL     1      -0.246  11.160  19.500  0.00  0.00    +0.000 A 
ATOM     10  C   UNL     1       0.080  10.032  18.755  0.00  0.00    +0.000 A 
ATOM     11  C   UNL     1      -0.751   9.702  17.671  0.00  0.00    +0.000 A 
ATOM     12  C   UNL     1      -1.867  10.483  17.348  0.00  0.00    +0.000 A 
ATOM     13  C   UNL     1      -2.135  11.638  18.068  0.00  0.00    +0.000 A 
ATOM     14  C   UNL     1      -1.323  11.969  19.154  0.00  0.00    +0.000 A 
ATOM     15  N   UNL     1      -1.566  13.083  20.014  0.00  0.00    +0.000 N 
ATOM     16  C   UNL     1      -2.943  12.973  20.474  0.00  0.00    +0.000 C 
ATOM     17  C   UNL     1      -0.561  13.559  22.461  0.00  0.00    +0.000 C 
ATOM     18  C   UNL     1      -1.933  13.576  23.202  0.00  0.00    +0.000 C 
ATOM     19  C   UNL     1      -2.768  14.923  23.232  0.00  0.00    +0.000 C 
ENDROOT
BRANCH   1  21
ATOM     20  C   UNL     1      -1.463  17.415  20.353  0.00  0.00    +0.000 C 
ATOM     21  C   UNL     1      -2.118  16.207  21.015  0.00  0.00    +0.000 C 
ENDBRANCH   1  21
BRANCH  10  22
ATOM     22  O   UNL     1       1.204   9.331  19.080  0.00  0.00    +0.000 OA
ATOM     23  C   UNL     1       2.041   8.974  17.984  0.00  0.00    +0.000 C 
ENDBRANCH  10  22
BRANCH  19  24
ATOM     24  C   UNL     1      -4.301  14.859  23.023  0.00  0.00    +0.000 C 
ATOM     25  C   UNL     1      -5.096  13.781  23.172  0.00  0.00    +0.000 C 
BRANCH  25  26
ATOM     26  O   UNL     1      -4.665  12.526  23.506  0.00  0.00    +0.000 OA
ATOM     27  C   UNL     1      -4.859  12.234  24.886  0.00  0.00    +0.000 C 
ENDBRANCH  25  26
BRANCH  24  28
ATOM     28  C   UNL     1      -5.050  16.138  22.788  0.00  0.00    +0.000 C 
ATOM     29  O   UNL     1      -5.485  16.471  21.699  0.00  0.00    +0.000 OA
BRANCH  28  30
ATOM     30  O   UNL     1      -5.243  16.845  23.935  0.00  0.00    +0.000 OA
ATOM     31  C   UNL     1      -5.429  18.248  23.707  0.00  0.00    +0.000 C 
ENDBRANCH  28  30
ENDBRANCH  24  28
ENDBRANCH  19  24
TORSDOF 6
ENDMDL
MODEL 8
REMARK VINA RESULT:      -6.0      8.988     10.713
REMARK  Name = 
REMARK  11 active torsions:
REMARK  status: ('A' for Active; 'I' for Inactive)
REMARK    1  A    between atoms: C_1  and  C_2
REMARK    2  A    between atoms: C_2  and  C_3
REMARK    3  A    between atoms: C_12  and  O_13
REMARK    4  A    between atoms: O_13  and  C_14
REMARK    5  A    between atoms: N_19  and  C_20
REMARK    6  A    between atoms: C_23  and  C_24
REMARK    7  A    between atoms: C_24  and  C_28
REMARK    8  A    between atoms: C_25  and  O_26
REMARK    9  A    between atoms: O_26  and  C_27
REMARK   10  A    between atoms: C_28  and  O_30
REMARK   11  A    between atoms: O_30  and  C_31
REMARK                            x       y       z     vdW  Elec       q    Type
REMARK                         _______ _______ _______ _____ _____    ______ ____
ROOT
ATOM      1  C   UNL     1      10.168  14.558  20.777  0.00  0.00    +0.000 C 
ATOM      2  C   UNL     1       9.959  15.398  22.041  0.00  0.00    +0.000 C 
ATOM      3  N   UNL     1       8.763  16.220  22.055  0.00  0.00    +0.000 NA
ATOM      4  C   UNL     1       7.662  15.655  22.809  0.00  0.00    +0.000 C 
ATOM      5  C   UNL     1       6.495  15.436  21.864  0.00  0.00    +0.000 C 
ATOM      6  C   UNL     1       6.809  16.177  20.526  0.00  0.00    +0.000 C 
ATOM      7  C   UNL     1       5.671  17.230  20.419  0.00  0.00    +0.000 C 
ATOM      8  O   UNL     1       5.586  18.294  21.010  0.00  0.00    +0.000 OA
ATOM      9  C   UNL     1       4.643  16.681  19.526  0.00  0.00    +0.000 A 
ATOM     10  C   UNL     1       3.369  17.115  19.174  0.00  0.00    +0.000 A 
ATOM     11  C   UNL     1       2.695  16.409  18.163  0.00  0.00    +0.000 A 
ATOM     12  C   UNL     1       3.281  15.304  17.534  0.00  0.00    +0.000 A 
ATOM     13  C   UNL     1       4.526  14.854  17.947  0.00  0.00    +0.000 A 
ATOM     14  C   UNL     1       5.210  15.553  18.941  0.00  0.00    +0.000 A 
ATOM     15  N   UNL     1       6.532  15.227  19.373  0.00  0.00    +0.000 N 
ATOM     16  C   UNL     1       7.366  15.170  18.181  0.00  0.00    +0.000 C 
ATOM     17  C   UNL     1       8.259  16.742  20.769  0.00  0.00    +0.000 C 
ATOM     18  C   UNL     1       9.371  16.773  19.677  0.00  0.00    +0.000 C 
ATOM     19  C   UNL     1      10.406  15.575  19.608  0.00  0.00    +0.000 C 
ENDROOT
BRANCH   1  21
ATOM     20  C   UNL     1       9.094  12.283  21.490  0.00  0.00    +0.000 C 
ATOM     21  C   UNL     1       9.106  13.464  20.525  0.00  0.00    +0.000 C 
ENDBRANCH   1  21
BRANCH  10  22
ATOM     22  O   UNL     1       2.822  18.166  19.848  0.00  0.00    +0.000 OA
ATOM     23  C   UNL     1       1.830  17.826  20.811  0.00  0.00    +0.000 C 
ENDBRANCH  10  22
BRANCH  19  24
ATOM     24  C   UNL     1      10.812  15.014  18.222  0.00  0.00    +0.000 C 
ATOM     25  C   UNL     1      11.111  15.724  17.116  0.00  0.00    +0.000 C 
BRANCH  25  26
ATOM     26  O   UNL     1      11.070  17.088  17.022  0.00  0.00    +0.000 OA
ATOM     27  C   UNL     1      12.333  17.690  17.286  0.00  0.00    +0.000 C 
ENDBRANCH  25  26
BRANCH  24  28
ATOM     28  C   UNL     1      11.073  13.543  18.088  0.00  0.00    +0.000 C 
ATOM     29  O   UNL     1      10.330  12.781  17.492  0.00  0.00    +0.000 OA
BRANCH  28  30
ATOM     30  O   UNL     1      12.256  13.171  18.649  0.00  0.00    +0.000 OA
ATOM     31  C   UNL     1      12.227  11.850  19.204  0.00  0.00    +0.000 C 
ENDBRANCH  28  30
ENDBRANCH  24  28
ENDBRANCH  19  24
TORSDOF 6
ENDMDL
MODEL 9
REMARK VINA RESULT:      -6.0      1.025      2.195
REMARK  Name = 
REMARK  11 active torsions:
REMARK  status: ('A' for Active; 'I' for Inactive)
REMARK    1  A    between atoms: C_1  and  C_2
REMARK    2  A    between atoms: C_2  and  C_3
REMARK    3  A    between atoms: C_12  and  O_13
REMARK    4  A    between atoms: O_13  and  C_14
REMARK    5  A    between atoms: N_19  and  C_20
REMARK    6  A    between atoms: C_23  and  C_24
REMARK    7  A    between atoms: C_24  and  C_28
REMARK    8  A    between atoms: C_25  and  O_26
REMARK    9  A    between atoms: O_26  and  C_27
REMARK   10  A    between atoms: C_28  and  O_30
REMARK   11  A    between atoms: O_30  and  C_31
REMARK                            x       y       z     vdW  Elec       q    Type
REMARK                         _______ _______ _______ _____ _____    ______ ____
ROOT
ATOM      1  C   UNL     1       4.113   3.183  18.104  0.00  0.00    +0.000 C 
ATOM      2  C   UNL     1       3.468   2.697  19.406  0.00  0.00    +0.000 C 
ATOM      3  N   UNL     1       2.854   3.727  20.222  0.00  0.00    +0.000 NA
ATOM      4  C   UNL     1       1.414   3.814  20.086  0.00  0.00    +0.000 C 
ATOM      5  C   UNL     1       1.065   5.193  19.557  0.00  0.00    +0.000 C 
ATOM      6  C   UNL     1       2.341   6.087  19.652  0.00  0.00    +0.000 C 
ATOM      7  C   UNL     1       1.917   7.223  20.624  0.00  0.00    +0.000 C 
ATOM      8  O   UNL     1       1.842   7.169  21.840  0.00  0.00    +0.000 OA
ATOM      9  C   UNL     1       1.530   8.382  19.809  0.00  0.00    +0.000 A 
ATOM     10  C   UNL     1       0.956   9.608  20.125  0.00  0.00    +0.000 A 
ATOM     11  C   UNL     1       0.848  10.562  19.099  0.00  0.00    +0.000 A 
ATOM     12  C   UNL     1       1.297  10.288  17.802  0.00  0.00    +0.000 A 
ATOM     13  C   UNL     1       1.809   9.036  17.498  0.00  0.00    +0.000 A 
ATOM     14  C   UNL     1       1.933   8.084  18.511  0.00  0.00    +0.000 A 
ATOM     15  N   UNL     1       2.529   6.800  18.323  0.00  0.00    +0.000 N 
ATOM     16  C   UNL     1       3.838   7.023  17.727  0.00  0.00    +0.000 C 
ATOM     17  C   UNL     1       3.433   5.085  20.185  0.00  0.00    +0.000 C 
ATOM     18  C   UNL     1       4.913   5.074  19.696  0.00  0.00    +0.000 C 
ATOM     19  C   UNL     1       5.321   4.090  18.523  0.00  0.00    +0.000 C 
ENDROOT
BRANCH   1  21
ATOM     20  C   UNL     1       1.848   3.010  16.806  0.00  0.00    +0.000 C 
ATOM     21  C   UNL     1       3.138   3.782  17.065  0.00  0.00    +0.000 C 
ENDBRANCH   1  21
BRANCH  10  22
ATOM     22  O   UNL     1       0.489   9.810  21.391  0.00  0.00    +0.000 OA
ATOM     23  C   UNL     1      -0.056  11.100  21.643  0.00  0.00    +0.000 C 
ENDBRANCH  10  22
BRANCH  19  24
ATOM     24  C   UNL     1       6.273   4.599  17.412  0.00  0.00    +0.000 C 
ATOM     25  C   UNL     1       7.585   4.880  17.536  0.00  0.00    +0.000 C 
BRANCH  25  26
ATOM     26  O   UNL     1       8.303   4.794  18.698  0.00  0.00    +0.000 OA
ATOM     27  C   UNL     1       8.267   6.004  19.449  0.00  0.00    +0.000 C 
ENDBRANCH  25  26
BRANCH  24  28
ATOM     28  C   UNL     1       5.771   4.647  15.999  0.00  0.00    +0.000 C 
ATOM     29  O   UNL     1       5.166   5.597  15.533  0.00  0.00    +0.000 OA
BRANCH  28  30
ATOM     30  O   UNL     1       6.125   3.543  15.285  0.00  0.00    +0.000 OA
ATOM     31  C   UNL     1       6.156   3.772  13.871  0.00  0.00    +0.000 C 
ENDBRANCH  28  30
ENDBRANCH  24  28
ENDBRANCH  19  24
TORSDOF 6
ENDMDL
