MODEL 1
REMARK VINA RESULT:      -4.8      0.000      0.000
REMARK  Name = 
REMARK  4 active torsions:
REMARK  status: ('A' for Active; 'I' for Inactive)
REMARK    1  A    between atoms: C_1  and  N_2
REMARK    2  A    between atoms: N_2  and  C_3
REMARK    3  A    between atoms: N_2  and  C_4
REMARK    4  A    between atoms: N_2  and  C_5
REMARK                            x       y       z     vdW  Elec       q    Type
REMARK                         _______ _______ _______ _____ _____    ______ ____
ROOT
ATOM      1  C   UNL     1       3.164   3.991  19.305  0.00  0.00    +0.000 A 
ATOM      2  C   UNL     1       1.823   4.416  19.287  0.00  0.00    +0.000 A 
ATOM      3  C   UNL     1       0.917   3.970  20.258  0.00  0.00    +0.000 A 
ATOM      4  C   UNL     1       1.333   3.074  21.238  0.00  0.00    +0.000 A 
ATOM      5  C   UNL     1       2.634   2.581  21.222  0.00  0.00    +0.000 A 
ATOM      6  C   UNL     1       3.537   3.028  20.253  0.00  0.00    +0.000 A 
ENDROOT
BRANCH   1   8
ATOM      7  C   UNL     1       4.365   3.639  17.142  0.00  0.00    +0.000 C 
ATOM      8  N   UNL     1       4.170   4.582  18.331  0.00  0.00    +0.000 NA
ATOM      9  C   UNL     1       5.485   4.800  19.059  0.00  0.00    +0.000 C 
ATOM     10  C   UNL     1       3.668   5.912  17.767  0.00  0.00    +0.000 C 
ENDBRANCH   1   8
TORSDOF 1
ENDMDL
MODEL 2
REMARK VINA RESULT:      -4.8      1.179      1.996
REMARK  Name = 
REMARK  4 active torsions:
REMARK  status: ('A' for Active; 'I' for Inactive)
REMARK    1  A    between atoms: C_1  and  N_2
REMARK    2  A    between atoms: N_2  and  C_3
REMARK    3  A    between atoms: N_2  and  C_4
REMARK    4  A    between atoms: N_2  and  C_5
REMARK                            x       y       z     vdW  Elec       q    Type
REMARK                         _______ _______ _______ _____ _____    ______ ____
ROOT
ATOM      1  C   UNL     1       2.890   4.452  18.735  0.00  0.00    +0.000 A 
ATOM      2  C   UNL     1       2.447   4.827  20.017  0.00  0.00    +0.000 A 
ATOM      3  C   UNL     1       1.384   4.154  20.633  0.00  0.00    +0.000 A 
ATOM      4  C   UNL     1       0.735   3.120  19.965  0.00  0.00    +0.000 A 
ATOM      5  C   UNL     1       1.109   2.789  18.666  0.00  0.00    +0.000 A 
ATOM      6  C   UNL     1       2.169   3.462  18.053  0.00  0.00    +0.000 A 
ENDROOT
BRANCH   1   8
ATOM      7  C   UNL     1       3.813   6.535  17.708  0.00  0.00    +0.000 C 
ATOM      8  N   UNL     1       4.126   5.098  18.131  0.00  0.00    +0.000 NA
ATOM      9  C   UNL     1       4.571   4.275  16.934  0.00  0.00    +0.000 C 
ATOM     10  C   UNL     1       5.260   5.172  19.155  0.00  0.00    +0.000 C 
ENDBRANCH   1   8
TORSDOF 1
ENDMDL
MODEL 3
REMARK VINA RESULT:      -4.8      1.228      2.008
REMARK  Name = 
REMARK  4 active torsions:
REMARK  status: ('A' for Active; 'I' for Inactive)
REMARK    1  A    between atoms: C_1  and  N_2
REMARK    2  A    between atoms: N_2  and  C_3
REMARK    3  A    between atoms: N_2  and  C_4
REMARK    4  A    between atoms: N_2  and  C_5
REMARK                            x       y       z     vdW  Elec       q    Type
REMARK                         _______ _______ _______ _____ _____    ______ ____
ROOT
ATOM      1  C   UNL     1       2.828   4.542  18.744  0.00  0.00    +0.000 A 
ATOM      2  C   UNL     1       2.374   4.865  20.036  0.00  0.00    +0.000 A 
ATOM      3  C   UNL     1       1.334   4.140  20.631  0.00  0.00    +0.000 A 
ATOM      4  C   UNL     1       0.718   3.106  19.933  0.00  0.00    +0.000 A 
ATOM      5  C   UNL     1       1.100   2.826  18.625  0.00  0.00    +0.000 A 
ATOM      6  C   UNL     1       2.139   3.550  18.032  0.00  0.00    +0.000 A 
ENDROOT
BRANCH   1   8
ATOM      7  C   UNL     1       5.187   5.244  19.174  0.00  0.00    +0.000 C 
ATOM      8  N   UNL     1       4.042   5.244  18.159  0.00  0.00    +0.000 NA
ATOM      9  C   UNL     1       3.655   6.666  17.792  0.00  0.00    +0.000 C 
ATOM     10  C   UNL     1       4.550   4.513  16.915  0.00  0.00    +0.000 C 
ENDBRANCH   1   8
TORSDOF 1
ENDMDL
MODEL 4
REMARK VINA RESULT:      -4.8      1.164      1.459
REMARK  Name = 
REMARK  4 active torsions:
REMARK  status: ('A' for Active; 'I' for Inactive)
REMARK    1  A    between atoms: C_1  and  N_2
REMARK    2  A    between atoms: N_2  and  C_3
REMARK    3  A    between atoms: N_2  and  C_4
REMARK    4  A    between atoms: N_2  and  C_5
REMARK                            x       y       z     vdW  Elec       q    Type
REMARK                         _______ _______ _______ _____ _____    ______ ____
ROOT
ATOM      1  C   UNL     1       2.928   4.426  18.720  0.00  0.00    +0.000 A 
ATOM      2  C   UNL     1       2.500   4.805  20.006  0.00  0.00    +0.000 A 
ATOM      3  C   UNL     1       1.427   4.151  20.625  0.00  0.00    +0.000 A 
ATOM      4  C   UNL     1       0.752   3.134  19.957  0.00  0.00    +0.000 A 
ATOM      5  C   UNL     1       1.112   2.801  18.654  0.00  0.00    +0.000 A 
ATOM      6  C   UNL     1       2.183   3.454  18.038  0.00  0.00    +0.000 A 
ENDROOT
BRANCH   1   8
ATOM      7  C   UNL     1       4.604   4.256  16.875  0.00  0.00    +0.000 C 
ATOM      8  N   UNL     1       4.174   5.047  18.112  0.00  0.00    +0.000 NA
ATOM      9  C   UNL     1       5.279   5.048  19.154  0.00  0.00    +0.000 C 
ATOM     10  C   UNL     1       3.901   6.480  17.651  0.00  0.00    +0.000 C 
ENDBRANCH   1   8
TORSDOF 1
ENDMDL
MODEL 5
REMARK VINA RESULT:      -4.8      0.099      1.344
REMARK  Name = 
REMARK  4 active torsions:
REMARK  status: ('A' for Active; 'I' for Inactive)
REMARK    1  A    between atoms: C_1  and  N_2
REMARK    2  A    between atoms: N_2  and  C_3
REMARK    3  A    between atoms: N_2  and  C_4
REMARK    4  A    between atoms: N_2  and  C_5
REMARK                            x       y       z     vdW  Elec       q    Type
REMARK                         _______ _______ _______ _____ _____    ______ ____
ROOT
ATOM      1  C   UNL     1       3.165   4.053  19.320  0.00  0.00    +0.000 A 
ATOM      2  C   UNL     1       1.828   4.491  19.330  0.00  0.00    +0.000 A 
ATOM      3  C   UNL     1       0.925   4.011  20.288  0.00  0.00    +0.000 A 
ATOM      4  C   UNL     1       1.339   3.070  21.225  0.00  0.00    +0.000 A 
ATOM      5  C   UNL     1       2.635   2.566  21.179  0.00  0.00    +0.000 A 
ATOM      6  C   UNL     1       3.536   3.046  20.223  0.00  0.00    +0.000 A 
ENDROOT
BRANCH   1   8
ATOM      7  C   UNL     1       3.623   5.995  17.817  0.00  0.00    +0.000 C 
ATOM      8  N   UNL     1       4.170   4.676  18.366  0.00  0.00    +0.000 NA
ATOM      9  C   UNL     1       4.440   3.699  17.234  0.00  0.00    +0.000 C 
ATOM     10  C   UNL     1       5.480   5.002  19.086  0.00  0.00    +0.000 C 
ENDBRANCH   1   8
TORSDOF 1
ENDMDL
MODEL 6
REMARK VINA RESULT:      -4.8      0.104      1.379
REMARK  Name = 
REMARK  4 active torsions:
REMARK  status: ('A' for Active; 'I' for Inactive)
REMARK    1  A    between atoms: C_1  and  N_2
REMARK    2  A    between atoms: N_2  and  C_3
REMARK    3  A    between atoms: N_2  and  C_4
REMARK    4  A    between atoms: N_2  and  C_5
REMARK                            x       y       z     vdW  Elec       q    Type
REMARK                         _______ _______ _______ _____ _____    ______ ____
ROOT
ATOM      1  C   UNL     1       3.168   4.067  19.328  0.00  0.00    +0.000 A 
ATOM      2  C   UNL     1       1.823   4.480  19.320  0.00  0.00    +0.000 A 
ATOM      3  C   UNL     1       0.920   3.996  20.276  0.00  0.00    +0.000 A 
ATOM      4  C   UNL     1       1.343   3.076  21.230  0.00  0.00    +0.000 A 
ATOM      5  C   UNL     1       2.649   2.597  21.202  0.00  0.00    +0.000 A 
ATOM      6  C   UNL     1       3.549   3.081  20.248  0.00  0.00    +0.000 A 
ENDROOT
BRANCH   1   8
ATOM      7  C   UNL     1       5.490   4.962  19.099  0.00  0.00    +0.000 C 
ATOM      8  N   UNL     1       4.169   4.696  18.373  0.00  0.00    +0.000 NA
ATOM      9  C   UNL     1       3.586   5.992  17.837  0.00  0.00    +0.000 C 
ATOM     10  C   UNL     1       4.482   3.754  17.210  0.00  0.00    +0.000 C 
ENDBRANCH   1   8
TORSDOF 1
ENDMDL
MODEL 7
REMARK VINA RESULT:      -4.8      1.089      1.908
REMARK  Name = 
REMARK  4 active torsions:
REMARK  status: ('A' for Active; 'I' for Inactive)
REMARK    1  A    between atoms: C_1  and  N_2
REMARK    2  A    between atoms: N_2  and  C_3
REMARK    3  A    between atoms: N_2  and  C_4
REMARK    4  A    between atoms: N_2  and  C_5
REMARK                            x       y       z     vdW  Elec       q    Type
REMARK                         _______ _______ _______ _____ _____    ______ ____
ROOT
ATOM      1  C   UNL     1       3.004   4.251  18.831  0.00  0.00    +0.000 A 
ATOM      2  C   UNL     1       2.298   3.222  18.181  0.00  0.00    +0.000 A 
ATOM      3  C   UNL     1       1.133   2.685  18.744  0.00  0.00    +0.000 A 
ATOM      4  C   UNL     1       0.677   3.149  19.974  0.00  0.00    +0.000 A 
ATOM      5  C   UNL     1       1.407   4.110  20.668  0.00  0.00    +0.000 A 
ATOM      6  C   UNL     1       2.569   4.644  20.105  0.00  0.00    +0.000 A 
ENDROOT
BRANCH   1   8
ATOM      7  C   UNL     1       3.821   6.346  17.742  0.00  0.00    +0.000 C 
ATOM      8  N   UNL     1       4.188   4.918  18.152  0.00  0.00    +0.000 NA
ATOM      9  C   UNL     1       4.580   4.098  16.935  0.00  0.00    +0.000 C 
ATOM     10  C   UNL     1       5.379   5.021  19.107  0.00  0.00    +0.000 C 
ENDBRANCH   1   8
TORSDOF 1
ENDMDL
MODEL 8
REMARK VINA RESULT:      -4.8      1.059      1.262
REMARK  Name = 
REMARK  4 active torsions:
REMARK  status: ('A' for Active; 'I' for Inactive)
REMARK    1  A    between atoms: C_1  and  N_2
REMARK    2  A    between atoms: N_2  and  C_3
REMARK    3  A    between atoms: N_2  and  C_4
REMARK    4  A    between atoms: N_2  and  C_5
REMARK                            x       y       z     vdW  Elec       q    Type
REMARK                         _______ _______ _______ _____ _____    ______ ____
ROOT
ATOM      1  C   UNL     1       3.041   4.236  18.837  0.00  0.00    +0.000 A 
ATOM      2  C   UNL     1       2.254   3.273  18.179  0.00  0.00    +0.000 A 
ATOM      3  C   UNL     1       1.098   2.760  18.781  0.00  0.00    +0.000 A 
ATOM      4  C   UNL     1       0.733   3.179  20.057  0.00  0.00    +0.000 A 
ATOM      5  C   UNL     1       1.543   4.070  20.754  0.00  0.00    +0.000 A 
ATOM      6  C   UNL     1       2.696   4.582  20.151  0.00  0.00    +0.000 A 
ENDROOT
BRANCH   1   8
ATOM      7  C   UNL     1       4.549   4.108  16.849  0.00  0.00    +0.000 C 
ATOM      8  N   UNL     1       4.215   4.885  18.124  0.00  0.00    +0.000 NA
ATOM      9  C   UNL     1       5.408   4.904  19.064  0.00  0.00    +0.000 C 
ATOM     10  C   UNL     1       3.874   6.314  17.698  0.00  0.00    +0.000 C 
ENDBRANCH   1   8
TORSDOF 1
ENDMDL
MODEL 9
REMARK VINA RESULT:      -4.8      1.092      1.833
REMARK  Name = 
REMARK  4 active torsions:
REMARK  status: ('A' for Active; 'I' for Inactive)
REMARK    1  A    between atoms: C_1  and  N_2
REMARK    2  A    between atoms: N_2  and  C_3
REMARK    3  A    between atoms: N_2  and  C_4
REMARK    4  A    between atoms: N_2  and  C_5
REMARK                            x       y       z     vdW  Elec       q    Type
REMARK                         _______ _______ _______ _____ _____    ______ ____
ROOT
ATOM      1  C   UNL     1       3.022   4.317  18.858  0.00  0.00    +0.000 A 
ATOM      2  C   UNL     1       2.258   3.341  18.191  0.00  0.00    +0.000 A 
ATOM      3  C   UNL     1       1.117   2.793  18.791  0.00  0.00    +0.000 A 
ATOM      4  C   UNL     1       0.743   3.190  20.071  0.00  0.00    +0.000 A 
ATOM      5  C   UNL     1       1.533   4.095  20.775  0.00  0.00    +0.000 A 
ATOM      6  C   UNL     1       2.671   4.641  20.176  0.00  0.00    +0.000 A 
ENDROOT
BRANCH   1   8
ATOM      7  C   UNL     1       5.415   5.008  19.050  0.00  0.00    +0.000 C 
ATOM      8  N   UNL     1       4.179   5.002  18.149  0.00  0.00    +0.000 NA
ATOM      9  C   UNL     1       3.766   6.422  17.801  0.00  0.00    +0.000 C 
ATOM     10  C   UNL     1       4.561   4.250  16.873  0.00  0.00    +0.000 C 
ENDBRANCH   1   8
TORSDOF 1
ENDMDL
