MODEL 1
REMARK VINA RESULT:      -5.1      0.000      0.000
REMARK  Name = 
REMARK  15 active torsions:
REMARK  status: ('A' for Active; 'I' for Inactive)
REMARK    1  A    between atoms: C_1  and  C_2
REMARK    2  A    between atoms: C_2  and  C_3
REMARK    3  A    between atoms: C_3  and  C_4
REMARK    4  A    between atoms: C_4  and  C_5
REMARK    5  A    between atoms: C_5  and  C_6
REMARK    6  A    between atoms: C_6  and  C_7
REMARK    7  A    between atoms: C_7  and  C_8
REMARK    8  A    between atoms: C_8  and  C_9
REMARK    9  A    between atoms: C_9  and  C_10
REMARK   10  A    between atoms: C_10  and  C_11
REMARK   11  A    between atoms: C_11  and  C_12
REMARK   12  A    between atoms: C_12  and  C_13
REMARK   13  A    between atoms: C_13  and  C_14
REMARK   14  A    between atoms: C_14  and  C_15
REMARK   15  A    between atoms: C_15  and  C_16
REMARK                            x       y       z     vdW  Elec       q    Type
REMARK                         _______ _______ _______ _____ _____    ______ ____
ROOT
ATOM      1  C   UNL     1       2.730   6.204  19.944  0.00  0.00    +0.000 C 
ENDROOT
BRANCH   1   2
ATOM      2  C   UNL     1       1.586   5.573  20.716  0.00  0.00    +0.000 C 
BRANCH   2   3
ATOM      3  C   UNL     1       1.851   4.092  20.917  0.00  0.00    +0.000 C 
BRANCH   3   4
ATOM      4  C   UNL     1       0.696   3.282  20.355  0.00  0.00    +0.000 C 
BRANCH   4   5
ATOM      5  C   UNL     1       1.157   2.496  19.139  0.00  0.00    +0.000 C 
BRANCH   5   6
ATOM      6  C   UNL     1       1.356   3.431  17.958  0.00  0.00    +0.000 C 
BRANCH   6   7
ATOM      7  C   UNL     1       2.682   3.137  17.274  0.00  0.00    +0.000 C 
BRANCH   7   9
ATOM      8  C   UNL     1       4.626   3.137  18.842  0.00  0.00    +0.000 C 
ATOM      9  C   UNL     1       3.569   2.283  18.167  0.00  0.00    +0.000 C 
ENDBRANCH   7   9
ENDBRANCH   6   7
ENDBRANCH   5   6
ENDBRANCH   4   5
ENDBRANCH   3   4
ENDBRANCH   2   3
ENDBRANCH   1   2
BRANCH   1  10
ATOM     10  C   UNL     1       2.290   7.546  19.386  0.00  0.00    +0.000 C 
BRANCH  10  11
ATOM     11  C   UNL     1       2.775   7.698  17.954  0.00  0.00    +0.000 C 
BRANCH  11  12
ATOM     12  C   UNL     1       3.603   6.486  17.548  0.00  0.00    +0.000 C 
BRANCH  12  13
ATOM     13  C   UNL     1       4.871   6.943  16.843  0.00  0.00    +0.000 C 
BRANCH  13  14
ATOM     14  C   UNL     1       6.057   6.035  17.155  0.00  0.00    +0.000 C 
BRANCH  14  15
ATOM     15  C   UNL     1       6.535   5.316  15.903  0.00  0.00    +0.000 C 
ATOM     16  C   UNL     1       5.655   4.241  15.326  0.00  0.00    +0.000 C 
ATOM     17  O   UNL     1       7.603   5.586  15.359  0.00  0.00    +0.000 OA
ENDBRANCH  14  15
ENDBRANCH  13  14
ENDBRANCH  12  13
ENDBRANCH  11  12
ENDBRANCH  10  11
ENDBRANCH   1  10
TORSDOF 13
ENDMDL
MODEL 2
REMARK VINA RESULT:      -5.1      2.916      6.240
REMARK  Name = 
REMARK  15 active torsions:
REMARK  status: ('A' for Active; 'I' for Inactive)
REMARK    1  A    between atoms: C_1  and  C_2
REMARK    2  A    between atoms: C_2  and  C_3
REMARK    3  A    between atoms: C_3  and  C_4
REMARK    4  A    between atoms: C_4  and  C_5
REMARK    5  A    between atoms: C_5  and  C_6
REMARK    6  A    between atoms: C_6  and  C_7
REMARK    7  A    between atoms: C_7  and  C_8
REMARK    8  A    between atoms: C_8  and  C_9
REMARK    9  A    between atoms: C_9  and  C_10
REMARK   10  A    between atoms: C_10  and  C_11
REMARK   11  A    between atoms: C_11  and  C_12
REMARK   12  A    between atoms: C_12  and  C_13
REMARK   13  A    between atoms: C_13  and  C_14
REMARK   14  A    between atoms: C_14  and  C_15
REMARK   15  A    between atoms: C_15  and  C_16
REMARK                            x       y       z     vdW  Elec       q    Type
REMARK                         _______ _______ _______ _____ _____    ______ ____
ROOT
ATOM      1  C   UNL     1       4.042   5.563  17.580  0.00  0.00    +0.000 C 
ENDROOT
BRANCH   1   2
ATOM      2  C   UNL     1       5.137   6.101  16.677  0.00  0.00    +0.000 C 
BRANCH   2   3
ATOM      3  C   UNL     1       6.462   5.443  17.019  0.00  0.00    +0.000 C 
BRANCH   3   4
ATOM      4  C   UNL     1       6.796   4.389  15.978  0.00  0.00    +0.000 C 
BRANCH   4   5
ATOM      5  C   UNL     1       6.432   4.894  14.593  0.00  0.00    +0.000 C 
BRANCH   5   6
ATOM      6  C   UNL     1       5.629   3.841  13.847  0.00  0.00    +0.000 C 
BRANCH   6   7
ATOM      7  C   UNL     1       6.197   3.640  12.451  0.00  0.00    +0.000 C 
BRANCH   7   9
ATOM      8  C   UNL     1       4.107   3.146  11.176  0.00  0.00    +0.000 C 
ATOM      9  C   UNL     1       5.411   2.575  11.699  0.00  0.00    +0.000 C 
ENDBRANCH   7   9
ENDBRANCH   6   7
ENDBRANCH   5   6
ENDBRANCH   4   5
ENDBRANCH   3   4
ENDBRANCH   2   3
ENDBRANCH   1   2
BRANCH   1  10
ATOM     10  C   UNL     1       4.617   4.504  18.503  0.00  0.00    +0.000 C 
BRANCH  10  11
ATOM     11  C   UNL     1       3.957   3.163  18.232  0.00  0.00    +0.000 C 
BRANCH  11  12
ATOM     12  C   UNL     1       2.679   3.360  17.426  0.00  0.00    +0.000 C 
BRANCH  12  13
ATOM     13  C   UNL     1       1.483   3.415  18.365  0.00  0.00    +0.000 C 
BRANCH  13  14
ATOM     14  C   UNL     1       1.625   2.439  19.529  0.00  0.00    +0.000 C 
BRANCH  14  15
ATOM     15  C   UNL     1       1.651   3.179  20.858  0.00  0.00    +0.000 C 
ATOM     16  C   UNL     1       1.591   4.683  20.830  0.00  0.00    +0.000 C 
ATOM     17  O   UNL     1       1.717   2.593  21.935  0.00  0.00    +0.000 OA
ENDBRANCH  14  15
ENDBRANCH  13  14
ENDBRANCH  12  13
ENDBRANCH  11  12
ENDBRANCH  10  11
ENDBRANCH   1  10
TORSDOF 13
ENDMDL
MODEL 3
REMARK VINA RESULT:      -4.9      2.665      5.794
REMARK  Name = 
REMARK  15 active torsions:
REMARK  status: ('A' for Active; 'I' for Inactive)
REMARK    1  A    between atoms: C_1  and  C_2
REMARK    2  A    between atoms: C_2  and  C_3
REMARK    3  A    between atoms: C_3  and  C_4
REMARK    4  A    between atoms: C_4  and  C_5
REMARK    5  A    between atoms: C_5  and  C_6
REMARK    6  A    between atoms: C_6  and  C_7
REMARK    7  A    between atoms: C_7  and  C_8
REMARK    8  A    between atoms: C_8  and  C_9
REMARK    9  A    between atoms: C_9  and  C_10
REMARK   10  A    between atoms: C_10  and  C_11
REMARK   11  A    between atoms: C_11  and  C_12
REMARK   12  A    between atoms: C_12  and  C_13
REMARK   13  A    between atoms: C_13  and  C_14
REMARK   14  A    between atoms: C_14  and  C_15
REMARK   15  A    between atoms: C_15  and  C_16
REMARK                            x       y       z     vdW  Elec       q    Type
REMARK                         _______ _______ _______ _____ _____    ______ ____
ROOT
ATOM      1  C   UNL     1       6.112   5.820  18.761  0.00  0.00    +0.000 C 
ENDROOT
BRANCH   1   2
ATOM      2  C   UNL     1       6.519   5.998  17.309  0.00  0.00    +0.000 C 
BRANCH   2   3
ATOM      3  C   UNL     1       7.296   4.783  16.836  0.00  0.00    +0.000 C 
BRANCH   3   4
ATOM      4  C   UNL     1       7.127   4.617  15.336  0.00  0.00    +0.000 C 
BRANCH   4   5
ATOM      5  C   UNL     1       5.757   5.116  14.910  0.00  0.00    +0.000 C 
BRANCH   5   6
ATOM      6  C   UNL     1       5.170   4.193  13.855  0.00  0.00    +0.000 C 
BRANCH   6   7
ATOM      7  C   UNL     1       6.279   3.600  13.001  0.00  0.00    +0.000 C 
BRANCH   7   9
ATOM      8  C   UNL     1       4.320   3.332  11.474  0.00  0.00    +0.000 C 
ATOM      9  C   UNL     1       5.697   2.809  11.838  0.00  0.00    +0.000 C 
ENDBRANCH   7   9
ENDBRANCH   6   7
ENDBRANCH   5   6
ENDBRANCH   4   5
ENDBRANCH   3   4
ENDBRANCH   2   3
ENDBRANCH   1   2
BRANCH   1  10
ATOM     10  C   UNL     1       4.845   4.989  18.837  0.00  0.00    +0.000 C 
BRANCH  10  11
ATOM     11  C   UNL     1       3.774   5.588  17.941  0.00  0.00    +0.000 C 
BRANCH  11  12
ATOM     12  C   UNL     1       2.392   5.315  18.519  0.00  0.00    +0.000 C 
BRANCH  12  13
ATOM     13  C   UNL     1       1.699   4.234  17.703  0.00  0.00    +0.000 C 
BRANCH  13  14
ATOM     14  C   UNL     1       1.172   3.103  18.583  0.00  0.00    +0.000 C 
BRANCH  14  15
ATOM     15  C   UNL     1       2.315   2.366  19.263  0.00  0.00    +0.000 C 
ATOM     16  C   UNL     1       3.288   1.616  18.394  0.00  0.00    +0.000 C 
ATOM     17  O   UNL     1       2.464   2.367  20.482  0.00  0.00    +0.000 OA
ENDBRANCH  14  15
ENDBRANCH  13  14
ENDBRANCH  12  13
ENDBRANCH  11  12
ENDBRANCH  10  11
ENDBRANCH   1  10
TORSDOF 13
ENDMDL
MODEL 4
REMARK VINA RESULT:      -4.9      1.144      2.878
REMARK  Name = 
REMARK  15 active torsions:
REMARK  status: ('A' for Active; 'I' for Inactive)
REMARK    1  A    between atoms: C_1  and  C_2
REMARK    2  A    between atoms: C_2  and  C_3
REMARK    3  A    between atoms: C_3  and  C_4
REMARK    4  A    between atoms: C_4  and  C_5
REMARK    5  A    between atoms: C_5  and  C_6
REMARK    6  A    between atoms: C_6  and  C_7
REMARK    7  A    between atoms: C_7  and  C_8
REMARK    8  A    between atoms: C_8  and  C_9
REMARK    9  A    between atoms: C_9  and  C_10
REMARK   10  A    between atoms: C_10  and  C_11
REMARK   11  A    between atoms: C_11  and  C_12
REMARK   12  A    between atoms: C_12  and  C_13
REMARK   13  A    between atoms: C_13  and  C_14
REMARK   14  A    between atoms: C_14  and  C_15
REMARK   15  A    between atoms: C_15  and  C_16
REMARK                            x       y       z     vdW  Elec       q    Type
REMARK                         _______ _______ _______ _____ _____    ______ ____
ROOT
ATOM      1  C   UNL     1       2.846   5.120  17.391  0.00  0.00    +0.000 C 
ENDROOT
BRANCH   1   2
ATOM      2  C   UNL     1       3.783   3.928  17.330  0.00  0.00    +0.000 C 
BRANCH   2   3
ATOM      3  C   UNL     1       2.985   2.638  17.390  0.00  0.00    +0.000 C 
BRANCH   3   4
ATOM      4  C   UNL     1       3.191   1.968  18.737  0.00  0.00    +0.000 C 
BRANCH   4   5
ATOM      5  C   UNL     1       1.847   1.613  19.350  0.00  0.00    +0.000 C 
BRANCH   5   6
ATOM      6  C   UNL     1       0.947   2.837  19.381  0.00  0.00    +0.000 C 
BRANCH   6   7
ATOM      7  C   UNL     1       0.915   3.429  20.782  0.00  0.00    +0.000 C 
BRANCH   7   9
ATOM      8  C   UNL     1       1.739   5.787  20.731  0.00  0.00    +0.000 C 
ATOM      9  C   UNL     1       2.112   4.343  21.006  0.00  0.00    +0.000 C 
ENDBRANCH   7   9
ENDBRANCH   6   7
ENDBRANCH   5   6
ENDBRANCH   4   5
ENDBRANCH   3   4
ENDBRANCH   2   3
ENDBRANCH   1   2
BRANCH   1  10
ATOM     10  C   UNL     1       3.635   6.372  17.730  0.00  0.00    +0.000 C 
BRANCH  10  11
ATOM     11  C   UNL     1       5.028   5.997  18.203  0.00  0.00    +0.000 C 
BRANCH  11  12
ATOM     12  C   UNL     1       6.078   6.623  17.294  0.00  0.00    +0.000 C 
BRANCH  12  13
ATOM     13  C   UNL     1       7.356   5.800  17.342  0.00  0.00    +0.000 C 
BRANCH  13  14
ATOM     14  C   UNL     1       7.243   4.520  16.519  0.00  0.00    +0.000 C 
BRANCH  14  15
ATOM     15  C   UNL     1       6.984   4.837  15.055  0.00  0.00    +0.000 C 
ATOM     16  C   UNL     1       5.726   4.299  14.427  0.00  0.00    +0.000 C 
ATOM     17  O   UNL     1       7.760   5.509  14.381  0.00  0.00    +0.000 OA
ENDBRANCH  14  15
ENDBRANCH  13  14
ENDBRANCH  12  13
ENDBRANCH  11  12
ENDBRANCH  10  11
ENDBRANCH   1  10
TORSDOF 13
ENDMDL
MODEL 5
REMARK VINA RESULT:      -4.9      1.228      2.298
REMARK  Name = 
REMARK  15 active torsions:
REMARK  status: ('A' for Active; 'I' for Inactive)
REMARK    1  A    between atoms: C_1  and  C_2
REMARK    2  A    between atoms: C_2  and  C_3
REMARK    3  A    between atoms: C_3  and  C_4
REMARK    4  A    between atoms: C_4  and  C_5
REMARK    5  A    between atoms: C_5  and  C_6
REMARK    6  A    between atoms: C_6  and  C_7
REMARK    7  A    between atoms: C_7  and  C_8
REMARK    8  A    between atoms: C_8  and  C_9
REMARK    9  A    between atoms: C_9  and  C_10
REMARK   10  A    between atoms: C_10  and  C_11
REMARK   11  A    between atoms: C_11  and  C_12
REMARK   12  A    between atoms: C_12  and  C_13
REMARK   13  A    between atoms: C_13  and  C_14
REMARK   14  A    between atoms: C_14  and  C_15
REMARK   15  A    between atoms: C_15  and  C_16
REMARK                            x       y       z     vdW  Elec       q    Type
REMARK                         _______ _______ _______ _____ _____    ______ ____
ROOT
ATOM      1  C   UNL     1       4.173   5.150  18.711  0.00  0.00    +0.000 C 
ENDROOT
BRANCH   1   2
ATOM      2  C   UNL     1       3.503   5.954  19.810  0.00  0.00    +0.000 C 
BRANCH   2   3
ATOM      3  C   UNL     1       2.103   5.423  20.060  0.00  0.00    +0.000 C 
BRANCH   3   4
ATOM      4  C   UNL     1       2.099   4.543  21.297  0.00  0.00    +0.000 C 
BRANCH   4   5
ATOM      5  C   UNL     1       1.465   3.201  20.977  0.00  0.00    +0.000 C 
BRANCH   5   6
ATOM      6  C   UNL     1       0.814   3.245  19.604  0.00  0.00    +0.000 C 
BRANCH   6   7
ATOM      7  C   UNL     1       1.196   2.010  18.803  0.00  0.00    +0.000 C 
BRANCH   7   9
ATOM      8  C   UNL     1       3.561   1.613  18.105  0.00  0.00    +0.000 C 
ATOM      9  C   UNL     1       2.273   2.345  17.781  0.00  0.00    +0.000 C 
ENDBRANCH   7   9
ENDBRANCH   6   7
ENDBRANCH   5   6
ENDBRANCH   4   5
ENDBRANCH   3   4
ENDBRANCH   2   3
ENDBRANCH   1   2
BRANCH   1  10
ATOM     10  C   UNL     1       4.006   5.863  17.382  0.00  0.00    +0.000 C 
BRANCH  10  11
ATOM     11  C   UNL     1       5.316   6.513  16.971  0.00  0.00    +0.000 C 
BRANCH  11  12
ATOM     12  C   UNL     1       6.490   5.762  17.585  0.00  0.00    +0.000 C 
BRANCH  12  13
ATOM     13  C   UNL     1       7.348   5.160  16.483  0.00  0.00    +0.000 C 
BRANCH  13  14
ATOM     14  C   UNL     1       6.556   4.198  15.603  0.00  0.00    +0.000 C 
BRANCH  14  15
ATOM     15  C   UNL     1       6.763   4.513  14.130  0.00  0.00    +0.000 C 
ATOM     16  C   UNL     1       6.016   3.686  13.118  0.00  0.00    +0.000 C 
ATOM     17  O   UNL     1       7.511   5.410  13.749  0.00  0.00    +0.000 OA
ENDBRANCH  14  15
ENDBRANCH  13  14
ENDBRANCH  12  13
ENDBRANCH  11  12
ENDBRANCH  10  11
ENDBRANCH   1  10
TORSDOF 13
ENDMDL
MODEL 6
REMARK VINA RESULT:      -4.9      1.444      2.919
REMARK  Name = 
REMARK  15 active torsions:
REMARK  status: ('A' for Active; 'I' for Inactive)
REMARK    1  A    between atoms: C_1  and  C_2
REMARK    2  A    between atoms: C_2  and  C_3
REMARK    3  A    between atoms: C_3  and  C_4
REMARK    4  A    between atoms: C_4  and  C_5
REMARK    5  A    between atoms: C_5  and  C_6
REMARK    6  A    between atoms: C_6  and  C_7
REMARK    7  A    between atoms: C_7  and  C_8
REMARK    8  A    between atoms: C_8  and  C_9
REMARK    9  A    between atoms: C_9  and  C_10
REMARK   10  A    between atoms: C_10  and  C_11
REMARK   11  A    between atoms: C_11  and  C_12
REMARK   12  A    between atoms: C_12  and  C_13
REMARK   13  A    between atoms: C_13  and  C_14
REMARK   14  A    between atoms: C_14  and  C_15
REMARK   15  A    between atoms: C_15  and  C_16
REMARK                            x       y       z     vdW  Elec       q    Type
REMARK                         _______ _______ _______ _____ _____    ______ ____
ROOT
ATOM      1  C   UNL     1       3.644   4.758  17.542  0.00  0.00    +0.000 C 
ENDROOT
BRANCH   1   2
ATOM      2  C   UNL     1       4.344   3.642  18.295  0.00  0.00    +0.000 C 
BRANCH   2   3
ATOM      3  C   UNL     1       3.806   2.296  17.845  0.00  0.00    +0.000 C 
BRANCH   3   4
ATOM      4  C   UNL     1       2.881   1.730  18.908  0.00  0.00    +0.000 C 
BRANCH   4   5
ATOM      5  C   UNL     1       1.465   1.638  18.367  0.00  0.00    +0.000 C 
BRANCH   5   6
ATOM      6  C   UNL     1       0.678   2.881  18.749  0.00  0.00    +0.000 C 
BRANCH   6   7
ATOM      7  C   UNL     1       0.742   3.101  20.253  0.00  0.00    +0.000 C 
BRANCH   7   9
ATOM      8  C   UNL     1       2.435   4.502  21.440  0.00  0.00    +0.000 C 
ATOM      9  C   UNL     1       1.192   4.520  20.570  0.00  0.00    +0.000 C 
ENDBRANCH   7   9
ENDBRANCH   6   7
ENDBRANCH   5   6
ENDBRANCH   4   5
ENDBRANCH   3   4
ENDBRANCH   2   3
ENDBRANCH   1   2
BRANCH   1  10
ATOM     10  C   UNL     1       3.645   6.021  18.384  0.00  0.00    +0.000 C 
BRANCH  10  11
ATOM     11  C   UNL     1       3.857   7.237  17.499  0.00  0.00    +0.000 C 
BRANCH  11  12
ATOM     12  C   UNL     1       4.915   6.941  16.444  0.00  0.00    +0.000 C 
BRANCH  12  13
ATOM     13  C   UNL     1       6.298   6.986  17.076  0.00  0.00    +0.000 C 
BRANCH  13  14
ATOM     14  C   UNL     1       7.153   5.789  16.668  0.00  0.00    +0.000 C 
BRANCH  14  15
ATOM     15  C   UNL     1       7.700   5.071  17.892  0.00  0.00    +0.000 C 
ATOM     16  C   UNL     1       7.343   5.615  19.249  0.00  0.00    +0.000 C 
ATOM     17  O   UNL     1       8.414   4.075  17.804  0.00  0.00    +0.000 OA
ENDBRANCH  14  15
ENDBRANCH  13  14
ENDBRANCH  12  13
ENDBRANCH  11  12
ENDBRANCH  10  11
ENDBRANCH   1  10
TORSDOF 13
ENDMDL
MODEL 7
REMARK VINA RESULT:      -4.8      1.347      3.458
REMARK  Name = 
REMARK  15 active torsions:
REMARK  status: ('A' for Active; 'I' for Inactive)
REMARK    1  A    between atoms: C_1  and  C_2
REMARK    2  A    between atoms: C_2  and  C_3
REMARK    3  A    between atoms: C_3  and  C_4
REMARK    4  A    between atoms: C_4  and  C_5
REMARK    5  A    between atoms: C_5  and  C_6
REMARK    6  A    between atoms: C_6  and  C_7
REMARK    7  A    between atoms: C_7  and  C_8
REMARK    8  A    between atoms: C_8  and  C_9
REMARK    9  A    between atoms: C_9  and  C_10
REMARK   10  A    between atoms: C_10  and  C_11
REMARK   11  A    between atoms: C_11  and  C_12
REMARK   12  A    between atoms: C_12  and  C_13
REMARK   13  A    between atoms: C_13  and  C_14
REMARK   14  A    between atoms: C_14  and  C_15
REMARK   15  A    between atoms: C_15  and  C_16
REMARK                            x       y       z     vdW  Elec       q    Type
REMARK                         _______ _______ _______ _____ _____    ______ ____
ROOT
ATOM      1  C   UNL     1       4.033   2.755  19.167  0.00  0.00    +0.000 C 
ENDROOT
BRANCH   1   2
ATOM      2  C   UNL     1       3.141   2.800  20.394  0.00  0.00    +0.000 C 
BRANCH   2   3
ATOM      3  C   UNL     1       1.682   2.743  19.978  0.00  0.00    +0.000 C 
BRANCH   3   4
ATOM      4  C   UNL     1       1.067   4.128  20.069  0.00  0.00    +0.000 C 
BRANCH   4   5
ATOM      5  C   UNL     1       1.989   5.055  20.842  0.00  0.00    +0.000 C 
BRANCH   5   6
ATOM      6  C   UNL     1       2.113   6.388  20.121  0.00  0.00    +0.000 C 
BRANCH   6   7
ATOM      7  C   UNL     1       2.315   6.161  18.631  0.00  0.00    +0.000 C 
BRANCH   7   9
ATOM      8  C   UNL     1       1.981   8.602  18.224  0.00  0.00    +0.000 C 
ATOM      9  C   UNL     1       2.883   7.409  17.971  0.00  0.00    +0.000 C 
ENDBRANCH   7   9
ENDBRANCH   6   7
ENDBRANCH   5   6
ENDBRANCH   4   5
ENDBRANCH   3   4
ENDBRANCH   2   3
ENDBRANCH   1   2
BRANCH   1  10
ATOM     10  C   UNL     1       5.144   3.779  19.305  0.00  0.00    +0.000 C 
BRANCH  10  11
ATOM     11  C   UNL     1       5.328   4.528  17.996  0.00  0.00    +0.000 C 
BRANCH  11  12
ATOM     12  C   UNL     1       4.515   3.864  16.893  0.00  0.00    +0.000 C 
BRANCH  12  13
ATOM     13  C   UNL     1       5.410   3.577  15.697  0.00  0.00    +0.000 C 
BRANCH  13  14
ATOM     14  C   UNL     1       6.634   4.487  15.667  0.00  0.00    +0.000 C 
BRANCH  14  15
ATOM     15  C   UNL     1       7.078   4.755  14.237  0.00  0.00    +0.000 C 
ATOM     16  C   UNL     1       6.437   3.952  13.137  0.00  0.00    +0.000 C 
ATOM     17  O   UNL     1       7.930   5.595  13.960  0.00  0.00    +0.000 OA
ENDBRANCH  14  15
ENDBRANCH  13  14
ENDBRANCH  12  13
ENDBRANCH  11  12
ENDBRANCH  10  11
ENDBRANCH   1  10
TORSDOF 13
ENDMDL
MODEL 8
REMARK VINA RESULT:      -4.8      1.673      3.254
REMARK  Name = 
REMARK  15 active torsions:
REMARK  status: ('A' for Active; 'I' for Inactive)
REMARK    1  A    between atoms: C_1  and  C_2
REMARK    2  A    between atoms: C_2  and  C_3
REMARK    3  A    between atoms: C_3  and  C_4
REMARK    4  A    between atoms: C_4  and  C_5
REMARK    5  A    between atoms: C_5  and  C_6
REMARK    6  A    between atoms: C_6  and  C_7
REMARK    7  A    between atoms: C_7  and  C_8
REMARK    8  A    between atoms: C_8  and  C_9
REMARK    9  A    between atoms: C_9  and  C_10
REMARK   10  A    between atoms: C_10  and  C_11
REMARK   11  A    between atoms: C_11  and  C_12
REMARK   12  A    between atoms: C_12  and  C_13
REMARK   13  A    between atoms: C_13  and  C_14
REMARK   14  A    between atoms: C_14  and  C_15
REMARK   15  A    between atoms: C_15  and  C_16
REMARK                            x       y       z     vdW  Elec       q    Type
REMARK                         _______ _______ _______ _____ _____    ______ ____
ROOT
ATOM      1  C   UNL     1       3.773   6.013  18.164  0.00  0.00    +0.000 C 
ENDROOT
BRANCH   1   2
ATOM      2  C   UNL     1       4.914   5.216  18.770  0.00  0.00    +0.000 C 
BRANCH   2   3
ATOM      3  C   UNL     1       4.610   3.731  18.687  0.00  0.00    +0.000 C 
BRANCH   3   4
ATOM      4  C   UNL     1       3.871   3.428  17.396  0.00  0.00    +0.000 C 
BRANCH   4   5
ATOM      5  C   UNL     1       2.377   3.352  17.659  0.00  0.00    +0.000 C 
BRANCH   5   6
ATOM      6  C   UNL     1       2.044   2.074  18.412  0.00  0.00    +0.000 C 
BRANCH   6   7
ATOM      7  C   UNL     1       1.554   2.404  19.814  0.00  0.00    +0.000 C 
BRANCH   7   9
ATOM      8  C   UNL     1       1.689   4.626  20.947  0.00  0.00    +0.000 C 
ATOM      9  C   UNL     1       0.994   3.818  19.868  0.00  0.00    +0.000 C 
ENDBRANCH   7   9
ENDBRANCH   6   7
ENDBRANCH   5   6
ENDBRANCH   4   5
ENDBRANCH   3   4
ENDBRANCH   2   3
ENDBRANCH   1   2
BRANCH   1  10
ATOM     10  C   UNL     1       4.333   7.138  17.312  0.00  0.00    +0.000 C 
BRANCH  10  11
ATOM     11  C   UNL     1       5.621   6.691  16.642  0.00  0.00    +0.000 C 
BRANCH  11  12
ATOM     12  C   UNL     1       5.316   6.020  15.310  0.00  0.00    +0.000 C 
BRANCH  12  13
ATOM     13  C   UNL     1       6.469   5.109  14.916  0.00  0.00    +0.000 C 
BRANCH  13  14
ATOM     14  C   UNL     1       5.981   3.812  14.278  0.00  0.00    +0.000 C 
BRANCH  14  15
ATOM     15  C   UNL     1       6.361   3.753  12.806  0.00  0.00    +0.000 C 
ATOM     16  C   UNL     1       5.585   2.823  11.913  0.00  0.00    +0.000 C 
ATOM     17  O   UNL     1       7.268   4.434  12.335  0.00  0.00    +0.000 OA
ENDBRANCH  14  15
ENDBRANCH  13  14
ENDBRANCH  12  13
ENDBRANCH  11  12
ENDBRANCH  10  11
ENDBRANCH   1  10
TORSDOF 13
ENDMDL
MODEL 9
REMARK VINA RESULT:      -4.8      1.725      3.457
REMARK  Name = 
REMARK  15 active torsions:
REMARK  status: ('A' for Active; 'I' for Inactive)
REMARK    1  A    between atoms: C_1  and  C_2
REMARK    2  A    between atoms: C_2  and  C_3
REMARK    3  A    between atoms: C_3  and  C_4
REMARK    4  A    between atoms: C_4  and  C_5
REMARK    5  A    between atoms: C_5  and  C_6
REMARK    6  A    between atoms: C_6  and  C_7
REMARK    7  A    between atoms: C_7  and  C_8
REMARK    8  A    between atoms: C_8  and  C_9
REMARK    9  A    between atoms: C_9  and  C_10
REMARK   10  A    between atoms: C_10  and  C_11
REMARK   11  A    between atoms: C_11  and  C_12
REMARK   12  A    between atoms: C_12  and  C_13
REMARK   13  A    between atoms: C_13  and  C_14
REMARK   14  A    between atoms: C_14  and  C_15
REMARK   15  A    between atoms: C_15  and  C_16
REMARK                            x       y       z     vdW  Elec       q    Type
REMARK                         _______ _______ _______ _____ _____    ______ ____
ROOT
ATOM      1  C   UNL     1       5.327   4.968  19.158  0.00  0.00    +0.000 C 
ENDROOT
BRANCH   1   2
ATOM      2  C   UNL     1       4.358   5.950  18.526  0.00  0.00    +0.000 C 
BRANCH   2   3
ATOM      3  C   UNL     1       3.317   5.202  17.714  0.00  0.00    +0.000 C 
BRANCH   3   4
ATOM      4  C   UNL     1       3.609   3.713  17.750  0.00  0.00    +0.000 C 
BRANCH   4   5
ATOM      5  C   UNL     1       2.319   2.928  17.582  0.00  0.00    +0.000 C 
BRANCH   5   6
ATOM      6  C   UNL     1       1.999   2.171  18.861  0.00  0.00    +0.000 C 
BRANCH   6   7
ATOM      7  C   UNL     1       0.769   2.767  19.529  0.00  0.00    +0.000 C 
BRANCH   7   9
ATOM      8  C   UNL     1       2.141   3.368  21.527  0.00  0.00    +0.000 C 
ATOM      9  C   UNL     1       1.165   3.882  20.486  0.00  0.00    +0.000 C 
ENDBRANCH   7   9
ENDBRANCH   6   7
ENDBRANCH   5   6
ENDBRANCH   4   5
ENDBRANCH   3   4
ENDBRANCH   2   3
ENDBRANCH   1   2
BRANCH   1  10
ATOM     10  C   UNL     1       6.725   5.561  19.163  0.00  0.00    +0.000 C 
BRANCH  10  11
ATOM     11  C   UNL     1       7.194   5.799  17.738  0.00  0.00    +0.000 C 
BRANCH  11  12
ATOM     12  C   UNL     1       7.173   4.495  16.952  0.00  0.00    +0.000 C 
BRANCH  12  13
ATOM     13  C   UNL     1       6.475   4.709  15.618  0.00  0.00    +0.000 C 
BRANCH  13  14
ATOM     14  C   UNL     1       7.459   4.704  14.451  0.00  0.00    +0.000 C 
BRANCH  14  15
ATOM     15  C   UNL     1       6.780   4.246  13.170  0.00  0.00    +0.000 C 
ATOM     16  C   UNL     1       5.442   3.568  13.283  0.00  0.00    +0.000 C 
ATOM     17  O   UNL     1       7.286   4.413  12.063  0.00  0.00    +0.000 OA
ENDBRANCH  14  15
ENDBRANCH  13  14
ENDBRANCH  12  13
ENDBRANCH  11  12
ENDBRANCH  10  11
ENDBRANCH   1  10
TORSDOF 13
ENDMDL
