MODEL 1
REMARK VINA RESULT:      -7.1      0.000      0.000
REMARK  Name = 
REMARK  15 active torsions:
REMARK  status: ('A' for Active; 'I' for Inactive)
REMARK    1  A    between atoms: C_1  and  C_2
REMARK    2  A    between atoms: C_2  and  N_3
REMARK    3  A    between atoms: C_2  and  C_26
REMARK    4  A    between atoms: N_3  and  C_4
REMARK    5  A    between atoms: C_7  and  N_8
REMARK    6  A    between atoms: C_11  and  C_12
REMARK    7  A    between atoms: C_13  and  C_14
REMARK    8  A    between atoms: C_14  and  C_15
REMARK    9  A    between atoms: C_15  and  N_16
REMARK   10  A    between atoms: N_16  and  C_17
REMARK   11  A    between atoms: C_17  and  N_19
REMARK   12  A    between atoms: N_19  and  C_20
REMARK   13  A    between atoms: C_20  and  C_21
REMARK   14  A    between atoms: C_21  and  C_22
REMARK   15  A    between atoms: C_22  and  O_24
REMARK                            x       y       z     vdW  Elec       q    Type
REMARK                         _______ _______ _______ _____ _____    ______ ____
ROOT
ATOM      1  C   UNL     1       5.372   4.502  19.256  0.00  0.00    +0.000 A 
ATOM      2  C   UNL     1       4.928   3.175  19.288  0.00  0.00    +0.000 A 
ATOM      3  C   UNL     1       3.561   2.868  19.242  0.00  0.00    +0.000 A 
ATOM      4  C   UNL     1       2.622   3.904  19.211  0.00  0.00    +0.000 A 
ATOM      5  C   UNL     1       3.021   5.242  19.181  0.00  0.00    +0.000 A 
ATOM      6  C   UNL     1       4.398   5.517  19.196  0.00  0.00    +0.000 A 
ENDROOT
BRANCH   4   7
ATOM      7  N   UNL     1       1.220   3.555  19.264  0.00  0.00    +0.000 N 
ATOM      8  O   UNL     1       0.686   3.206  18.197  0.00  0.00    +0.000 OA
ATOM      9  O   UNL     1       0.656   3.583  20.369  0.00  0.00    +0.000 OA
ENDBRANCH   4   7
BRANCH   1  10
ATOM     10  N   UNL     1       6.685   4.896  19.393  0.00  0.00    +0.000 N 
ATOM     11  H   UNL     1       6.957   5.136  20.344  0.00  0.00    +0.000 HD
BRANCH  10  13
ATOM     12  C   UNL     1       7.987   6.845  18.648  0.00  0.00    +0.000 C 
ATOM     13  C   UNL     1       7.594   5.392  18.364  0.00  0.00    +0.000 C 
BRANCH  13  14
ATOM     14  C   UNL     1       6.880   5.322  17.015  0.00  0.00    +0.000 A 
ATOM     15  C   UNL     1       7.053   4.214  16.172  0.00  0.00    +0.000 A 
ATOM     16  C   UNL     1       6.398   4.151  14.939  0.00  0.00    +0.000 A 
ATOM     17  C   UNL     1       5.556   5.186  14.537  0.00  0.00    +0.000 A 
ATOM     18  C   UNL     1       5.379   6.297  15.358  0.00  0.00    +0.000 A 
ATOM     19  C   UNL     1       6.040   6.367  16.584  0.00  0.00    +0.000 A 
ENDBRANCH  13  14
ENDBRANCH  10  13
ENDBRANCH   1  10
BRANCH   5  20
ATOM     20  C   UNL     1       2.098   6.373  19.214  0.00  0.00    +0.000 C 
ATOM     21  C   UNL     1       2.443   7.652  18.955  0.00  0.00    +0.000 C 
BRANCH  21  22
ATOM     22  C   UNL     1       1.495   8.820  19.110  0.00  0.00    +0.000 C 
BRANCH  22  23
ATOM     23  C   UNL     1       1.712   9.904  18.047  0.00  0.00    +0.000 C 
BRANCH  23  24
ATOM     24  N   UNL     1       0.766  11.001  18.073  0.00  0.00    +0.000 N 
ATOM     25  H   UNL     1       0.139  11.064  17.281  0.00  0.00    +0.000 HD
BRANCH  24  26
ATOM     26  C   UNL     1       0.510  11.835  19.120  0.00  0.00    +0.000 C 
ATOM     27  S   UNL     1       1.641  12.604  20.066  0.00  0.00    +0.000 S 
BRANCH  26  28
ATOM     28  N   UNL     1      -0.824  11.995  19.402  0.00  0.00    +0.000 N 
ATOM     29  H   UNL     1      -1.136  11.525  20.244  0.00  0.00    +0.000 HD
BRANCH  28  30
ATOM     30  C   UNL     1      -1.805  12.410  18.404  0.00  0.00    +0.000 C 
BRANCH  30  31
ATOM     31  C   UNL     1      -3.068  11.560  18.360  0.00  0.00    +0.000 C 
BRANCH  31  32
ATOM     32  C   UNL     1      -2.775  10.292  17.595  0.00  0.00    +0.000 C 
ATOM     33  O   UNL     1      -3.375   9.236  17.737  0.00  0.00    +0.000 OA
BRANCH  32  34
ATOM     34  O   UNL     1      -1.757  10.418  16.717  0.00  0.00    +0.000 OA
ATOM     35  H   UNL     1      -0.871  10.433  17.121  0.00  0.00    +0.000 HD
ENDBRANCH  32  34
ENDBRANCH  31  32
ENDBRANCH  30  31
ENDBRANCH  28  30
ENDBRANCH  26  28
ENDBRANCH  24  26
ENDBRANCH  23  24
ENDBRANCH  22  23
ENDBRANCH  21  22
ENDBRANCH   5  20
TORSDOF 14
ENDMDL
MODEL 2
REMARK VINA RESULT:      -7.1      2.278      3.358
REMARK  Name = 
REMARK  15 active torsions:
REMARK  status: ('A' for Active; 'I' for Inactive)
REMARK    1  A    between atoms: C_1  and  C_2
REMARK    2  A    between atoms: C_2  and  N_3
REMARK    3  A    between atoms: C_2  and  C_26
REMARK    4  A    between atoms: N_3  and  C_4
REMARK    5  A    between atoms: C_7  and  N_8
REMARK    6  A    between atoms: C_11  and  C_12
REMARK    7  A    between atoms: C_13  and  C_14
REMARK    8  A    between atoms: C_14  and  C_15
REMARK    9  A    between atoms: C_15  and  N_16
REMARK   10  A    between atoms: N_16  and  C_17
REMARK   11  A    between atoms: C_17  and  N_19
REMARK   12  A    between atoms: N_19  and  C_20
REMARK   13  A    between atoms: C_20  and  C_21
REMARK   14  A    between atoms: C_21  and  C_22
REMARK   15  A    between atoms: C_22  and  O_24
REMARK                            x       y       z     vdW  Elec       q    Type
REMARK                         _______ _______ _______ _____ _____    ______ ____
ROOT
ATOM      1  C   UNL     1       4.226   3.752  17.260  0.00  0.00    +0.000 A 
ATOM      2  C   UNL     1       3.929   2.662  18.086  0.00  0.00    +0.000 A 
ATOM      3  C   UNL     1       3.038   2.789  19.161  0.00  0.00    +0.000 A 
ATOM      4  C   UNL     1       2.472   4.037  19.443  0.00  0.00    +0.000 A 
ATOM      5  C   UNL     1       2.744   5.152  18.646  0.00  0.00    +0.000 A 
ATOM      6  C   UNL     1       3.615   4.984  17.558  0.00  0.00    +0.000 A 
ENDROOT
BRANCH   4   7
ATOM      7  N   UNL     1       1.636   4.157  20.616  0.00  0.00    +0.000 N 
ATOM      8  O   UNL     1       2.207   4.145  21.719  0.00  0.00    +0.000 OA
ATOM      9  O   UNL     1       0.415   4.309  20.446  0.00  0.00    +0.000 OA
ENDBRANCH   4   7
BRANCH   1  10
ATOM     10  N   UNL     1       5.158   3.739  16.245  0.00  0.00    +0.000 N 
ATOM     11  H   UNL     1       5.608   2.838  16.096  0.00  0.00    +0.000 HD
BRANCH  10  13
ATOM     12  C   UNL     1       6.815   4.391  14.548  0.00  0.00    +0.000 C 
ATOM     13  C   UNL     1       5.865   4.870  15.650  0.00  0.00    +0.000 C 
BRANCH  13  14
ATOM     14  C   UNL     1       6.677   5.561  16.744  0.00  0.00    +0.000 A 
ATOM     15  C   UNL     1       6.844   6.954  16.738  0.00  0.00    +0.000 A 
ATOM     16  C   UNL     1       7.586   7.585  17.740  0.00  0.00    +0.000 A 
ATOM     17  C   UNL     1       8.161   6.837  18.765  0.00  0.00    +0.000 A 
ATOM     18  C   UNL     1       8.011   5.453  18.783  0.00  0.00    +0.000 A 
ATOM     19  C   UNL     1       7.281   4.820  17.778  0.00  0.00    +0.000 A 
ENDBRANCH  13  14
ENDBRANCH  10  13
ENDBRANCH   1  10
BRANCH   5  20
ATOM     20  C   UNL     1       2.242   6.496  18.919  0.00  0.00    +0.000 C 
ATOM     21  C   UNL     1       2.281   7.522  18.043  0.00  0.00    +0.000 C 
BRANCH  21  22
ATOM     22  C   UNL     1       1.862   8.932  18.390  0.00  0.00    +0.000 C 
BRANCH  22  23
ATOM     23  C   UNL     1       1.249   9.040  19.792  0.00  0.00    +0.000 C 
BRANCH  23  24
ATOM     24  N   UNL     1       0.018   9.798  19.877  0.00  0.00    +0.000 N 
ATOM     25  H   UNL     1      -0.428   9.819  20.786  0.00  0.00    +0.000 HD
BRANCH  24  26
ATOM     26  C   UNL     1      -0.500  10.626  18.926  0.00  0.00    +0.000 C 
ATOM     27  S   UNL     1      -1.540  10.191  17.703  0.00  0.00    +0.000 S 
BRANCH  26  28
ATOM     28  N   UNL     1      -0.062  11.924  19.008  0.00  0.00    +0.000 N 
ATOM     29  H   UNL     1      -0.041  12.418  18.123  0.00  0.00    +0.000 HD
BRANCH  28  30
ATOM     30  C   UNL     1       0.710  12.435  20.137  0.00  0.00    +0.000 C 
BRANCH  30  31
ATOM     31  C   UNL     1       2.170  12.732  19.827  0.00  0.00    +0.000 C 
BRANCH  31  32
ATOM     32  C   UNL     1       2.286  13.147  18.381  0.00  0.00    +0.000 C 
ATOM     33  O   UNL     1       2.036  14.265  17.952  0.00  0.00    +0.000 OA
BRANCH  32  34
ATOM     34  O   UNL     1       2.693  12.149  17.567  0.00  0.00    +0.000 OA
ATOM     35  H   UNL     1       3.525  11.719  17.836  0.00  0.00    +0.000 HD
ENDBRANCH  32  34
ENDBRANCH  31  32
ENDBRANCH  30  31
ENDBRANCH  28  30
ENDBRANCH  26  28
ENDBRANCH  24  26
ENDBRANCH  23  24
ENDBRANCH  22  23
ENDBRANCH  21  22
ENDBRANCH   5  20
TORSDOF 14
ENDMDL
MODEL 3
REMARK VINA RESULT:      -7.1      1.929      2.450
REMARK  Name = 
REMARK  15 active torsions:
REMARK  status: ('A' for Active; 'I' for Inactive)
REMARK    1  A    between atoms: C_1  and  C_2
REMARK    2  A    between atoms: C_2  and  N_3
REMARK    3  A    between atoms: C_2  and  C_26
REMARK    4  A    between atoms: N_3  and  C_4
REMARK    5  A    between atoms: C_7  and  N_8
REMARK    6  A    between atoms: C_11  and  C_12
REMARK    7  A    between atoms: C_13  and  C_14
REMARK    8  A    between atoms: C_14  and  C_15
REMARK    9  A    between atoms: C_15  and  N_16
REMARK   10  A    between atoms: N_16  and  C_17
REMARK   11  A    between atoms: C_17  and  N_19
REMARK   12  A    between atoms: N_19  and  C_20
REMARK   13  A    between atoms: C_20  and  C_21
REMARK   14  A    between atoms: C_21  and  C_22
REMARK   15  A    between atoms: C_22  and  O_24
REMARK                            x       y       z     vdW  Elec       q    Type
REMARK                         _______ _______ _______ _____ _____    ______ ____
ROOT
ATOM      1  C   UNL     1       5.393   4.632  19.256  0.00  0.00    +0.000 A 
ATOM      2  C   UNL     1       4.960   3.307  19.138  0.00  0.00    +0.000 A 
ATOM      3  C   UNL     1       3.595   2.990  19.129  0.00  0.00    +0.000 A 
ATOM      4  C   UNL     1       2.649   4.008  19.286  0.00  0.00    +0.000 A 
ATOM      5  C   UNL     1       3.038   5.344  19.410  0.00  0.00    +0.000 A 
ATOM      6  C   UNL     1       4.412   5.633  19.384  0.00  0.00    +0.000 A 
ENDROOT
BRANCH   4   7
ATOM      7  N   UNL     1       1.254   3.637  19.371  0.00  0.00    +0.000 N 
ATOM      8  O   UNL     1       0.672   3.388  18.302  0.00  0.00    +0.000 OA
ATOM      9  O   UNL     1       0.745   3.547  20.500  0.00  0.00    +0.000 OA
ENDBRANCH   4   7
BRANCH   1  10
ATOM     10  N   UNL     1       6.710   5.022  19.370  0.00  0.00    +0.000 N 
ATOM     11  H   UNL     1       6.990   5.298  20.308  0.00  0.00    +0.000 HD
BRANCH  10  13
ATOM     12  C   UNL     1       7.983   6.946  18.516  0.00  0.00    +0.000 C 
ATOM     13  C   UNL     1       7.616   5.472  18.316  0.00  0.00    +0.000 C 
BRANCH  13  14
ATOM     14  C   UNL     1       6.910   5.311  16.971  0.00  0.00    +0.000 A 
ATOM     15  C   UNL     1       7.125   4.170  16.183  0.00  0.00    +0.000 A 
ATOM     16  C   UNL     1       6.478   4.023  14.954  0.00  0.00    +0.000 A 
ATOM     17  C   UNL     1       5.601   5.006  14.500  0.00  0.00    +0.000 A 
ATOM     18  C   UNL     1       5.381   6.148  15.266  0.00  0.00    +0.000 A 
ATOM     19  C   UNL     1       6.035   6.302  16.487  0.00  0.00    +0.000 A 
ENDBRANCH  13  14
ENDBRANCH  10  13
ENDBRANCH   1  10
BRANCH   5  20
ATOM     20  C   UNL     1       2.111   6.449  19.643  0.00  0.00    +0.000 C 
ATOM     21  C   UNL     1       2.230   7.677  19.096  0.00  0.00    +0.000 C 
BRANCH  21  22
ATOM     22  C   UNL     1       1.324   8.837  19.445  0.00  0.00    +0.000 C 
BRANCH  22  23
ATOM     23  C   UNL     1       0.826   9.593  18.206  0.00  0.00    +0.000 C 
BRANCH  23  24
ATOM     24  N   UNL     1       0.442  10.971  18.431  0.00  0.00    +0.000 N 
ATOM     25  H   UNL     1       1.190  11.605  18.681  0.00  0.00    +0.000 HD
BRANCH  24  26
ATOM     26  C   UNL     1      -0.771  11.535  18.167  0.00  0.00    +0.000 C 
ATOM     27  S   UNL     1      -2.224  10.735  18.048  0.00  0.00    +0.000 S 
BRANCH  26  28
ATOM     28  N   UNL     1      -0.729  12.890  17.952  0.00  0.00    +0.000 N 
ATOM     29  H   UNL     1      -0.689  13.160  16.976  0.00  0.00    +0.000 HD
BRANCH  28  30
ATOM     30  C   UNL     1      -0.337  13.848  18.981  0.00  0.00    +0.000 C 
BRANCH  30  31
ATOM     31  C   UNL     1       0.855  14.723  18.617  0.00  0.00    +0.000 C 
BRANCH  31  32
ATOM     32  C   UNL     1       2.104  13.876  18.637  0.00  0.00    +0.000 C 
ATOM     33  O   UNL     1       2.903  13.832  19.562  0.00  0.00    +0.000 OA
BRANCH  32  34
ATOM     34  O   UNL     1       2.280  13.154  17.510  0.00  0.00    +0.000 OA
ATOM     35  H   UNL     1       1.972  12.231  17.566  0.00  0.00    +0.000 HD
ENDBRANCH  32  34
ENDBRANCH  31  32
ENDBRANCH  30  31
ENDBRANCH  28  30
ENDBRANCH  26  28
ENDBRANCH  24  26
ENDBRANCH  23  24
ENDBRANCH  22  23
ENDBRANCH  21  22
ENDBRANCH   5  20
TORSDOF 14
ENDMDL
MODEL 4
REMARK VINA RESULT:      -7.0      1.266      1.406
REMARK  Name = 
REMARK  15 active torsions:
REMARK  status: ('A' for Active; 'I' for Inactive)
REMARK    1  A    between atoms: C_1  and  C_2
REMARK    2  A    between atoms: C_2  and  N_3
REMARK    3  A    between atoms: C_2  and  C_26
REMARK    4  A    between atoms: N_3  and  C_4
REMARK    5  A    between atoms: C_7  and  N_8
REMARK    6  A    between atoms: C_11  and  C_12
REMARK    7  A    between atoms: C_13  and  C_14
REMARK    8  A    between atoms: C_14  and  C_15
REMARK    9  A    between atoms: C_15  and  N_16
REMARK   10  A    between atoms: N_16  and  C_17
REMARK   11  A    between atoms: C_17  and  N_19
REMARK   12  A    between atoms: N_19  and  C_20
REMARK   13  A    between atoms: C_20  and  C_21
REMARK   14  A    between atoms: C_21  and  C_22
REMARK   15  A    between atoms: C_22  and  O_24
REMARK                            x       y       z     vdW  Elec       q    Type
REMARK                         _______ _______ _______ _____ _____    ______ ____
ROOT
ATOM      1  C   UNL     1       5.277   4.621  19.274  0.00  0.00    +0.000 A 
ATOM      2  C   UNL     1       5.010   3.282  18.967  0.00  0.00    +0.000 A 
ATOM      3  C   UNL     1       3.695   2.797  18.929  0.00  0.00    +0.000 A 
ATOM      4  C   UNL     1       2.635   3.651  19.248  0.00  0.00    +0.000 A 
ATOM      5  C   UNL     1       2.858   4.994  19.563  0.00  0.00    +0.000 A 
ATOM      6  C   UNL     1       4.183   5.458  19.562  0.00  0.00    +0.000 A 
ENDROOT
BRANCH   4   7
ATOM      7  N   UNL     1       1.301   3.095  19.296  0.00  0.00    +0.000 N 
ATOM      8  O   UNL     1       0.737   3.078  20.402  0.00  0.00    +0.000 OA
ATOM      9  O   UNL     1       0.792   2.715  18.229  0.00  0.00    +0.000 OA
ENDBRANCH   4   7
BRANCH   1  10
ATOM     10  N   UNL     1       6.538   5.156  19.427  0.00  0.00    +0.000 N 
ATOM     11  H   UNL     1       6.704   5.595  20.329  0.00  0.00    +0.000 HD
BRANCH  10  13
ATOM     12  C   UNL     1       7.906   7.002  18.549  0.00  0.00    +0.000 C 
ATOM     13  C   UNL     1       7.493   5.536  18.389  0.00  0.00    +0.000 C 
BRANCH  13  14
ATOM     14  C   UNL     1       6.824   5.351  17.027  0.00  0.00    +0.000 A 
ATOM     15  C   UNL     1       7.118   4.232  16.234  0.00  0.00    +0.000 A 
ATOM     16  C   UNL     1       6.506   4.063  14.989  0.00  0.00    +0.000 A 
ATOM     17  C   UNL     1       5.586   5.002  14.526  0.00  0.00    +0.000 A 
ATOM     18  C   UNL     1       5.288   6.122  15.298  0.00  0.00    +0.000 A 
ATOM     19  C   UNL     1       5.907   6.298  16.535  0.00  0.00    +0.000 A 
ENDBRANCH  13  14
ENDBRANCH  10  13
ENDBRANCH   1  10
BRANCH   5  20
ATOM     20  C   UNL     1       1.808   5.924  19.970  0.00  0.00    +0.000 C 
ATOM     21  C   UNL     1       2.012   7.032  20.715  0.00  0.00    +0.000 C 
BRANCH  21  22
ATOM     22  C   UNL     1       0.893   7.914  21.221  0.00  0.00    +0.000 C 
BRANCH  22  23
ATOM     23  C   UNL     1       1.297   9.392  21.306  0.00  0.00    +0.000 C 
BRANCH  23  24
ATOM     24  N   UNL     1       0.632  10.275  20.369  0.00  0.00    +0.000 N 
ATOM     25  H   UNL     1       0.887  10.162  19.397  0.00  0.00    +0.000 HD
BRANCH  24  26
ATOM     26  C   UNL     1      -0.418  11.103  20.631  0.00  0.00    +0.000 C 
ATOM     27  S   UNL     1      -0.953  11.571  22.135  0.00  0.00    +0.000 S 
BRANCH  26  28
ATOM     28  N   UNL     1      -1.086  11.537  19.514  0.00  0.00    +0.000 N 
ATOM     29  H   UNL     1      -0.489  11.753  18.723  0.00  0.00    +0.000 HD
BRANCH  28  30
ATOM     30  C   UNL     1      -2.447  12.064  19.554  0.00  0.00    +0.000 C 
BRANCH  30  31
ATOM     31  C   UNL     1      -3.345  11.596  18.418  0.00  0.00    +0.000 C 
BRANCH  31  32
ATOM     32  C   UNL     1      -2.484  11.005  17.328  0.00  0.00    +0.000 C 
ATOM     33  O   UNL     1      -2.334   9.807  17.129  0.00  0.00    +0.000 OA
BRANCH  32  34
ATOM     34  O   UNL     1      -1.864  11.934  16.570  0.00  0.00    +0.000 OA
ATOM     35  H   UNL     1      -2.344  12.778  16.488  0.00  0.00    +0.000 HD
ENDBRANCH  32  34
ENDBRANCH  31  32
ENDBRANCH  30  31
ENDBRANCH  28  30
ENDBRANCH  26  28
ENDBRANCH  24  26
ENDBRANCH  23  24
ENDBRANCH  22  23
ENDBRANCH  21  22
ENDBRANCH   5  20
TORSDOF 14
ENDMDL
MODEL 5
REMARK VINA RESULT:      -7.0      0.953      1.439
REMARK  Name = 
REMARK  15 active torsions:
REMARK  status: ('A' for Active; 'I' for Inactive)
REMARK    1  A    between atoms: C_1  and  C_2
REMARK    2  A    between atoms: C_2  and  N_3
REMARK    3  A    between atoms: C_2  and  C_26
REMARK    4  A    between atoms: N_3  and  C_4
REMARK    5  A    between atoms: C_7  and  N_8
REMARK    6  A    between atoms: C_11  and  C_12
REMARK    7  A    between atoms: C_13  and  C_14
REMARK    8  A    between atoms: C_14  and  C_15
REMARK    9  A    between atoms: C_15  and  N_16
REMARK   10  A    between atoms: N_16  and  C_17
REMARK   11  A    between atoms: C_17  and  N_19
REMARK   12  A    between atoms: N_19  and  C_20
REMARK   13  A    between atoms: C_20  and  C_21
REMARK   14  A    between atoms: C_21  and  C_22
REMARK   15  A    between atoms: C_22  and  O_24
REMARK                            x       y       z     vdW  Elec       q    Type
REMARK                         _______ _______ _______ _____ _____    ______ ____
ROOT
ATOM      1  C   UNL     1       5.307   4.672  19.276  0.00  0.00    +0.000 A 
ATOM      2  C   UNL     1       5.007   3.355  18.907  0.00  0.00    +0.000 A 
ATOM      3  C   UNL     1       3.684   2.892  18.890  0.00  0.00    +0.000 A 
ATOM      4  C   UNL     1       2.650   3.744  19.293  0.00  0.00    +0.000 A 
ATOM      5  C   UNL     1       2.906   5.064  19.671  0.00  0.00    +0.000 A 
ATOM      6  C   UNL     1       4.237   5.508  19.647  0.00  0.00    +0.000 A 
ENDROOT
BRANCH   4   7
ATOM      7  N   UNL     1       1.310   3.205  19.358  0.00  0.00    +0.000 N 
ATOM      8  O   UNL     1       0.706   3.065  18.281  0.00  0.00    +0.000 OA
ATOM      9  O   UNL     1       0.869   2.879  20.472  0.00  0.00    +0.000 OA
ENDBRANCH   4   7
BRANCH   1  10
ATOM     10  N   UNL     1       6.581   5.179  19.412  0.00  0.00    +0.000 N 
ATOM     11  H   UNL     1       6.768   5.617  20.311  0.00  0.00    +0.000 HD
BRANCH  10  13
ATOM     12  C   UNL     1       8.003   6.982  18.529  0.00  0.00    +0.000 C 
ATOM     13  C   UNL     1       7.532   5.534  18.361  0.00  0.00    +0.000 C 
BRANCH  13  14
ATOM     14  C   UNL     1       6.834   5.389  17.010  0.00  0.00    +0.000 A 
ATOM     15  C   UNL     1       5.875   6.327  16.597  0.00  0.00    +0.000 A 
ATOM     16  C   UNL     1       5.239   6.193  15.360  0.00  0.00    +0.000 A 
ATOM     17  C   UNL     1       5.558   5.132  14.516  0.00  0.00    +0.000 A 
ATOM     18  C   UNL     1       6.503   4.189  14.913  0.00  0.00    +0.000 A 
ATOM     19  C   UNL     1       7.130   4.313  16.152  0.00  0.00    +0.000 A 
ENDBRANCH  13  14
ENDBRANCH  10  13
ENDBRANCH   1  10
BRANCH   5  20
ATOM     20  C   UNL     1       1.886   5.986  20.165  0.00  0.00    +0.000 C 
ATOM     21  C   UNL     1       2.088   7.302  20.389  0.00  0.00    +0.000 C 
BRANCH  21  22
ATOM     22  C   UNL     1       1.051   8.210  21.010  0.00  0.00    +0.000 C 
BRANCH  22  23
ATOM     23  C   UNL     1       0.675   9.388  20.102  0.00  0.00    +0.000 C 
BRANCH  23  24
ATOM     24  N   UNL     1       0.890  10.704  20.668  0.00  0.00    +0.000 N 
ATOM     25  H   UNL     1       1.700  10.802  21.267  0.00  0.00    +0.000 HD
BRANCH  24  26
ATOM     26  C   UNL     1       0.234  11.853  20.338  0.00  0.00    +0.000 C 
ATOM     27  S   UNL     1      -0.342  12.997  21.398  0.00  0.00    +0.000 S 
BRANCH  26  28
ATOM     28  N   UNL     1       0.024  12.016  18.991  0.00  0.00    +0.000 N 
ATOM     29  H   UNL     1       0.866  12.166  18.448  0.00  0.00    +0.000 HD
BRANCH  28  30
ATOM     30  C   UNL     1      -1.272  12.379  18.426  0.00  0.00    +0.000 C 
BRANCH  30  31
ATOM     31  C   UNL     1      -2.391  11.384  18.706  0.00  0.00    +0.000 C 
BRANCH  31  32
ATOM     32  C   UNL     1      -2.229  10.199  17.787  0.00  0.00    +0.000 C 
ATOM     33  O   UNL     1      -1.178   9.862  17.259  0.00  0.00    +0.000 OA
BRANCH  32  34
ATOM     34  O   UNL     1      -3.378   9.520  17.578  0.00  0.00    +0.000 OA
ATOM     35  H   UNL     1      -4.093  10.046  17.178  0.00  0.00    +0.000 HD
ENDBRANCH  32  34
ENDBRANCH  31  32
ENDBRANCH  30  31
ENDBRANCH  28  30
ENDBRANCH  26  28
ENDBRANCH  24  26
ENDBRANCH  23  24
ENDBRANCH  22  23
ENDBRANCH  21  22
ENDBRANCH   5  20
TORSDOF 14
ENDMDL
MODEL 6
REMARK VINA RESULT:      -7.0      1.808      2.402
REMARK  Name = 
REMARK  15 active torsions:
REMARK  status: ('A' for Active; 'I' for Inactive)
REMARK    1  A    between atoms: C_1  and  C_2
REMARK    2  A    between atoms: C_2  and  N_3
REMARK    3  A    between atoms: C_2  and  C_26
REMARK    4  A    between atoms: N_3  and  C_4
REMARK    5  A    between atoms: C_7  and  N_8
REMARK    6  A    between atoms: C_11  and  C_12
REMARK    7  A    between atoms: C_13  and  C_14
REMARK    8  A    between atoms: C_14  and  C_15
REMARK    9  A    between atoms: C_15  and  N_16
REMARK   10  A    between atoms: N_16  and  C_17
REMARK   11  A    between atoms: C_17  and  N_19
REMARK   12  A    between atoms: N_19  and  C_20
REMARK   13  A    between atoms: C_20  and  C_21
REMARK   14  A    between atoms: C_21  and  C_22
REMARK   15  A    between atoms: C_22  and  O_24
REMARK                            x       y       z     vdW  Elec       q    Type
REMARK                         _______ _______ _______ _____ _____    ______ ____
ROOT
ATOM      1  C   UNL     1       3.954   3.767  17.362  0.00  0.00    +0.000 A 
ATOM      2  C   UNL     1       3.962   2.478  17.906  0.00  0.00    +0.000 A 
ATOM      3  C   UNL     1       3.289   2.193  19.102  0.00  0.00    +0.000 A 
ATOM      4  C   UNL     1       2.637   3.222  19.789  0.00  0.00    +0.000 A 
ATOM      5  C   UNL     1       2.607   4.524  19.283  0.00  0.00    +0.000 A 
ATOM      6  C   UNL     1       3.264   4.771  18.067  0.00  0.00    +0.000 A 
ENDROOT
BRANCH   4   7
ATOM      7  N   UNL     1       2.037   2.915  21.068  0.00  0.00    +0.000 N 
ATOM      8  O   UNL     1       2.810   2.736  22.024  0.00  0.00    +0.000 OA
ATOM      9  O   UNL     1       0.798   2.896  21.138  0.00  0.00    +0.000 OA
ENDBRANCH   4   7
BRANCH   1  10
ATOM     10  N   UNL     1       4.665   4.155  16.247  0.00  0.00    +0.000 N 
ATOM     11  H   UNL     1       4.150   4.087  15.373  0.00  0.00    +0.000 HD
BRANCH  10  13
ATOM     12  C   UNL     1       6.641   5.538  16.731  0.00  0.00    +0.000 C 
ATOM     13  C   UNL     1       6.113   4.253  16.086  0.00  0.00    +0.000 C 
BRANCH  13  14
ATOM     14  C   UNL     1       6.432   4.277  14.591  0.00  0.00    +0.000 A 
ATOM     15  C   UNL     1       7.438   5.116  14.089  0.00  0.00    +0.000 A 
ATOM     16  C   UNL     1       7.729   5.136  12.722  0.00  0.00    +0.000 A 
ATOM     17  C   UNL     1       7.029   4.313  11.843  0.00  0.00    +0.000 A 
ATOM     18  C   UNL     1       6.023   3.479  12.324  0.00  0.00    +0.000 A 
ATOM     19  C   UNL     1       5.723   3.466  13.685  0.00  0.00    +0.000 A 
ENDBRANCH  13  14
ENDBRANCH  10  13
ENDBRANCH   1  10
BRANCH   5  20
ATOM     20  C   UNL     1       2.005   5.659  19.978  0.00  0.00    +0.000 C 
ATOM     21  C   UNL     1       2.224   6.953  19.665  0.00  0.00    +0.000 C 
BRANCH  21  22
ATOM     22  C   UNL     1       1.681   8.111  20.472  0.00  0.00    +0.000 C 
BRANCH  22  23
ATOM     23  C   UNL     1       1.141   9.245  19.593  0.00  0.00    +0.000 C 
BRANCH  23  24
ATOM     24  N   UNL     1      -0.138   9.792  19.996  0.00  0.00    +0.000 N 
ATOM     25  H   UNL     1      -0.797   9.133  20.390  0.00  0.00    +0.000 HD
BRANCH  24  26
ATOM     26  C   UNL     1      -0.477  11.110  20.070  0.00  0.00    +0.000 C 
ATOM     27  S   UNL     1       0.495  12.349  20.606  0.00  0.00    +0.000 S 
BRANCH  26  28
ATOM     28  N   UNL     1      -1.766  11.383  19.686  0.00  0.00    +0.000 N 
ATOM     29  H   UNL     1      -2.468  11.169  20.386  0.00  0.00    +0.000 HD
BRANCH  28  30
ATOM     30  C   UNL     1      -2.165  11.545  18.292  0.00  0.00    +0.000 C 
BRANCH  30  31
ATOM     31  C   UNL     1      -3.209  10.548  17.808  0.00  0.00    +0.000 C 
BRANCH  31  32
ATOM     32  C   UNL     1      -3.721  10.995  16.460  0.00  0.00    +0.000 C 
ATOM     33  O   UNL     1      -3.045  11.059  15.442  0.00  0.00    +0.000 OA
BRANCH  32  34
ATOM     34  O   UNL     1      -5.026  11.339  16.468  0.00  0.00    +0.000 OA
ATOM     35  H   UNL     1      -5.645  10.587  16.448  0.00  0.00    +0.000 HD
ENDBRANCH  32  34
ENDBRANCH  31  32
ENDBRANCH  30  31
ENDBRANCH  28  30
ENDBRANCH  26  28
ENDBRANCH  24  26
ENDBRANCH  23  24
ENDBRANCH  22  23
ENDBRANCH  21  22
ENDBRANCH   5  20
TORSDOF 14
ENDMDL
MODEL 7
REMARK VINA RESULT:      -6.9      2.220      3.123
REMARK  Name = 
REMARK  15 active torsions:
REMARK  status: ('A' for Active; 'I' for Inactive)
REMARK    1  A    between atoms: C_1  and  C_2
REMARK    2  A    between atoms: C_2  and  N_3
REMARK    3  A    between atoms: C_2  and  C_26
REMARK    4  A    between atoms: N_3  and  C_4
REMARK    5  A    between atoms: C_7  and  N_8
REMARK    6  A    between atoms: C_11  and  C_12
REMARK    7  A    between atoms: C_13  and  C_14
REMARK    8  A    between atoms: C_14  and  C_15
REMARK    9  A    between atoms: C_15  and  N_16
REMARK   10  A    between atoms: N_16  and  C_17
REMARK   11  A    between atoms: C_17  and  N_19
REMARK   12  A    between atoms: N_19  and  C_20
REMARK   13  A    between atoms: C_20  and  C_21
REMARK   14  A    between atoms: C_21  and  C_22
REMARK   15  A    between atoms: C_22  and  O_24
REMARK                            x       y       z     vdW  Elec       q    Type
REMARK                         _______ _______ _______ _____ _____    ______ ____
ROOT
ATOM      1  C   UNL     1       4.080   4.113  16.972  0.00  0.00    +0.000 A 
ATOM      2  C   UNL     1       3.655   3.031  17.750  0.00  0.00    +0.000 A 
ATOM      3  C   UNL     1       2.836   3.223  18.871  0.00  0.00    +0.000 A 
ATOM      4  C   UNL     1       2.475   4.522  19.247  0.00  0.00    +0.000 A 
ATOM      5  C   UNL     1       2.879   5.630  18.499  0.00  0.00    +0.000 A 
ATOM      6  C   UNL     1       3.673   5.402  17.364  0.00  0.00    +0.000 A 
ENDROOT
BRANCH   4   7
ATOM      7  N   UNL     1       1.711   4.693  20.463  0.00  0.00    +0.000 N 
ATOM      8  O   UNL     1       0.493   4.902  20.338  0.00  0.00    +0.000 OA
ATOM      9  O   UNL     1       2.309   4.576  21.545  0.00  0.00    +0.000 OA
ENDBRANCH   4   7
BRANCH   1  10
ATOM     10  N   UNL     1       4.961   4.024  15.915  0.00  0.00    +0.000 N 
ATOM     11  H   UNL     1       5.197   3.073  15.641  0.00  0.00    +0.000 HD
BRANCH  10  13
ATOM     12  C   UNL     1       6.854   4.433  14.399  0.00  0.00    +0.000 C 
ATOM     13  C   UNL     1       5.885   5.040  15.417  0.00  0.00    +0.000 C 
BRANCH  13  14
ATOM     14  C   UNL     1       6.681   5.589  16.600  0.00  0.00    +0.000 A 
ATOM     15  C   UNL     1       6.856   6.971  16.763  0.00  0.00    +0.000 A 
ATOM     16  C   UNL     1       7.584   7.472  17.846  0.00  0.00    +0.000 A 
ATOM     17  C   UNL     1       8.137   6.602  18.783  0.00  0.00    +0.000 A 
ATOM     18  C   UNL     1       7.979   5.226  18.633  0.00  0.00    +0.000 A 
ATOM     19  C   UNL     1       7.263   4.724  17.547  0.00  0.00    +0.000 A 
ENDBRANCH  13  14
ENDBRANCH  10  13
ENDBRANCH   1  10
BRANCH   5  20
ATOM     20  C   UNL     1       2.596   7.015  18.868  0.00  0.00    +0.000 C 
ATOM     21  C   UNL     1       2.173   7.966  18.008  0.00  0.00    +0.000 C 
BRANCH  21  22
ATOM     22  C   UNL     1       1.998   9.418  18.391  0.00  0.00    +0.000 C 
BRANCH  22  23
ATOM     23  C   UNL     1       0.536   9.786  18.668  0.00  0.00    +0.000 C 
BRANCH  23  24
ATOM     24  N   UNL     1      -0.334   9.797  17.510  0.00  0.00    +0.000 N 
ATOM     25  H   UNL     1       0.023   9.338  16.682  0.00  0.00    +0.000 HD
BRANCH  24  26
ATOM     26  C   UNL     1      -1.638  10.195  17.470  0.00  0.00    +0.000 C 
ATOM     27  S   UNL     1      -2.620  10.220  16.128  0.00  0.00    +0.000 S 
BRANCH  26  28
ATOM     28  N   UNL     1      -2.128  10.641  18.672  0.00  0.00    +0.000 N 
ATOM     29  H   UNL     1      -2.178   9.932  19.396  0.00  0.00    +0.000 HD
BRANCH  28  30
ATOM     30  C   UNL     1      -2.911  11.865  18.808  0.00  0.00    +0.000 C 
BRANCH  30  31
ATOM     31  C   UNL     1      -2.758  12.574  20.147  0.00  0.00    +0.000 C 
BRANCH  31  32
ATOM     32  C   UNL     1      -1.339  12.396  20.632  0.00  0.00    +0.000 C 
ATOM     33  O   UNL     1      -0.365  12.970  20.166  0.00  0.00    +0.000 OA
BRANCH  32  34
ATOM     34  O   UNL     1      -1.226  11.517  21.651  0.00  0.00    +0.000 OA
ATOM     35  H   UNL     1      -1.984  10.914  21.753  0.00  0.00    +0.000 HD
ENDBRANCH  32  34
ENDBRANCH  31  32
ENDBRANCH  30  31
ENDBRANCH  28  30
ENDBRANCH  26  28
ENDBRANCH  24  26
ENDBRANCH  23  24
ENDBRANCH  22  23
ENDBRANCH  21  22
ENDBRANCH   5  20
TORSDOF 14
ENDMDL
MODEL 8
REMARK VINA RESULT:      -6.9      2.338      3.294
REMARK  Name = 
REMARK  15 active torsions:
REMARK  status: ('A' for Active; 'I' for Inactive)
REMARK    1  A    between atoms: C_1  and  C_2
REMARK    2  A    between atoms: C_2  and  N_3
REMARK    3  A    between atoms: C_2  and  C_26
REMARK    4  A    between atoms: N_3  and  C_4
REMARK    5  A    between atoms: C_7  and  N_8
REMARK    6  A    between atoms: C_11  and  C_12
REMARK    7  A    between atoms: C_13  and  C_14
REMARK    8  A    between atoms: C_14  and  C_15
REMARK    9  A    between atoms: C_15  and  N_16
REMARK   10  A    between atoms: N_16  and  C_17
REMARK   11  A    between atoms: C_17  and  N_19
REMARK   12  A    between atoms: N_19  and  C_20
REMARK   13  A    between atoms: C_20  and  C_21
REMARK   14  A    between atoms: C_21  and  C_22
REMARK   15  A    between atoms: C_22  and  O_24
REMARK                            x       y       z     vdW  Elec       q    Type
REMARK                         _______ _______ _______ _____ _____    ______ ____
ROOT
ATOM      1  C   UNL     1       4.216   3.860  16.963  0.00  0.00    +0.000 A 
ATOM      2  C   UNL     1       3.972   2.737  17.761  0.00  0.00    +0.000 A 
ATOM      3  C   UNL     1       3.112   2.807  18.866  0.00  0.00    +0.000 A 
ATOM      4  C   UNL     1       2.525   4.030  19.206  0.00  0.00    +0.000 A 
ATOM      5  C   UNL     1       2.744   5.176  18.439  0.00  0.00    +0.000 A 
ATOM      6  C   UNL     1       3.584   5.067  17.320  0.00  0.00    +0.000 A 
ENDROOT
BRANCH   4   7
ATOM      7  N   UNL     1       1.723   4.091  20.407  0.00  0.00    +0.000 N 
ATOM      8  O   UNL     1       0.557   3.669  20.328  0.00  0.00    +0.000 OA
ATOM      9  O   UNL     1       2.260   4.515  21.444  0.00  0.00    +0.000 OA
ENDBRANCH   4   7
BRANCH   1  10
ATOM     10  N   UNL     1       5.117   3.904  15.921  0.00  0.00    +0.000 N 
ATOM     11  H   UNL     1       5.478   2.997  15.636  0.00  0.00    +0.000 HD
BRANCH  10  13
ATOM     12  C   UNL     1       6.893   4.598  14.367  0.00  0.00    +0.000 C 
ATOM     13  C   UNL     1       5.908   5.039  15.454  0.00  0.00    +0.000 C 
BRANCH  13  14
ATOM     14  C   UNL     1       6.691   5.602  16.640  0.00  0.00    +0.000 A 
ATOM     15  C   UNL     1       7.281   4.742  17.578  0.00  0.00    +0.000 A 
ATOM     16  C   UNL     1       7.998   5.258  18.661  0.00  0.00    +0.000 A 
ATOM     17  C   UNL     1       8.143   6.635  18.816  0.00  0.00    +0.000 A 
ATOM     18  C   UNL     1       7.558   7.503  17.897  0.00  0.00    +0.000 A 
ATOM     19  C   UNL     1       6.833   6.991  16.822  0.00  0.00    +0.000 A 
ENDBRANCH  13  14
ENDBRANCH  10  13
ENDBRANCH   1  10
BRANCH   5  20
ATOM     20  C   UNL     1       2.218   6.498  18.772  0.00  0.00    +0.000 C 
ATOM     21  C   UNL     1       2.414   7.610  18.031  0.00  0.00    +0.000 C 
BRANCH  21  22
ATOM     22  C   UNL     1       1.958   8.987  18.458  0.00  0.00    +0.000 C 
BRANCH  22  23
ATOM     23  C   UNL     1       1.192   8.972  19.786  0.00  0.00    +0.000 C 
BRANCH  23  24
ATOM     24  N   UNL     1       1.004  10.266  20.411  0.00  0.00    +0.000 N 
ATOM     25  H   UNL     1       1.541  10.434  21.252  0.00  0.00    +0.000 HD
BRANCH  24  26
ATOM     26  C   UNL     1       0.331  11.333  19.896  0.00  0.00    +0.000 C 
ATOM     27  S   UNL     1      -1.192  11.307  19.227  0.00  0.00    +0.000 S 
BRANCH  26  28
ATOM     28  N   UNL     1       1.035  12.511  19.922  0.00  0.00    +0.000 N 
ATOM     29  H   UNL     1       0.705  13.183  20.606  0.00  0.00    +0.000 HD
BRANCH  28  30
ATOM     30  C   UNL     1       1.877  12.960  18.818  0.00  0.00    +0.000 C 
BRANCH  30  31
ATOM     31  C   UNL     1       1.822  14.457  18.543  0.00  0.00    +0.000 C 
BRANCH  31  32
ATOM     32  C   UNL     1       0.591  15.027  19.203  0.00  0.00    +0.000 C 
ATOM     33  O   UNL     1       0.583  15.623  20.271  0.00  0.00    +0.000 OA
BRANCH  32  34
ATOM     34  O   UNL     1      -0.543  14.814  18.500  0.00  0.00    +0.000 OA
ATOM     35  H   UNL     1      -0.423  14.786  17.534  0.00  0.00    +0.000 HD
ENDBRANCH  32  34
ENDBRANCH  31  32
ENDBRANCH  30  31
ENDBRANCH  28  30
ENDBRANCH  26  28
ENDBRANCH  24  26
ENDBRANCH  23  24
ENDBRANCH  22  23
ENDBRANCH  21  22
ENDBRANCH   5  20
TORSDOF 14
ENDMDL
MODEL 9
REMARK VINA RESULT:      -6.9      1.224      1.315
REMARK  Name = 
REMARK  15 active torsions:
REMARK  status: ('A' for Active; 'I' for Inactive)
REMARK    1  A    between atoms: C_1  and  C_2
REMARK    2  A    between atoms: C_2  and  N_3
REMARK    3  A    between atoms: C_2  and  C_26
REMARK    4  A    between atoms: N_3  and  C_4
REMARK    5  A    between atoms: C_7  and  N_8
REMARK    6  A    between atoms: C_11  and  C_12
REMARK    7  A    between atoms: C_13  and  C_14
REMARK    8  A    between atoms: C_14  and  C_15
REMARK    9  A    between atoms: C_15  and  N_16
REMARK   10  A    between atoms: N_16  and  C_17
REMARK   11  A    between atoms: C_17  and  N_19
REMARK   12  A    between atoms: N_19  and  C_20
REMARK   13  A    between atoms: C_20  and  C_21
REMARK   14  A    between atoms: C_21  and  C_22
REMARK   15  A    between atoms: C_22  and  O_24
REMARK                            x       y       z     vdW  Elec       q    Type
REMARK                         _______ _______ _______ _____ _____    ______ ____
ROOT
ATOM      1  C   UNL     1       5.373   4.574  19.209  0.00  0.00    +0.000 A 
ATOM      2  C   UNL     1       5.050   3.297  18.734  0.00  0.00    +0.000 A 
ATOM      3  C   UNL     1       3.726   2.836  18.741  0.00  0.00    +0.000 A 
ATOM      4  C   UNL     1       2.717   3.645  19.273  0.00  0.00    +0.000 A 
ATOM      5  C   UNL     1       2.996   4.925  19.759  0.00  0.00    +0.000 A 
ATOM      6  C   UNL     1       4.326   5.370  19.710  0.00  0.00    +0.000 A 
ENDROOT
BRANCH   4   7
ATOM      7  N   UNL     1       1.379   3.102  19.354  0.00  0.00    +0.000 N 
ATOM      8  O   UNL     1       0.751   2.990  18.289  0.00  0.00    +0.000 OA
ATOM      9  O   UNL     1       0.965   2.743  20.469  0.00  0.00    +0.000 OA
ENDBRANCH   4   7
BRANCH   1  10
ATOM     10  N   UNL     1       6.654   5.068  19.327  0.00  0.00    +0.000 N 
ATOM     11  H   UNL     1       6.883   5.430  20.250  0.00  0.00    +0.000 HD
BRANCH  10  13
ATOM     12  C   UNL     1       7.942   6.977  18.463  0.00  0.00    +0.000 C 
ATOM     13  C   UNL     1       7.557   5.507  18.267  0.00  0.00    +0.000 C 
BRANCH  13  14
ATOM     14  C   UNL     1       6.840   5.353  16.927  0.00  0.00    +0.000 A 
ATOM     15  C   UNL     1       7.159   4.293  16.064  0.00  0.00    +0.000 A 
ATOM     16  C   UNL     1       6.501   4.153  14.839  0.00  0.00    +0.000 A 
ATOM     17  C   UNL     1       5.511   5.059  14.465  0.00  0.00    +0.000 A 
ATOM     18  C   UNL     1       5.186   6.120  15.307  0.00  0.00    +0.000 A 
ATOM     19  C   UNL     1       5.850   6.269  16.524  0.00  0.00    +0.000 A 
ENDBRANCH  13  14
ENDBRANCH  10  13
ENDBRANCH   1  10
BRANCH   5  20
ATOM     20  C   UNL     1       2.005   5.796  20.387  0.00  0.00    +0.000 C 
ATOM     21  C   UNL     1       1.945   7.134  20.218  0.00  0.00    +0.000 C 
BRANCH  21  22
ATOM     22  C   UNL     1       0.985   8.027  20.970  0.00  0.00    +0.000 C 
BRANCH  22  23
ATOM     23  C   UNL     1       1.167   9.512  20.631  0.00  0.00    +0.000 C 
BRANCH  23  24
ATOM     24  N   UNL     1       0.584   9.941  19.376  0.00  0.00    +0.000 N 
ATOM     25  H   UNL     1       0.535   9.240  18.647  0.00  0.00    +0.000 HD
BRANCH  24  26
ATOM     26  C   UNL     1      -0.064  11.115  19.135  0.00  0.00    +0.000 C 
ATOM     27  S   UNL     1      -0.233  12.384  20.198  0.00  0.00    +0.000 S 
BRANCH  26  28
ATOM     28  N   UNL     1      -0.646  11.195  17.894  0.00  0.00    +0.000 N 
ATOM     29  H   UNL     1       0.011  11.238  17.123  0.00  0.00    +0.000 HD
BRANCH  28  30
ATOM     30  C   UNL     1      -2.027  11.617  17.687  0.00  0.00    +0.000 C 
BRANCH  30  31
ATOM     31  C   UNL     1      -3.029  10.478  17.554  0.00  0.00    +0.000 C 
BRANCH  31  32
ATOM     32  C   UNL     1      -4.422  11.057  17.514  0.00  0.00    +0.000 C 
ATOM     33  O   UNL     1      -5.067  11.393  18.497  0.00  0.00    +0.000 OA
BRANCH  32  34
ATOM     34  O   UNL     1      -4.920  11.171  16.264  0.00  0.00    +0.000 OA
ATOM     35  H   UNL     1      -4.586  10.510  15.632  0.00  0.00    +0.000 HD
ENDBRANCH  32  34
ENDBRANCH  31  32
ENDBRANCH  30  31
ENDBRANCH  28  30
ENDBRANCH  26  28
ENDBRANCH  24  26
ENDBRANCH  23  24
ENDBRANCH  22  23
ENDBRANCH  21  22
ENDBRANCH   5  20
TORSDOF 14
ENDMDL
