MODEL 1
REMARK VINA RESULT:      -7.7      0.000      0.000
REMARK  Name = 
REMARK  4 active torsions:
REMARK  status: ('A' for Active; 'I' for Inactive)
REMARK    1  A    between atoms: C_1  and  C_2
REMARK    2  A    between atoms: N_6  and  C_7
REMARK    3  A    between atoms: C_14  and  C_15
REMARK    4  A    between atoms: C_19  and  O_20
REMARK                            x       y       z     vdW  Elec       q    Type
REMARK                         _______ _______ _______ _____ _____    ______ ____
ROOT
ATOM      1  C   UNL     1       4.479   4.166  19.091  0.00  0.00    +0.000 A 
ATOM      2  N   UNL     1       4.976   2.896  19.238  0.00  0.00    +0.000 NA
ATOM      3  C   UNL     1       4.406   2.023  20.078  0.00  0.00    +0.000 A 
ATOM      4  N   UNL     1       3.333   2.219  20.839  0.00  0.00    +0.000 NA
ATOM      5  C   UNL     1       2.832   3.449  20.666  0.00  0.00    +0.000 A 
ATOM      6  N   UNL     1       1.721   3.867  21.333  0.00  0.00    +0.000 N 
ATOM      7  C   UNL     1       1.405   5.135  20.959  0.00  0.00    +0.000 A 
ATOM      8  C   UNL     1       2.342   5.560  20.026  0.00  0.00    +0.000 A 
ATOM      9  C   UNL     1       3.298   4.476  19.840  0.00  0.00    +0.000 A 
ATOM     10  H   UNL     1       1.217   3.288  21.990  0.00  0.00    +0.000 HD
ENDROOT
BRANCH   1  16
ATOM     11  C   UNL     1       8.138   5.650  19.049  0.00  0.00    +0.000 C 
ATOM     12  C   UNL     1       7.194   6.449  18.153  0.00  0.00    +0.000 C 
ATOM     13  C   UNL     1       7.330   6.098  16.666  0.00  0.00    +0.000 C 
ATOM     14  C   UNL     1       6.731   4.734  16.331  0.00  0.00    +0.000 C 
ATOM     15  C   UNL     1       5.293   4.607  16.834  0.00  0.00    +0.000 C 
ATOM     16  N   UNL     1       5.222   4.972  18.249  0.00  0.00    +0.000 N 
ATOM     17  C   UNL     1       5.741   6.280  18.604  0.00  0.00    +0.000 C 
ENDBRANCH   1  16
BRANCH   8  18
ATOM     18  C   UNL     1       2.209   6.891  19.438  0.00  0.00    +0.000 A 
ATOM     19  C   UNL     1       2.526   7.111  18.086  0.00  0.00    +0.000 A 
ATOM     20  C   UNL     1       2.293   8.353  17.489  0.00  0.00    +0.000 A 
ATOM     21  C   UNL     1       1.698   9.376  18.222  0.00  0.00    +0.000 A 
ATOM     22  C   UNL     1       1.416   9.168  19.566  0.00  0.00    +0.000 A 
ATOM     23  C   UNL     1       1.735   7.963  20.194  0.00  0.00    +0.000 A 
BRANCH  22  24
ATOM     24  O   UNL     1       0.750  10.107  20.299  0.00  0.00    +0.000 OA
ATOM     25  H   UNL     1       1.292  10.334  21.073  0.00  0.00    +0.000 HD
ENDBRANCH  22  24
ENDBRANCH   8  18
TORSDOF 3
ENDMDL
MODEL 2
REMARK VINA RESULT:      -7.6      2.029      4.605
REMARK  Name = 
REMARK  4 active torsions:
REMARK  status: ('A' for Active; 'I' for Inactive)
REMARK    1  A    between atoms: C_1  and  C_2
REMARK    2  A    between atoms: N_6  and  C_7
REMARK    3  A    between atoms: C_14  and  C_15
REMARK    4  A    between atoms: C_19  and  O_20
REMARK                            x       y       z     vdW  Elec       q    Type
REMARK                         _______ _______ _______ _____ _____    ______ ____
ROOT
ATOM      1  C   UNL     1       4.484   3.906  16.765  0.00  0.00    +0.000 A 
ATOM      2  N   UNL     1       5.307   3.121  15.999  0.00  0.00    +0.000 NA
ATOM      3  C   UNL     1       6.354   3.645  15.348  0.00  0.00    +0.000 A 
ATOM      4  N   UNL     1       6.752   4.913  15.351  0.00  0.00    +0.000 NA
ATOM      5  C   UNL     1       5.965   5.669  16.128  0.00  0.00    +0.000 A 
ATOM      6  N   UNL     1       6.194   7.001  16.293  0.00  0.00    +0.000 N 
ATOM      7  C   UNL     1       5.277   7.526  17.149  0.00  0.00    +0.000 A 
ATOM      8  C   UNL     1       4.419   6.508  17.546  0.00  0.00    +0.000 A 
ATOM      9  C   UNL     1       4.842   5.290  16.868  0.00  0.00    +0.000 A 
ATOM     10  H   UNL     1       6.954   7.494  15.847  0.00  0.00    +0.000 HD
ENDROOT
BRANCH   1  16
ATOM     11  C   UNL     1       3.381   2.694  20.357  0.00  0.00    +0.000 C 
ATOM     12  C   UNL     1       2.665   1.917  19.255  0.00  0.00    +0.000 C 
ATOM     13  C   UNL     1       1.237   2.414  18.994  0.00  0.00    +0.000 C 
ATOM     14  C   UNL     1       1.209   3.757  18.269  0.00  0.00    +0.000 C 
ATOM     15  C   UNL     1       2.063   3.735  17.001  0.00  0.00    +0.000 C 
ATOM     16  N   UNL     1       3.404   3.236  17.306  0.00  0.00    +0.000 N 
ATOM     17  C   UNL     1       3.476   1.941  17.956  0.00  0.00    +0.000 C 
ENDBRANCH   1  16
BRANCH   8  18
ATOM     18  C   UNL     1       3.351   6.807  18.497  0.00  0.00    +0.000 A 
ATOM     19  C   UNL     1       3.162   6.005  19.636  0.00  0.00    +0.000 A 
ATOM     20  C   UNL     1       2.218   6.350  20.607  0.00  0.00    +0.000 A 
ATOM     21  C   UNL     1       1.485   7.526  20.475  0.00  0.00    +0.000 A 
ATOM     22  C   UNL     1       1.649   8.300  19.333  0.00  0.00    +0.000 A 
ATOM     23  C   UNL     1       2.519   7.911  18.314  0.00  0.00    +0.000 A 
BRANCH  22  24
ATOM     24  O   UNL     1       1.022   9.506  19.204  0.00  0.00    +0.000 OA
ATOM     25  H   UNL     1       0.257   9.393  18.615  0.00  0.00    +0.000 HD
ENDBRANCH  22  24
ENDBRANCH   8  18
TORSDOF 3
ENDMDL
MODEL 3
REMARK VINA RESULT:      -7.5      1.076      1.076
REMARK  Name = 
REMARK  4 active torsions:
REMARK  status: ('A' for Active; 'I' for Inactive)
REMARK    1  A    between atoms: C_1  and  C_2
REMARK    2  A    between atoms: N_6  and  C_7
REMARK    3  A    between atoms: C_14  and  C_15
REMARK    4  A    between atoms: C_19  and  O_20
REMARK                            x       y       z     vdW  Elec       q    Type
REMARK                         _______ _______ _______ _____ _____    ______ ____
ROOT
ATOM      1  C   UNL     1       3.939   3.821  18.143  0.00  0.00    +0.000 A 
ATOM      2  N   UNL     1       4.284   2.517  17.899  0.00  0.00    +0.000 NA
ATOM      3  C   UNL     1       3.627   1.506  18.482  0.00  0.00    +0.000 A 
ATOM      4  N   UNL     1       2.596   1.591  19.317  0.00  0.00    +0.000 NA
ATOM      5  C   UNL     1       2.241   2.865  19.525  0.00  0.00    +0.000 A 
ATOM      6  N   UNL     1       1.197   3.191  20.336  0.00  0.00    +0.000 N 
ATOM      7  C   UNL     1       1.027   4.540  20.354  0.00  0.00    +0.000 A 
ATOM      8  C   UNL     1       1.995   5.111  19.537  0.00  0.00    +0.000 A 
ATOM      9  C   UNL     1       2.813   4.029  19.005  0.00  0.00    +0.000 A 
ATOM     10  H   UNL     1       0.638   2.506  20.824  0.00  0.00    +0.000 HD
ENDROOT
BRANCH   1  16
ATOM     11  C   UNL     1       7.808   4.607  18.069  0.00  0.00    +0.000 C 
ATOM     12  C   UNL     1       6.978   5.820  17.658  0.00  0.00    +0.000 C 
ATOM     13  C   UNL     1       6.917   6.025  16.139  0.00  0.00    +0.000 C 
ATOM     14  C   UNL     1       6.027   4.996  15.446  0.00  0.00    +0.000 C 
ATOM     15  C   UNL     1       4.639   4.925  16.084  0.00  0.00    +0.000 C 
ATOM     16  N   UNL     1       4.760   4.750  17.532  0.00  0.00    +0.000 N 
ATOM     17  C   UNL     1       5.562   5.733  18.235  0.00  0.00    +0.000 C 
ENDBRANCH   1  16
BRANCH   8  18
ATOM     18  C   UNL     1       2.012   6.561  19.359  0.00  0.00    +0.000 A 
ATOM     19  C   UNL     1       2.311   7.125  18.107  0.00  0.00    +0.000 A 
ATOM     20  C   UNL     1       2.217   8.505  17.901  0.00  0.00    +0.000 A 
ATOM     21  C   UNL     1       1.778   9.332  18.931  0.00  0.00    +0.000 A 
ATOM     22  C   UNL     1       1.515   8.777  20.177  0.00  0.00    +0.000 A 
ATOM     23  C   UNL     1       1.699   7.415  20.416  0.00  0.00    +0.000 A 
BRANCH  22  24
ATOM     24  O   UNL     1       0.995   9.533  21.188  0.00  0.00    +0.000 OA
ATOM     25  H   UNL     1       1.050  10.469  20.932  0.00  0.00    +0.000 HD
ENDBRANCH  22  24
ENDBRANCH   8  18
TORSDOF 3
ENDMDL
MODEL 4
REMARK VINA RESULT:      -7.4      1.860      4.632
REMARK  Name = 
REMARK  4 active torsions:
REMARK  status: ('A' for Active; 'I' for Inactive)
REMARK    1  A    between atoms: C_1  and  C_2
REMARK    2  A    between atoms: N_6  and  C_7
REMARK    3  A    between atoms: C_14  and  C_15
REMARK    4  A    between atoms: C_19  and  O_20
REMARK                            x       y       z     vdW  Elec       q    Type
REMARK                         _______ _______ _______ _____ _____    ______ ____
ROOT
ATOM      1  C   UNL     1       3.754   4.482  18.318  0.00  0.00    +0.000 A 
ATOM      2  N   UNL     1       4.563   3.431  17.972  0.00  0.00    +0.000 NA
ATOM      3  C   UNL     1       5.470   3.548  16.994  0.00  0.00    +0.000 A 
ATOM      4  N   UNL     1       5.732   4.628  16.263  0.00  0.00    +0.000 NA
ATOM      5  C   UNL     1       4.963   5.662  16.628  0.00  0.00    +0.000 A 
ATOM      6  N   UNL     1       5.068   6.878  16.026  0.00  0.00    +0.000 N 
ATOM      7  C   UNL     1       4.203   7.756  16.598  0.00  0.00    +0.000 A 
ATOM      8  C   UNL     1       3.506   7.091  17.598  0.00  0.00    +0.000 A 
ATOM      9  C   UNL     1       3.975   5.712  17.616  0.00  0.00    +0.000 A 
ATOM     10  H   UNL     1       5.719   7.072  15.277  0.00  0.00    +0.000 HD
ENDROOT
BRANCH   1  16
ATOM     11  C   UNL     1       0.923   1.775  18.816  0.00  0.00    +0.000 C 
ATOM     12  C   UNL     1       0.686   3.006  19.687  0.00  0.00    +0.000 C 
ATOM     13  C   UNL     1       1.119   2.808  21.146  0.00  0.00    +0.000 C 
ATOM     14  C   UNL     1       2.636   2.803  21.309  0.00  0.00    +0.000 C 
ATOM     15  C   UNL     1       3.281   4.033  20.668  0.00  0.00    +0.000 C 
ATOM     16  N   UNL     1       2.817   4.181  19.288  0.00  0.00    +0.000 N 
ATOM     17  C   UNL     1       1.380   4.235  19.094  0.00  0.00    +0.000 C 
ENDBRANCH   1  16
BRANCH   8  18
ATOM     18  C   UNL     1       2.526   7.827  18.394  0.00  0.00    +0.000 A 
ATOM     19  C   UNL     1       2.317   7.506  19.747  0.00  0.00    +0.000 A 
ATOM     20  C   UNL     1       1.466   8.278  20.543  0.00  0.00    +0.000 A 
ATOM     21  C   UNL     1       0.851   9.407  20.010  0.00  0.00    +0.000 A 
ATOM     22  C   UNL     1       1.032   9.703  18.665  0.00  0.00    +0.000 A 
ATOM     23  C   UNL     1       1.803   8.883  17.840  0.00  0.00    +0.000 A 
BRANCH  22  24
ATOM     24  O   UNL     1       0.526  10.849  18.122  0.00  0.00    +0.000 OA
ATOM     25  H   UNL     1      -0.319  11.049  18.559  0.00  0.00    +0.000 HD
ENDBRANCH  22  24
ENDBRANCH   8  18
TORSDOF 3
ENDMDL
MODEL 5
REMARK VINA RESULT:      -7.3      1.950      4.625
REMARK  Name = 
REMARK  4 active torsions:
REMARK  status: ('A' for Active; 'I' for Inactive)
REMARK    1  A    between atoms: C_1  and  C_2
REMARK    2  A    between atoms: N_6  and  C_7
REMARK    3  A    between atoms: C_14  and  C_15
REMARK    4  A    between atoms: C_19  and  O_20
REMARK                            x       y       z     vdW  Elec       q    Type
REMARK                         _______ _______ _______ _____ _____    ______ ____
ROOT
ATOM      1  C   UNL     1       3.771   4.335  18.082  0.00  0.00    +0.000 A 
ATOM      2  N   UNL     1       4.462   3.213  17.704  0.00  0.00    +0.000 NA
ATOM      3  C   UNL     1       5.334   3.246  16.687  0.00  0.00    +0.000 A 
ATOM      4  N   UNL     1       5.664   4.297  15.943  0.00  0.00    +0.000 NA
ATOM      5  C   UNL     1       5.012   5.398  16.338  0.00  0.00    +0.000 A 
ATOM      6  N   UNL     1       5.206   6.599  15.728  0.00  0.00    +0.000 N 
ATOM      7  C   UNL     1       4.452   7.555  16.334  0.00  0.00    +0.000 A 
ATOM      8  C   UNL     1       3.739   6.957  17.366  0.00  0.00    +0.000 A 
ATOM      9  C   UNL     1       4.077   5.539  17.367  0.00  0.00    +0.000 A 
ATOM     10  H   UNL     1       5.839   6.733  14.952  0.00  0.00    +0.000 HD
ENDROOT
BRANCH   1  16
ATOM     11  C   UNL     1       0.787   1.839  18.752  0.00  0.00    +0.000 C 
ATOM     12  C   UNL     1       0.664   3.105  19.597  0.00  0.00    +0.000 C 
ATOM     13  C   UNL     1       1.136   2.914  21.044  0.00  0.00    +0.000 C 
ATOM     14  C   UNL     1       2.655   2.810  21.154  0.00  0.00    +0.000 C 
ATOM     15  C   UNL     1       3.356   3.978  20.458  0.00  0.00    +0.000 C 
ATOM     16  N   UNL     1       2.852   4.123  19.092  0.00  0.00    +0.000 N 
ATOM     17  C   UNL     1       1.416   4.269  18.946  0.00  0.00    +0.000 C 
ENDBRANCH   1  16
BRANCH   8  18
ATOM     18  C   UNL     1       2.868   7.780  18.200  0.00  0.00    +0.000 A 
ATOM     19  C   UNL     1       2.172   8.871  17.650  0.00  0.00    +0.000 A 
ATOM     20  C   UNL     1       1.249   9.592  18.415  0.00  0.00    +0.000 A 
ATOM     21  C   UNL     1       0.977   9.202  19.723  0.00  0.00    +0.000 A 
ATOM     22  C   UNL     1       1.689   8.145  20.275  0.00  0.00    +0.000 A 
ATOM     23  C   UNL     1       2.680   7.483  19.550  0.00  0.00    +0.000 A 
BRANCH  22  24
ATOM     24  O   UNL     1       1.392   7.670  21.520  0.00  0.00    +0.000 OA
ATOM     25  H   UNL     1       1.699   8.316  22.178  0.00  0.00    +0.000 HD
ENDBRANCH  22  24
ENDBRANCH   8  18
TORSDOF 3
ENDMDL
MODEL 6
REMARK VINA RESULT:      -7.1      2.292      4.769
REMARK  Name = 
REMARK  4 active torsions:
REMARK  status: ('A' for Active; 'I' for Inactive)
REMARK    1  A    between atoms: C_1  and  C_2
REMARK    2  A    between atoms: N_6  and  C_7
REMARK    3  A    between atoms: C_14  and  C_15
REMARK    4  A    between atoms: C_19  and  O_20
REMARK                            x       y       z     vdW  Elec       q    Type
REMARK                         _______ _______ _______ _____ _____    ______ ____
ROOT
ATOM      1  C   UNL     1       4.629   3.869  16.673  0.00  0.00    +0.000 A 
ATOM      2  N   UNL     1       5.400   3.111  15.829  0.00  0.00    +0.000 NA
ATOM      3  C   UNL     1       6.436   3.644  15.171  0.00  0.00    +0.000 A 
ATOM      4  N   UNL     1       6.872   4.899  15.236  0.00  0.00    +0.000 NA
ATOM      5  C   UNL     1       6.138   5.627  16.087  0.00  0.00    +0.000 A 
ATOM      6  N   UNL     1       6.412   6.939  16.325  0.00  0.00    +0.000 N 
ATOM      7  C   UNL     1       5.544   7.435  17.245  0.00  0.00    +0.000 A 
ATOM      8  C   UNL     1       4.671   6.419  17.613  0.00  0.00    +0.000 A 
ATOM      9  C   UNL     1       5.032   5.233  16.846  0.00  0.00    +0.000 A 
ATOM     10  H   UNL     1       7.170   7.437  15.880  0.00  0.00    +0.000 HD
ENDROOT
BRANCH   1  16
ATOM     11  C   UNL     1       3.627   2.463  20.224  0.00  0.00    +0.000 C 
ATOM     12  C   UNL     1       2.846   1.778  19.105  0.00  0.00    +0.000 C 
ATOM     13  C   UNL     1       1.425   2.331  18.933  0.00  0.00    +0.000 C 
ATOM     14  C   UNL     1       1.411   3.717  18.295  0.00  0.00    +0.000 C 
ATOM     15  C   UNL     1       2.214   3.752  16.994  0.00  0.00    +0.000 C 
ATOM     16  N   UNL     1       3.550   3.196  17.215  0.00  0.00    +0.000 N 
ATOM     17  C   UNL     1       3.608   1.861  17.779  0.00  0.00    +0.000 C 
ENDBRANCH   1  16
BRANCH   8  18
ATOM     18  C   UNL     1       3.649   6.687  18.621  0.00  0.00    +0.000 A 
ATOM     19  C   UNL     1       2.750   7.756  18.462  0.00  0.00    +0.000 A 
ATOM     20  C   UNL     1       1.698   7.949  19.363  0.00  0.00    +0.000 A 
ATOM     21  C   UNL     1       1.504   7.048  20.406  0.00  0.00    +0.000 A 
ATOM     22  C   UNL     1       2.412   6.012  20.581  0.00  0.00    +0.000 A 
ATOM     23  C   UNL     1       3.519   5.870  19.743  0.00  0.00    +0.000 A 
BRANCH  22  24
ATOM     24  O   UNL     1       2.211   5.053  21.532  0.00  0.00    +0.000 OA
ATOM     25  H   UNL     1       2.965   4.440  21.515  0.00  0.00    +0.000 HD
ENDBRANCH  22  24
ENDBRANCH   8  18
TORSDOF 3
ENDMDL
MODEL 7
REMARK VINA RESULT:      -7.0      1.395      1.744
REMARK  Name = 
REMARK  4 active torsions:
REMARK  status: ('A' for Active; 'I' for Inactive)
REMARK    1  A    between atoms: C_1  and  C_2
REMARK    2  A    between atoms: N_6  and  C_7
REMARK    3  A    between atoms: C_14  and  C_15
REMARK    4  A    between atoms: C_19  and  O_20
REMARK                            x       y       z     vdW  Elec       q    Type
REMARK                         _______ _______ _______ _____ _____    ______ ____
ROOT
ATOM      1  C   UNL     1       3.994   3.889  18.365  0.00  0.00    +0.000 A 
ATOM      2  N   UNL     1       4.485   2.660  18.005  0.00  0.00    +0.000 NA
ATOM      3  C   UNL     1       3.863   1.532  18.373  0.00  0.00    +0.000 A 
ATOM      4  N   UNL     1       2.742   1.423  19.079  0.00  0.00    +0.000 NA
ATOM      5  C   UNL     1       2.249   2.627  19.399  0.00  0.00    +0.000 A 
ATOM      6  N   UNL     1       1.095   2.759  20.109  0.00  0.00    +0.000 N 
ATOM      7  C   UNL     1       0.799   4.076  20.272  0.00  0.00    +0.000 A 
ATOM      8  C   UNL     1       1.795   4.825  19.658  0.00  0.00    +0.000 A 
ATOM      9  C   UNL     1       2.765   3.891  19.100  0.00  0.00    +0.000 A 
ATOM     10  H   UNL     1       0.550   1.974  20.436  0.00  0.00    +0.000 HD
ENDROOT
BRANCH   1  16
ATOM     11  C   UNL     1       7.864   4.579  17.996  0.00  0.00    +0.000 C 
ATOM     12  C   UNL     1       7.070   5.876  18.127  0.00  0.00    +0.000 C 
ATOM     13  C   UNL     1       6.827   6.575  16.783  0.00  0.00    +0.000 C 
ATOM     14  C   UNL     1       5.789   5.853  15.929  0.00  0.00    +0.000 C 
ATOM     15  C   UNL     1       4.493   5.601  16.701  0.00  0.00    +0.000 C 
ATOM     16  N   UNL     1       4.789   4.952  17.979  0.00  0.00    +0.000 N 
ATOM     17  C   UNL     1       5.738   5.629  18.841  0.00  0.00    +0.000 C 
ENDBRANCH   1  16
BRANCH   8  18
ATOM     18  C   UNL     1       1.697   6.283  19.664  0.00  0.00    +0.000 A 
ATOM     19  C   UNL     1       1.439   6.977  20.859  0.00  0.00    +0.000 A 
ATOM     20  C   UNL     1       1.458   8.375  20.895  0.00  0.00    +0.000 A 
ATOM     21  C   UNL     1       1.781   9.094  19.747  0.00  0.00    +0.000 A 
ATOM     22  C   UNL     1       2.003   8.407  18.560  0.00  0.00    +0.000 A 
ATOM     23  C   UNL     1       1.891   7.018  18.496  0.00  0.00    +0.000 A 
BRANCH  22  24
ATOM     24  O   UNL     1       2.413   9.062  17.435  0.00  0.00    +0.000 OA
ATOM     25  H   UNL     1       2.230   8.497  16.666  0.00  0.00    +0.000 HD
ENDBRANCH  22  24
ENDBRANCH   8  18
TORSDOF 3
ENDMDL
MODEL 8
REMARK VINA RESULT:      -6.8      2.800      5.650
REMARK  Name = 
REMARK  4 active torsions:
REMARK  status: ('A' for Active; 'I' for Inactive)
REMARK    1  A    between atoms: C_1  and  C_2
REMARK    2  A    between atoms: N_6  and  C_7
REMARK    3  A    between atoms: C_14  and  C_15
REMARK    4  A    between atoms: C_19  and  O_20
REMARK                            x       y       z     vdW  Elec       q    Type
REMARK                         _______ _______ _______ _____ _____    ______ ____
ROOT
ATOM      1  C   UNL     1       2.072   6.148  20.152  0.00  0.00    +0.000 A 
ATOM      2  N   UNL     1       1.163   6.671  21.035  0.00  0.00    +0.000 NA
ATOM      3  C   UNL     1       0.769   7.948  20.948  0.00  0.00    +0.000 A 
ATOM      4  N   UNL     1       1.150   8.849  20.048  0.00  0.00    +0.000 NA
ATOM      5  C   UNL     1       2.012   8.324  19.167  0.00  0.00    +0.000 A 
ATOM      6  N   UNL     1       2.524   9.061  18.144  0.00  0.00    +0.000 N 
ATOM      7  C   UNL     1       3.345   8.290  17.382  0.00  0.00    +0.000 A 
ATOM      8  C   UNL     1       3.375   7.014  17.929  0.00  0.00    +0.000 A 
ATOM      9  C   UNL     1       2.525   7.025  19.113  0.00  0.00    +0.000 A 
ATOM     10  H   UNL     1       2.294  10.033  17.990  0.00  0.00    +0.000 HD
ENDROOT
BRANCH   1  16
ATOM     11  C   UNL     1       1.161   2.576  18.738  0.00  0.00    +0.000 C 
ATOM     12  C   UNL     1       1.738   2.494  20.149  0.00  0.00    +0.000 C 
ATOM     13  C   UNL     1       3.220   2.096  20.175  0.00  0.00    +0.000 C 
ATOM     14  C   UNL     1       4.136   3.223  19.707  0.00  0.00    +0.000 C 
ATOM     15  C   UNL     1       3.866   4.525  20.462  0.00  0.00    +0.000 C 
ATOM     16  N   UNL     1       2.438   4.843  20.421  0.00  0.00    +0.000 N 
ATOM     17  C   UNL     1       1.534   3.813  20.899  0.00  0.00    +0.000 C 
ENDBRANCH   1  16
BRANCH   8  18
ATOM     18  C   UNL     1       4.168   5.977  17.275  0.00  0.00    +0.000 A 
ATOM     19  C   UNL     1       3.599   4.728  16.968  0.00  0.00    +0.000 A 
ATOM     20  C   UNL     1       4.316   3.773  16.240  0.00  0.00    +0.000 A 
ATOM     21  C   UNL     1       5.592   4.073  15.771  0.00  0.00    +0.000 A 
ATOM     22  C   UNL     1       6.165   5.293  16.104  0.00  0.00    +0.000 A 
ATOM     23  C   UNL     1       5.493   6.213  16.911  0.00  0.00    +0.000 A 
BRANCH  22  24
ATOM     24  O   UNL     1       7.374   5.667  15.591  0.00  0.00    +0.000 OA
ATOM     25  H   UNL     1       7.544   6.589  15.845  0.00  0.00    +0.000 HD
ENDBRANCH  22  24
ENDBRANCH   8  18
TORSDOF 3
ENDMDL
MODEL 9
REMARK VINA RESULT:      -6.8      2.547      5.319
REMARK  Name = 
REMARK  4 active torsions:
REMARK  status: ('A' for Active; 'I' for Inactive)
REMARK    1  A    between atoms: C_1  and  C_2
REMARK    2  A    between atoms: N_6  and  C_7
REMARK    3  A    between atoms: C_14  and  C_15
REMARK    4  A    between atoms: C_19  and  O_20
REMARK                            x       y       z     vdW  Elec       q    Type
REMARK                         _______ _______ _______ _____ _____    ______ ____
ROOT
ATOM      1  C   UNL     1       1.974   4.673  19.383  0.00  0.00    +0.000 A 
ATOM      2  N   UNL     1       0.758   4.214  19.820  0.00  0.00    +0.000 NA
ATOM      3  C   UNL     1       0.369   2.954  19.585  0.00  0.00    +0.000 A 
ATOM      4  N   UNL     1       1.051   2.004  18.953  0.00  0.00    +0.000 NA
ATOM      5  C   UNL     1       2.252   2.448  18.557  0.00  0.00    +0.000 A 
ATOM      6  N   UNL     1       3.131   1.641  17.902  0.00  0.00    +0.000 N 
ATOM      7  C   UNL     1       4.279   2.320  17.641  0.00  0.00    +0.000 A 
ATOM      8  C   UNL     1       4.142   3.612  18.134  0.00  0.00    +0.000 A 
ATOM      9  C   UNL     1       2.811   3.719  18.717  0.00  0.00    +0.000 A 
ATOM     10  H   UNL     1       2.935   0.676  17.674  0.00  0.00    +0.000 HD
ENDROOT
BRANCH   1  16
ATOM     11  C   UNL     1       1.026   8.097  17.660  0.00  0.00    +0.000 C 
ATOM     12  C   UNL     1       2.234   8.244  18.582  0.00  0.00    +0.000 C 
ATOM     13  C   UNL     1       1.883   8.846  19.949  0.00  0.00    +0.000 C 
ATOM     14  C   UNL     1       1.134   7.862  20.844  0.00  0.00    +0.000 C 
ATOM     15  C   UNL     1       1.872   6.528  20.963  0.00  0.00    +0.000 C 
ATOM     16  N   UNL     1       2.197   6.014  19.632  0.00  0.00    +0.000 N 
ATOM     17  C   UNL     1       2.947   6.902  18.764  0.00  0.00    +0.000 C 
ENDBRANCH   1  16
BRANCH   8  18
ATOM     18  C   UNL     1       5.259   4.545  18.007  0.00  0.00    +0.000 A 
ATOM     19  C   UNL     1       5.926   5.023  19.148  0.00  0.00    +0.000 A 
ATOM     20  C   UNL     1       7.065   5.825  19.030  0.00  0.00    +0.000 A 
ATOM     21  C   UNL     1       7.579   6.119  17.770  0.00  0.00    +0.000 A 
ATOM     22  C   UNL     1       6.900   5.674  16.643  0.00  0.00    +0.000 A 
ATOM     23  C   UNL     1       5.709   4.955  16.752  0.00  0.00    +0.000 A 
BRANCH  22  24
ATOM     24  O   UNL     1       7.415   5.858  15.392  0.00  0.00    +0.000 OA
ATOM     25  H   UNL     1       6.732   6.268  14.836  0.00  0.00    +0.000 HD
ENDBRANCH  22  24
ENDBRANCH   8  18
TORSDOF 3
ENDMDL
