MODEL 1
REMARK VINA RESULT:      -7.7      0.000      0.000
REMARK  Name = 
REMARK  13 active torsions:
REMARK  status: ('A' for Active; 'I' for Inactive)
REMARK    1  A    between atoms: C_1  and  N_2
REMARK    2  A    between atoms: N_2  and  C_3
REMARK    3  A    between atoms: N_2  and  C_18
REMARK    4  A    between atoms: C_3  and  C_4
REMARK    5  A    between atoms: C_4  and  C_5
REMARK    6  A    between atoms: C_5  and  N_6
REMARK    7  A    between atoms: N_6  and  C_7
REMARK    8  A    between atoms: C_7  and  C_8
REMARK    9  A    between atoms: C_18  and  C_19
REMARK   10  A    between atoms: C_19  and  C_20
REMARK   11  A    between atoms: C_20  and  N_21
REMARK   12  A    between atoms: N_21  and  C_22
REMARK   13  A    between atoms: C_22  and  C_23
REMARK                            x       y       z     vdW  Elec       q    Type
REMARK                         _______ _______ _______ _____ _____    ______ ____
ROOT
ATOM      1  C   UNL     1       2.602   4.647  21.231  0.00  0.00    +0.000 C 
ATOM      2  N   UNL     1       1.448   4.930  20.356  0.00  0.00    +0.000 NA
ENDROOT
BRANCH   2   3
ATOM      3  C   UNL     1       1.943   5.526  19.093  0.00  0.00    +0.000 C 
BRANCH   3   4
ATOM      4  C   UNL     1       2.981   6.645  19.324  0.00  0.00    +0.000 C 
BRANCH   4   5
ATOM      5  C   UNL     1       3.000   7.701  18.191  0.00  0.00    +0.000 C 
BRANCH   5   6
ATOM      6  N   UNL     1       1.686   8.318  17.926  0.00  0.00    +0.000 NA
ATOM      7  H   UNL     1       0.927   7.601  17.966  0.00  0.00    +0.000 HD
BRANCH   6   8
ATOM      8  C   UNL     1       1.413   9.427  18.850  0.00  0.00    +0.000 C 
BRANCH   8   9
ATOM      9  C   UNL     1       0.044   9.996  18.647  0.00  0.00    +0.000 A 
ATOM     10  C   UNL     1      -0.490  10.875  19.603  0.00  0.00    +0.000 A 
ATOM     11  C   UNL     1      -1.738  11.460  19.409  0.00  0.00    +0.000 A 
ATOM     12  C   UNL     1      -2.472  11.177  18.250  0.00  0.00    +0.000 A 
ATOM     13  C   UNL     1      -3.714  11.784  18.030  0.00  0.00    +0.000 A 
ATOM     14  C   UNL     1      -4.432  11.503  16.865  0.00  0.00    +0.000 A 
ATOM     15  C   UNL     1      -3.920  10.609  15.920  0.00  0.00    +0.000 A 
ATOM     16  C   UNL     1      -2.683   9.994  16.130  0.00  0.00    +0.000 A 
ATOM     17  C   UNL     1      -1.947  10.276  17.289  0.00  0.00    +0.000 A 
ATOM     18  C   UNL     1      -0.694   9.688  17.497  0.00  0.00    +0.000 A 
ENDBRANCH   8   9
ENDBRANCH   6   8
ENDBRANCH   5   6
ENDBRANCH   4   5
ENDBRANCH   3   4
ENDBRANCH   2   3
BRANCH   2  19
ATOM     19  C   UNL     1       0.654   3.703  20.088  0.00  0.00    +0.000 C 
BRANCH  19  20
ATOM     20  C   UNL     1       0.839   3.165  18.669  0.00  0.00    +0.000 C 
BRANCH  20  21
ATOM     21  C   UNL     1       1.421   1.751  18.684  0.00  0.00    +0.000 C 
BRANCH  21  22
ATOM     22  N   UNL     1       2.687   1.750  17.959  0.00  0.00    +0.000 NA
ATOM     23  H   UNL     1       2.633   2.465  17.192  0.00  0.00    +0.000 HD
BRANCH  22  24
ATOM     24  C   UNL     1       3.797   2.108  18.846  0.00  0.00    +0.000 C 
BRANCH  24  25
ATOM     25  C   UNL     1       4.503   3.297  18.270  0.00  0.00    +0.000 A 
ATOM     26  C   UNL     1       4.164   3.784  17.000  0.00  0.00    +0.000 A 
ATOM     27  C   UNL     1       4.833   4.884  16.464  0.00  0.00    +0.000 A 
ATOM     28  C   UNL     1       5.849   5.515  17.195  0.00  0.00    +0.000 A 
ATOM     29  C   UNL     1       6.523   6.626  16.669  0.00  0.00    +0.000 A 
ATOM     30  C   UNL     1       7.536   7.247  17.409  0.00  0.00    +0.000 A 
ATOM     31  C   UNL     1       7.883   6.761  18.673  0.00  0.00    +0.000 A 
ATOM     32  C   UNL     1       7.219   5.656  19.209  0.00  0.00    +0.000 A 
ATOM     33  C   UNL     1       6.199   5.028  18.478  0.00  0.00    +0.000 A 
ATOM     34  C   UNL     1       5.520   3.922  19.008  0.00  0.00    +0.000 A 
ENDBRANCH  24  25
ENDBRANCH  22  24
ENDBRANCH  21  22
ENDBRANCH  20  21
ENDBRANCH  19  20
ENDBRANCH   2  19
TORSDOF 12
ENDMDL
MODEL 2
REMARK VINA RESULT:      -7.3      0.699      8.902
REMARK  Name = 
REMARK  13 active torsions:
REMARK  status: ('A' for Active; 'I' for Inactive)
REMARK    1  A    between atoms: C_1  and  N_2
REMARK    2  A    between atoms: N_2  and  C_3
REMARK    3  A    between atoms: N_2  and  C_18
REMARK    4  A    between atoms: C_3  and  C_4
REMARK    5  A    between atoms: C_4  and  C_5
REMARK    6  A    between atoms: C_5  and  N_6
REMARK    7  A    between atoms: N_6  and  C_7
REMARK    8  A    between atoms: C_7  and  C_8
REMARK    9  A    between atoms: C_18  and  C_19
REMARK   10  A    between atoms: C_19  and  C_20
REMARK   11  A    between atoms: C_20  and  N_21
REMARK   12  A    between atoms: N_21  and  C_22
REMARK   13  A    between atoms: C_22  and  C_23
REMARK                            x       y       z     vdW  Elec       q    Type
REMARK                         _______ _______ _______ _____ _____    ______ ____
ROOT
ATOM      1  C   UNL     1       2.006   3.754  21.506  0.00  0.00    +0.000 C 
ATOM      2  N   UNL     1       2.179   4.184  20.105  0.00  0.00    +0.000 NA
ENDROOT
BRANCH   2   3
ATOM      3  C   UNL     1       1.107   3.574  19.285  0.00  0.00    +0.000 C 
BRANCH   3   4
ATOM      4  C   UNL     1       1.555   2.278  18.578  0.00  0.00    +0.000 C 
BRANCH   4   5
ATOM      5  C   UNL     1       2.961   1.799  19.018  0.00  0.00    +0.000 C 
BRANCH   5   6
ATOM      6  N   UNL     1       4.013   2.021  18.007  0.00  0.00    +0.000 NA
ATOM      7  H   UNL     1       4.228   1.134  17.499  0.00  0.00    +0.000 HD
BRANCH   6   8
ATOM      8  C   UNL     1       3.645   3.090  17.070  0.00  0.00    +0.000 C 
BRANCH   8   9
ATOM      9  C   UNL     1       4.658   4.190  17.055  0.00  0.00    +0.000 A 
ATOM     10  C   UNL     1       4.697   5.084  15.972  0.00  0.00    +0.000 A 
ATOM     11  C   UNL     1       5.593   6.148  15.963  0.00  0.00    +0.000 A 
ATOM     12  C   UNL     1       6.466   6.339  17.041  0.00  0.00    +0.000 A 
ATOM     13  C   UNL     1       7.350   7.423  17.057  0.00  0.00    +0.000 A 
ATOM     14  C   UNL     1       8.209   7.609  18.143  0.00  0.00    +0.000 A 
ATOM     15  C   UNL     1       8.196   6.711  19.214  0.00  0.00    +0.000 A 
ATOM     16  C   UNL     1       7.320   5.622  19.208  0.00  0.00    +0.000 A 
ATOM     17  C   UNL     1       6.446   5.429  18.130  0.00  0.00    +0.000 A 
ATOM     18  C   UNL     1       5.545   4.358  18.127  0.00  0.00    +0.000 A 
ENDBRANCH   8   9
ENDBRANCH   6   8
ENDBRANCH   5   6
ENDBRANCH   4   5
ENDBRANCH   3   4
ENDBRANCH   2   3
BRANCH   2  19
ATOM     19  C   UNL     1       2.162   5.665  19.983  0.00  0.00    +0.000 C 
BRANCH  19  20
ATOM     20  C   UNL     1       2.331   6.152  18.544  0.00  0.00    +0.000 C 
BRANCH  20  21
ATOM     21  C   UNL     1       2.710   7.634  18.501  0.00  0.00    +0.000 C 
BRANCH  21  22
ATOM     22  N   UNL     1       1.545   8.410  18.089  0.00  0.00    +0.000 NA
ATOM     23  H   UNL     1       0.702   7.784  18.111  0.00  0.00    +0.000 HD
BRANCH  22  24
ATOM     24  C   UNL     1       1.313   9.529  19.007  0.00  0.00    +0.000 C 
BRANCH  24  25
ATOM     25  C   UNL     1      -0.036  10.111  18.717  0.00  0.00    +0.000 A 
ATOM     26  C   UNL     1      -0.650  10.983  19.627  0.00  0.00    +0.000 A 
ATOM     27  C   UNL     1      -1.911  11.513  19.357  0.00  0.00    +0.000 A 
ATOM     28  C   UNL     1      -2.575  11.179  18.168  0.00  0.00    +0.000 A 
ATOM     29  C   UNL     1      -3.841  11.710  17.883  0.00  0.00    +0.000 A 
ATOM     30  C   UNL     1      -4.494  11.369  16.694  0.00  0.00    +0.000 A 
ATOM     31  C   UNL     1      -3.890  10.493  15.787  0.00  0.00    +0.000 A 
ATOM     32  C   UNL     1      -2.630   9.957  16.058  0.00  0.00    +0.000 A 
ATOM     33  C   UNL     1      -1.964  10.295  17.245  0.00  0.00    +0.000 A 
ATOM     34  C   UNL     1      -0.696   9.769  17.526  0.00  0.00    +0.000 A 
ENDBRANCH  24  25
ENDBRANCH  22  24
ENDBRANCH  21  22
ENDBRANCH  20  21
ENDBRANCH  19  20
ENDBRANCH   2  19
TORSDOF 12
ENDMDL
MODEL 3
REMARK VINA RESULT:      -7.3      0.833      1.159
REMARK  Name = 
REMARK  13 active torsions:
REMARK  status: ('A' for Active; 'I' for Inactive)
REMARK    1  A    between atoms: C_1  and  N_2
REMARK    2  A    between atoms: N_2  and  C_3
REMARK    3  A    between atoms: N_2  and  C_18
REMARK    4  A    between atoms: C_3  and  C_4
REMARK    5  A    between atoms: C_4  and  C_5
REMARK    6  A    between atoms: C_5  and  N_6
REMARK    7  A    between atoms: N_6  and  C_7
REMARK    8  A    between atoms: C_7  and  C_8
REMARK    9  A    between atoms: C_18  and  C_19
REMARK   10  A    between atoms: C_19  and  C_20
REMARK   11  A    between atoms: C_20  and  N_21
REMARK   12  A    between atoms: N_21  and  C_22
REMARK   13  A    between atoms: C_22  and  C_23
REMARK                            x       y       z     vdW  Elec       q    Type
REMARK                         _______ _______ _______ _____ _____    ______ ____
ROOT
ATOM      1  C   UNL     1       1.826   3.753  21.312  0.00  0.00    +0.000 C 
ATOM      2  N   UNL     1       1.432   4.376  20.033  0.00  0.00    +0.000 NA
ENDROOT
BRANCH   2   3
ATOM      3  C   UNL     1       2.340   5.512  19.758  0.00  0.00    +0.000 C 
BRANCH   3   4
ATOM      4  C   UNL     1       2.120   6.132  18.362  0.00  0.00    +0.000 C 
BRANCH   4   5
ATOM      5  C   UNL     1       2.482   7.637  18.299  0.00  0.00    +0.000 C 
BRANCH   5   6
ATOM      6  N   UNL     1       1.676   8.483  19.200  0.00  0.00    +0.000 NA
ATOM      7  H   UNL     1       2.077   8.480  20.165  0.00  0.00    +0.000 HD
BRANCH   6   8
ATOM      8  C   UNL     1       1.549   9.853  18.687  0.00  0.00    +0.000 C 
BRANCH   8   9
ATOM      9  C   UNL     1       0.118  10.271  18.562  0.00  0.00    +0.000 A 
ATOM     10  C   UNL     1      -0.461  11.073  19.558  0.00  0.00    +0.000 A 
ATOM     11  C   UNL     1      -1.773  11.519  19.436  0.00  0.00    +0.000 A 
ATOM     12  C   UNL     1      -2.529  11.173  18.309  0.00  0.00    +0.000 A 
ATOM     13  C   UNL     1      -3.839  11.641  18.161  0.00  0.00    +0.000 A 
ATOM     14  C   UNL     1      -4.580  11.298  17.027  0.00  0.00    +0.000 A 
ATOM     15  C   UNL     1      -4.022  10.479  16.041  0.00  0.00    +0.000 A 
ATOM     16  C   UNL     1      -2.715  10.002  16.180  0.00  0.00    +0.000 A 
ATOM     17  C   UNL     1      -1.958  10.347  17.307  0.00  0.00    +0.000 A 
ATOM     18  C   UNL     1      -0.638   9.898  17.443  0.00  0.00    +0.000 A 
ENDBRANCH   8   9
ENDBRANCH   6   8
ENDBRANCH   5   6
ENDBRANCH   4   5
ENDBRANCH   3   4
ENDBRANCH   2   3
BRANCH   2  19
ATOM     19  C   UNL     1       1.457   3.394  18.918  0.00  0.00    +0.000 C 
BRANCH  19  20
ATOM     20  C   UNL     1       1.961   2.014  19.343  0.00  0.00    +0.000 C 
BRANCH  20  21
ATOM     21  C   UNL     1       3.117   1.549  18.457  0.00  0.00    +0.000 C 
BRANCH  21  22
ATOM     22  N   UNL     1       4.126   2.602  18.400  0.00  0.00    +0.000 NA
ATOM     23  H   UNL     1       5.046   2.199  18.710  0.00  0.00    +0.000 HD
BRANCH  22  24
ATOM     24  C   UNL     1       4.281   3.103  17.032  0.00  0.00    +0.000 C 
BRANCH  24  25
ATOM     25  C   UNL     1       5.068   4.377  17.077  0.00  0.00    +0.000 A 
ATOM     26  C   UNL     1       4.858   5.381  16.122  0.00  0.00    +0.000 A 
ATOM     27  C   UNL     1       5.602   6.560  16.162  0.00  0.00    +0.000 A 
ATOM     28  C   UNL     1       6.566   6.750  17.162  0.00  0.00    +0.000 A 
ATOM     29  C   UNL     1       7.316   7.934  17.216  0.00  0.00    +0.000 A 
ATOM     30  C   UNL     1       8.275   8.112  18.219  0.00  0.00    +0.000 A 
ATOM     31  C   UNL     1       8.493   7.110  19.169  0.00  0.00    +0.000 A 
ATOM     32  C   UNL     1       7.753   5.927  19.127  0.00  0.00    +0.000 A 
ATOM     33  C   UNL     1       6.786   5.739  18.129  0.00  0.00    +0.000 A 
ATOM     34  C   UNL     1       6.032   4.559  18.080  0.00  0.00    +0.000 A 
ENDBRANCH  24  25
ENDBRANCH  22  24
ENDBRANCH  21  22
ENDBRANCH  20  21
ENDBRANCH  19  20
ENDBRANCH   2  19
TORSDOF 12
ENDMDL
MODEL 4
REMARK VINA RESULT:      -6.9      3.184     10.061
REMARK  Name = 
REMARK  13 active torsions:
REMARK  status: ('A' for Active; 'I' for Inactive)
REMARK    1  A    between atoms: C_1  and  N_2
REMARK    2  A    between atoms: N_2  and  C_3
REMARK    3  A    between atoms: N_2  and  C_18
REMARK    4  A    between atoms: C_3  and  C_4
REMARK    5  A    between atoms: C_4  and  C_5
REMARK    6  A    between atoms: C_5  and  N_6
REMARK    7  A    between atoms: N_6  and  C_7
REMARK    8  A    between atoms: C_7  and  C_8
REMARK    9  A    between atoms: C_18  and  C_19
REMARK   10  A    between atoms: C_19  and  C_20
REMARK   11  A    between atoms: C_20  and  N_21
REMARK   12  A    between atoms: N_21  and  C_22
REMARK   13  A    between atoms: C_22  and  C_23
REMARK                            x       y       z     vdW  Elec       q    Type
REMARK                         _______ _______ _______ _____ _____    ______ ____
ROOT
ATOM      1  C   UNL     1      -1.554  12.638  21.252  0.00  0.00    +0.000 C 
ATOM      2  N   UNL     1      -2.234  12.051  22.423  0.00  0.00    +0.000 NA
ENDROOT
BRANCH   2   3
ATOM      3  C   UNL     1      -1.252  11.256  23.195  0.00  0.00    +0.000 C 
BRANCH   3   4
ATOM      4  C   UNL     1      -0.713  10.041  22.410  0.00  0.00    +0.000 C 
BRANCH   4   5
ATOM      5  C   UNL     1       0.487   9.351  23.105  0.00  0.00    +0.000 C 
BRANCH   5   6
ATOM      6  N   UNL     1       1.645   9.129  22.217  0.00  0.00    +0.000 NA
ATOM      7  H   UNL     1       2.162   8.264  22.495  0.00  0.00    +0.000 HD
BRANCH   6   8
ATOM      8  C   UNL     1       1.243   9.073  20.806  0.00  0.00    +0.000 C 
BRANCH   8   9
ATOM      9  C   UNL     1       1.627   7.774  20.169  0.00  0.00    +0.000 A 
ATOM     10  C   UNL     1       2.226   7.775  18.899  0.00  0.00    +0.000 A 
ATOM     11  C   UNL     1       2.642   6.585  18.310  0.00  0.00    +0.000 A 
ATOM     12  C   UNL     1       2.469   5.371  18.986  0.00  0.00    +0.000 A 
ATOM     13  C   UNL     1       2.912   4.171  18.418  0.00  0.00    +0.000 A 
ATOM     14  C   UNL     1       2.743   2.968  19.107  0.00  0.00    +0.000 A 
ATOM     15  C   UNL     1       2.125   2.953  20.361  0.00  0.00    +0.000 A 
ATOM     16  C   UNL     1       1.675   4.144  20.937  0.00  0.00    +0.000 A 
ATOM     17  C   UNL     1       1.847   5.360  20.262  0.00  0.00    +0.000 A 
ATOM     18  C   UNL     1       1.427   6.563  20.842  0.00  0.00    +0.000 A 
ENDBRANCH   8   9
ENDBRANCH   6   8
ENDBRANCH   5   6
ENDBRANCH   4   5
ENDBRANCH   3   4
ENDBRANCH   2   3
BRANCH   2  19
ATOM     19  C   UNL     1      -2.855  13.099  23.275  0.00  0.00    +0.000 C 
BRANCH  19  20
ATOM     20  C   UNL     1      -4.240  12.710  23.792  0.00  0.00    +0.000 C 
BRANCH  20  21
ATOM     21  C   UNL     1      -5.344  13.258  22.886  0.00  0.00    +0.000 C 
BRANCH  21  22
ATOM     22  N   UNL     1      -5.514  12.362  21.747  0.00  0.00    +0.000 NA
ATOM     23  H   UNL     1      -6.158  11.582  22.029  0.00  0.00    +0.000 HD
BRANCH  22  24
ATOM     24  C   UNL     1      -6.114  13.069  20.612  0.00  0.00    +0.000 C 
BRANCH  24  25
ATOM     25  C   UNL     1      -5.512  12.539  19.348  0.00  0.00    +0.000 A 
ATOM     26  C   UNL     1      -6.139  12.752  18.112  0.00  0.00    +0.000 A 
ATOM     27  C   UNL     1      -5.579  12.247  16.940  0.00  0.00    +0.000 A 
ATOM     28  C   UNL     1      -4.380  11.522  16.987  0.00  0.00    +0.000 A 
ATOM     29  C   UNL     1      -3.804  11.015  15.814  0.00  0.00    +0.000 A 
ATOM     30  C   UNL     1      -2.607  10.293  15.875  0.00  0.00    +0.000 A 
ATOM     31  C   UNL     1      -1.982  10.071  17.104  0.00  0.00    +0.000 A 
ATOM     32  C   UNL     1      -2.544  10.571  18.281  0.00  0.00    +0.000 A 
ATOM     33  C   UNL     1      -3.742  11.300  18.232  0.00  0.00    +0.000 A 
ATOM     34  C   UNL     1      -4.312  11.813  19.404  0.00  0.00    +0.000 A 
ENDBRANCH  24  25
ENDBRANCH  22  24
ENDBRANCH  21  22
ENDBRANCH  20  21
ENDBRANCH  19  20
ENDBRANCH   2  19
TORSDOF 12
ENDMDL
MODEL 5
REMARK VINA RESULT:      -6.8      2.495      3.427
REMARK  Name = 
REMARK  13 active torsions:
REMARK  status: ('A' for Active; 'I' for Inactive)
REMARK    1  A    between atoms: C_1  and  N_2
REMARK    2  A    between atoms: N_2  and  C_3
REMARK    3  A    between atoms: N_2  and  C_18
REMARK    4  A    between atoms: C_3  and  C_4
REMARK    5  A    between atoms: C_4  and  C_5
REMARK    6  A    between atoms: C_5  and  N_6
REMARK    7  A    between atoms: N_6  and  C_7
REMARK    8  A    between atoms: C_7  and  C_8
REMARK    9  A    between atoms: C_18  and  C_19
REMARK   10  A    between atoms: C_19  and  C_20
REMARK   11  A    between atoms: C_20  and  N_21
REMARK   12  A    between atoms: N_21  and  C_22
REMARK   13  A    between atoms: C_22  and  C_23
REMARK                            x       y       z     vdW  Elec       q    Type
REMARK                         _______ _______ _______ _____ _____    ______ ____
ROOT
ATOM      1  C   UNL     1       2.296   6.252  18.949  0.00  0.00    +0.000 C 
ATOM      2  N   UNL     1       2.215   6.252  20.423  0.00  0.00    +0.000 NA
ENDROOT
BRANCH   2   3
ATOM      3  C   UNL     1       1.100   7.133  20.838  0.00  0.00    +0.000 C 
BRANCH   3   4
ATOM      4  C   UNL     1       1.544   8.592  21.077  0.00  0.00    +0.000 C 
BRANCH   4   5
ATOM      5  C   UNL     1       1.205   9.533  19.894  0.00  0.00    +0.000 C 
BRANCH   5   6
ATOM      6  N   UNL     1       0.848  10.905  20.305  0.00  0.00    +0.000 NA
ATOM      7  H   UNL     1       1.578  11.584  19.995  0.00  0.00    +0.000 HD
BRANCH   6   8
ATOM      8  C   UNL     1      -0.478  11.291  19.806  0.00  0.00    +0.000 C 
BRANCH   8   9
ATOM      9  C   UNL     1      -1.400  11.680  20.919  0.00  0.00    +0.000 A 
ATOM     10  C   UNL     1      -1.139  11.235  22.224  0.00  0.00    +0.000 A 
ATOM     11  C   UNL     1      -1.949  11.629  23.284  0.00  0.00    +0.000 A 
ATOM     12  C   UNL     1      -3.037  12.482  23.055  0.00  0.00    +0.000 A 
ATOM     13  C   UNL     1      -3.841  12.910  24.117  0.00  0.00    +0.000 A 
ATOM     14  C   UNL     1      -4.916  13.769  23.878  0.00  0.00    +0.000 A 
ATOM     15  C   UNL     1      -5.200  14.198  22.578  0.00  0.00    +0.000 A 
ATOM     16  C   UNL     1      -4.406  13.774  21.508  0.00  0.00    +0.000 A 
ATOM     17  C   UNL     1      -3.319  12.921  21.736  0.00  0.00    +0.000 A 
ATOM     18  C   UNL     1      -2.500  12.513  20.675  0.00  0.00    +0.000 A 
ENDBRANCH   8   9
ENDBRANCH   6   8
ENDBRANCH   5   6
ENDBRANCH   4   5
ENDBRANCH   3   4
ENDBRANCH   2   3
BRANCH   2  19
ATOM     19  C   UNL     1       2.034   4.878  20.958  0.00  0.00    +0.000 C 
BRANCH  19  20
ATOM     20  C   UNL     1       0.936   4.093  20.240  0.00  0.00    +0.000 C 
BRANCH  20  21
ATOM     21  C   UNL     1       1.287   2.607  20.146  0.00  0.00    +0.000 C 
BRANCH  21  22
ATOM     22  N   UNL     1       1.865   2.337  18.834  0.00  0.00    +0.000 NA
ATOM     23  H   UNL     1       1.775   3.202  18.245  0.00  0.00    +0.000 HD
BRANCH  22  24
ATOM     24  C   UNL     1       3.287   2.003  18.949  0.00  0.00    +0.000 C 
BRANCH  24  25
ATOM     25  C   UNL     1       4.087   3.108  18.331  0.00  0.00    +0.000 A 
ATOM     26  C   UNL     1       3.850   3.510  17.009  0.00  0.00    +0.000 A 
ATOM     27  C   UNL     1       4.606   4.531  16.435  0.00  0.00    +0.000 A 
ATOM     28  C   UNL     1       5.610   5.168  17.179  0.00  0.00    +0.000 A 
ATOM     29  C   UNL     1       6.372   6.200  16.615  0.00  0.00    +0.000 A 
ATOM     30  C   UNL     1       7.371   6.827  17.368  0.00  0.00    +0.000 A 
ATOM     31  C   UNL     1       7.617   6.425  18.683  0.00  0.00    +0.000 A 
ATOM     32  C   UNL     1       6.865   5.398  19.258  0.00  0.00    +0.000 A 
ATOM     33  C   UNL     1       5.858   4.765  18.514  0.00  0.00    +0.000 A 
ATOM     34  C   UNL     1       5.091   3.738  19.082  0.00  0.00    +0.000 A 
ENDBRANCH  24  25
ENDBRANCH  22  24
ENDBRANCH  21  22
ENDBRANCH  20  21
ENDBRANCH  19  20
ENDBRANCH   2  19
TORSDOF 12
ENDMDL
MODEL 6
REMARK VINA RESULT:      -6.7      2.524      5.061
REMARK  Name = 
REMARK  13 active torsions:
REMARK  status: ('A' for Active; 'I' for Inactive)
REMARK    1  A    between atoms: C_1  and  N_2
REMARK    2  A    between atoms: N_2  and  C_3
REMARK    3  A    between atoms: N_2  and  C_18
REMARK    4  A    between atoms: C_3  and  C_4
REMARK    5  A    between atoms: C_4  and  C_5
REMARK    6  A    between atoms: C_5  and  N_6
REMARK    7  A    between atoms: N_6  and  C_7
REMARK    8  A    between atoms: C_7  and  C_8
REMARK    9  A    between atoms: C_18  and  C_19
REMARK   10  A    between atoms: C_19  and  C_20
REMARK   11  A    between atoms: C_20  and  N_21
REMARK   12  A    between atoms: N_21  and  C_22
REMARK   13  A    between atoms: C_22  and  C_23
REMARK                            x       y       z     vdW  Elec       q    Type
REMARK                         _______ _______ _______ _____ _____    ______ ____
ROOT
ATOM      1  C   UNL     1       5.152   6.630  15.627  0.00  0.00    +0.000 C 
ATOM      2  N   UNL     1       5.519   7.500  16.761  0.00  0.00    +0.000 NA
ENDROOT
BRANCH   2   3
ATOM      3  C   UNL     1       4.639   7.183  17.908  0.00  0.00    +0.000 C 
BRANCH   3   4
ATOM      4  C   UNL     1       3.150   7.092  17.516  0.00  0.00    +0.000 C 
BRANCH   4   5
ATOM      5  C   UNL     1       2.248   6.571  18.662  0.00  0.00    +0.000 C 
BRANCH   5   6
ATOM      6  N   UNL     1       2.675   7.008  20.005  0.00  0.00    +0.000 NA
ATOM      7  H   UNL     1       3.195   7.913  19.950  0.00  0.00    +0.000 HD
BRANCH   6   8
ATOM      8  C   UNL     1       1.538   7.109  20.929  0.00  0.00    +0.000 C 
BRANCH   8   9
ATOM      9  C   UNL     1       0.952   8.485  20.942  0.00  0.00    +0.000 A 
ATOM     10  C   UNL     1       1.094   9.311  19.815  0.00  0.00    +0.000 A 
ATOM     11  C   UNL     1       0.510  10.573  19.783  0.00  0.00    +0.000 A 
ATOM     12  C   UNL     1      -0.232  11.031  20.879  0.00  0.00    +0.000 A 
ATOM     13  C   UNL     1      -0.850  12.285  20.845  0.00  0.00    +0.000 A 
ATOM     14  C   UNL     1      -1.597  12.726  21.940  0.00  0.00    +0.000 A 
ATOM     15  C   UNL     1      -1.723  11.923  23.078  0.00  0.00    +0.000 A 
ATOM     16  C   UNL     1      -1.108  10.669  23.124  0.00  0.00    +0.000 A 
ATOM     17  C   UNL     1      -0.364  10.210  22.029  0.00  0.00    +0.000 A 
ATOM     18  C   UNL     1       0.233   8.943  22.053  0.00  0.00    +0.000 A 
ENDBRANCH   8   9
ENDBRANCH   6   8
ENDBRANCH   5   6
ENDBRANCH   4   5
ENDBRANCH   3   4
ENDBRANCH   2   3
BRANCH   2  19
ATOM     19  C   UNL     1       6.950   7.339  17.129  0.00  0.00    +0.000 C 
BRANCH  19  20
ATOM     20  C   UNL     1       7.168   6.360  18.282  0.00  0.00    +0.000 C 
BRANCH  20  21
ATOM     21  C   UNL     1       7.770   5.044  17.785  0.00  0.00    +0.000 C 
BRANCH  21  22
ATOM     22  N   UNL     1       6.863   3.950  18.118  0.00  0.00    +0.000 NA
ATOM     23  H   UNL     1       6.357   4.195  19.006  0.00  0.00    +0.000 HD
BRANCH  22  24
ATOM     24  C   UNL     1       5.868   3.757  17.059  0.00  0.00    +0.000 C 
BRANCH  24  25
ATOM     25  C   UNL     1       4.533   3.525  17.696  0.00  0.00    +0.000 A 
ATOM     26  C   UNL     1       3.376   3.415  16.912  0.00  0.00    +0.000 A 
ATOM     27  C   UNL     1       2.134   3.210  17.512  0.00  0.00    +0.000 A 
ATOM     28  C   UNL     1       2.033   3.109  18.907  0.00  0.00    +0.000 A 
ATOM     29  C   UNL     1       0.791   2.897  19.520  0.00  0.00    +0.000 A 
ATOM     30  C   UNL     1       0.703   2.799  20.913  0.00  0.00    +0.000 A 
ATOM     31  C   UNL     1       1.852   2.915  21.699  0.00  0.00    +0.000 A 
ATOM     32  C   UNL     1       3.097   3.126  21.102  0.00  0.00    +0.000 A 
ATOM     33  C   UNL     1       3.197   3.222  19.706  0.00  0.00    +0.000 A 
ATOM     34  C   UNL     1       4.441   3.427  19.093  0.00  0.00    +0.000 A 
ENDBRANCH  24  25
ENDBRANCH  22  24
ENDBRANCH  21  22
ENDBRANCH  20  21
ENDBRANCH  19  20
ENDBRANCH   2  19
TORSDOF 12
ENDMDL
MODEL 7
REMARK VINA RESULT:      -6.7      2.973      4.061
REMARK  Name = 
REMARK  13 active torsions:
REMARK  status: ('A' for Active; 'I' for Inactive)
REMARK    1  A    between atoms: C_1  and  N_2
REMARK    2  A    between atoms: N_2  and  C_3
REMARK    3  A    between atoms: N_2  and  C_18
REMARK    4  A    between atoms: C_3  and  C_4
REMARK    5  A    between atoms: C_4  and  C_5
REMARK    6  A    between atoms: C_5  and  N_6
REMARK    7  A    between atoms: N_6  and  C_7
REMARK    8  A    between atoms: C_7  and  C_8
REMARK    9  A    between atoms: C_18  and  C_19
REMARK   10  A    between atoms: C_19  and  C_20
REMARK   11  A    between atoms: C_20  and  N_21
REMARK   12  A    between atoms: N_21  and  C_22
REMARK   13  A    between atoms: C_22  and  C_23
REMARK                            x       y       z     vdW  Elec       q    Type
REMARK                         _______ _______ _______ _____ _____    ______ ____
ROOT
ATOM      1  C   UNL     1       2.546   6.640  18.355  0.00  0.00    +0.000 C 
ATOM      2  N   UNL     1       2.519   6.846  19.816  0.00  0.00    +0.000 NA
ENDROOT
BRANCH   2   3
ATOM      3  C   UNL     1       1.776   8.093  20.108  0.00  0.00    +0.000 C 
BRANCH   3   4
ATOM      4  C   UNL     1       0.965   8.017  21.418  0.00  0.00    +0.000 C 
BRANCH   4   5
ATOM      5  C   UNL     1       0.916   9.362  22.184  0.00  0.00    +0.000 C 
BRANCH   5   6
ATOM      6  N   UNL     1       1.297  10.530  21.367  0.00  0.00    +0.000 NA
ATOM      7  H   UNL     1       1.991  10.257  20.635  0.00  0.00    +0.000 HD
BRANCH   6   8
ATOM      8  C   UNL     1       0.123  11.176  20.766  0.00  0.00    +0.000 C 
BRANCH   8   9
ATOM      9  C   UNL     1      -0.518  12.149  21.705  0.00  0.00    +0.000 A 
ATOM     10  C   UNL     1       0.064  13.412  21.899  0.00  0.00    +0.000 A 
ATOM     11  C   UNL     1      -0.544  14.353  22.724  0.00  0.00    +0.000 A 
ATOM     12  C   UNL     1      -1.750  14.047  23.367  0.00  0.00    +0.000 A 
ATOM     13  C   UNL     1      -2.386  14.996  24.174  0.00  0.00    +0.000 A 
ATOM     14  C   UNL     1      -3.595  14.683  24.802  0.00  0.00    +0.000 A 
ATOM     15  C   UNL     1      -4.169  13.419  24.635  0.00  0.00    +0.000 A 
ATOM     16  C   UNL     1      -3.541  12.461  23.834  0.00  0.00    +0.000 A 
ATOM     17  C   UNL     1      -2.334  12.766  23.191  0.00  0.00    +0.000 A 
ATOM     18  C   UNL     1      -1.711  11.824  22.363  0.00  0.00    +0.000 A 
ENDBRANCH   8   9
ENDBRANCH   6   8
ENDBRANCH   5   6
ENDBRANCH   4   5
ENDBRANCH   3   4
ENDBRANCH   2   3
BRANCH   2  19
ATOM     19  C   UNL     1       1.907   5.687  20.518  0.00  0.00    +0.000 C 
BRANCH  19  20
ATOM     20  C   UNL     1       1.268   4.676  19.565  0.00  0.00    +0.000 C 
BRANCH  20  21
ATOM     21  C   UNL     1       1.407   3.249  20.096  0.00  0.00    +0.000 C 
BRANCH  21  22
ATOM     22  N   UNL     1       1.956   2.401  19.044  0.00  0.00    +0.000 NA
ATOM     23  H   UNL     1       1.860   2.903  18.126  0.00  0.00    +0.000 HD
BRANCH  22  24
ATOM     24  C   UNL     1       3.378   2.134  19.277  0.00  0.00    +0.000 C 
BRANCH  24  25
ATOM     25  C   UNL     1       4.182   3.161  18.541  0.00  0.00    +0.000 A 
ATOM     26  C   UNL     1       3.958   3.405  17.179  0.00  0.00    +0.000 A 
ATOM     27  C   UNL     1       4.718   4.354  16.497  0.00  0.00    +0.000 A 
ATOM     28  C   UNL     1       5.713   5.076  17.170  0.00  0.00    +0.000 A 
ATOM     29  C   UNL     1       6.479   6.037  16.496  0.00  0.00    +0.000 A 
ATOM     30  C   UNL     1       7.470   6.750  17.180  0.00  0.00    +0.000 A 
ATOM     31  C   UNL     1       7.704   6.506  18.536  0.00  0.00    +0.000 A 
ATOM     32  C   UNL     1       6.948   5.551  19.219  0.00  0.00    +0.000 A 
ATOM     33  C   UNL     1       5.949   4.833  18.546  0.00  0.00    +0.000 A 
ATOM     34  C   UNL     1       5.179   3.877  19.222  0.00  0.00    +0.000 A 
ENDBRANCH  24  25
ENDBRANCH  22  24
ENDBRANCH  21  22
ENDBRANCH  20  21
ENDBRANCH  19  20
ENDBRANCH   2  19
TORSDOF 12
ENDMDL
MODEL 8
REMARK VINA RESULT:      -6.7      1.736      2.771
REMARK  Name = 
REMARK  13 active torsions:
REMARK  status: ('A' for Active; 'I' for Inactive)
REMARK    1  A    between atoms: C_1  and  N_2
REMARK    2  A    between atoms: N_2  and  C_3
REMARK    3  A    between atoms: N_2  and  C_18
REMARK    4  A    between atoms: C_3  and  C_4
REMARK    5  A    between atoms: C_4  and  C_5
REMARK    6  A    between atoms: C_5  and  N_6
REMARK    7  A    between atoms: N_6  and  C_7
REMARK    8  A    between atoms: C_7  and  C_8
REMARK    9  A    between atoms: C_18  and  C_19
REMARK   10  A    between atoms: C_19  and  C_20
REMARK   11  A    between atoms: C_20  and  N_21
REMARK   12  A    between atoms: N_21  and  C_22
REMARK   13  A    between atoms: C_22  and  C_23
REMARK                            x       y       z     vdW  Elec       q    Type
REMARK                         _______ _______ _______ _____ _____    ______ ____
ROOT
ATOM      1  C   UNL     1       1.994   7.927  18.800  0.00  0.00    +0.000 C 
ATOM      2  N   UNL     1       2.351   7.242  20.057  0.00  0.00    +0.000 NA
ENDROOT
BRANCH   2   3
ATOM      3  C   UNL     1       1.378   7.628  21.103  0.00  0.00    +0.000 C 
BRANCH   3   4
ATOM      4  C   UNL     1       0.928   9.100  20.991  0.00  0.00    +0.000 C 
BRANCH   4   5
ATOM      5  C   UNL     1       0.366   9.669  22.318  0.00  0.00    +0.000 C 
BRANCH   5   6
ATOM      6  N   UNL     1      -0.008  11.095  22.246  0.00  0.00    +0.000 NA
ATOM      7  H   UNL     1       0.496  11.645  22.979  0.00  0.00    +0.000 HD
BRANCH   6   8
ATOM      8  C   UNL     1       0.234  11.652  20.909  0.00  0.00    +0.000 C 
BRANCH   8   9
ATOM      9  C   UNL     1      -0.995  11.605  20.057  0.00  0.00    +0.000 A 
ATOM     10  C   UNL     1      -2.151  12.287  20.469  0.00  0.00    +0.000 A 
ATOM     11  C   UNL     1      -3.288  12.304  19.666  0.00  0.00    +0.000 A 
ATOM     12  C   UNL     1      -3.285  11.641  18.432  0.00  0.00    +0.000 A 
ATOM     13  C   UNL     1      -4.411  11.678  17.603  0.00  0.00    +0.000 A 
ATOM     14  C   UNL     1      -4.392  11.022  16.370  0.00  0.00    +0.000 A 
ATOM     15  C   UNL     1      -3.254  10.319  15.962  0.00  0.00    +0.000 A 
ATOM     16  C   UNL     1      -2.125  10.273  16.783  0.00  0.00    +0.000 A 
ATOM     17  C   UNL     1      -2.126  10.935  18.018  0.00  0.00    +0.000 A 
ATOM     18  C   UNL     1      -0.990  10.919  18.836  0.00  0.00    +0.000 A 
ENDBRANCH   8   9
ENDBRANCH   6   8
ENDBRANCH   5   6
ENDBRANCH   4   5
ENDBRANCH   3   4
ENDBRANCH   2   3
BRANCH   2  19
ATOM     19  C   UNL     1       2.386   5.767  19.882  0.00  0.00    +0.000 C 
BRANCH  19  20
ATOM     20  C   UNL     1       1.225   5.052  20.576  0.00  0.00    +0.000 C 
BRANCH  20  21
ATOM     21  C   UNL     1       0.969   3.679  19.954  0.00  0.00    +0.000 C 
BRANCH  21  22
ATOM     22  N   UNL     1       2.118   2.817  20.212  0.00  0.00    +0.000 NA
ATOM     23  H   UNL     1       1.825   2.061  20.879  0.00  0.00    +0.000 HD
BRANCH  22  24
ATOM     24  C   UNL     1       2.584   2.185  18.975  0.00  0.00    +0.000 C 
BRANCH  24  25
ATOM     25  C   UNL     1       3.764   2.951  18.463  0.00  0.00    +0.000 A 
ATOM     26  C   UNL     1       4.731   3.450  19.347  0.00  0.00    +0.000 A 
ATOM     27  C   UNL     1       5.822   4.173  18.866  0.00  0.00    +0.000 A 
ATOM     28  C   UNL     1       5.962   4.404  17.490  0.00  0.00    +0.000 A 
ATOM     29  C   UNL     1       7.058   5.124  16.994  0.00  0.00    +0.000 A 
ATOM     30  C   UNL     1       7.186   5.348  15.619  0.00  0.00    +0.000 A 
ATOM     31  C   UNL     1       6.221   4.859  14.734  0.00  0.00    +0.000 A 
ATOM     32  C   UNL     1       5.124   4.141  15.214  0.00  0.00    +0.000 A 
ATOM     33  C   UNL     1       4.988   3.906  16.590  0.00  0.00    +0.000 A 
ATOM     34  C   UNL     1       3.896   3.180  17.085  0.00  0.00    +0.000 A 
ENDBRANCH  24  25
ENDBRANCH  22  24
ENDBRANCH  21  22
ENDBRANCH  20  21
ENDBRANCH  19  20
ENDBRANCH   2  19
TORSDOF 12
ENDMDL
MODEL 9
REMARK VINA RESULT:      -6.6      2.888     10.252
REMARK  Name = 
REMARK  13 active torsions:
REMARK  status: ('A' for Active; 'I' for Inactive)
REMARK    1  A    between atoms: C_1  and  N_2
REMARK    2  A    between atoms: N_2  and  C_3
REMARK    3  A    between atoms: N_2  and  C_18
REMARK    4  A    between atoms: C_3  and  C_4
REMARK    5  A    between atoms: C_4  and  C_5
REMARK    6  A    between atoms: C_5  and  N_6
REMARK    7  A    between atoms: N_6  and  C_7
REMARK    8  A    between atoms: C_7  and  C_8
REMARK    9  A    between atoms: C_18  and  C_19
REMARK   10  A    between atoms: C_19  and  C_20
REMARK   11  A    between atoms: C_20  and  N_21
REMARK   12  A    between atoms: N_21  and  C_22
REMARK   13  A    between atoms: C_22  and  C_23
REMARK                            x       y       z     vdW  Elec       q    Type
REMARK                         _______ _______ _______ _____ _____    ______ ____
ROOT
ATOM      1  C   UNL     1       0.014  13.265  21.873  0.00  0.00    +0.000 C 
ATOM      2  N   UNL     1       1.195  12.574  21.321  0.00  0.00    +0.000 NA
ENDROOT
BRANCH   2   3
ATOM      3  C   UNL     1       0.882  11.134  21.178  0.00  0.00    +0.000 C 
BRANCH   3   4
ATOM      4  C   UNL     1       0.024  10.589  22.339  0.00  0.00    +0.000 C 
BRANCH   4   5
ATOM      5  C   UNL     1      -0.253   9.068  22.230  0.00  0.00    +0.000 C 
BRANCH   5   6
ATOM      6  N   UNL     1       0.262   8.454  20.992  0.00  0.00    +0.000 NA
ATOM      7  H   UNL     1       0.303   9.157  20.220  0.00  0.00    +0.000 HD
BRANCH   6   8
ATOM      8  C   UNL     1       1.573   7.827  21.204  0.00  0.00    +0.000 C 
BRANCH   8   9
ATOM      9  C   UNL     1       1.826   6.721  20.228  0.00  0.00    +0.000 A 
ATOM     10  C   UNL     1       2.495   6.998  19.024  0.00  0.00    +0.000 A 
ATOM     11  C   UNL     1       2.790   5.977  18.127  0.00  0.00    +0.000 A 
ATOM     12  C   UNL     1       2.424   4.657  18.420  0.00  0.00    +0.000 A 
ATOM     13  C   UNL     1       2.743   3.618  17.540  0.00  0.00    +0.000 A 
ATOM     14  C   UNL     1       2.382   2.304  17.849  0.00  0.00    +0.000 A 
ATOM     15  C   UNL     1       1.693   2.022  19.032  0.00  0.00    +0.000 A 
ATOM     16  C   UNL     1       1.366   3.052  19.918  0.00  0.00    +0.000 A 
ATOM     17  C   UNL     1       1.731   4.373  19.625  0.00  0.00    +0.000 A 
ATOM     18  C   UNL     1       1.433   5.409  20.519  0.00  0.00    +0.000 A 
ENDBRANCH   8   9
ENDBRANCH   6   8
ENDBRANCH   5   6
ENDBRANCH   4   5
ENDBRANCH   3   4
ENDBRANCH   2   3
BRANCH   2  19
ATOM     19  C   UNL     1       1.608  13.159  20.018  0.00  0.00    +0.000 C 
BRANCH  19  20
ATOM     20  C   UNL     1       0.905  12.518  18.822  0.00  0.00    +0.000 C 
BRANCH  20  21
ATOM     21  C   UNL     1      -0.044  13.505  18.142  0.00  0.00    +0.000 C 
BRANCH  21  22
ATOM     22  N   UNL     1      -1.094  12.760  17.454  0.00  0.00    +0.000 NA
ATOM     23  H   UNL     1      -0.719  12.431  16.530  0.00  0.00    +0.000 HD
BRANCH  22  24
ATOM     24  C   UNL     1      -1.495  11.585  18.233  0.00  0.00    +0.000 C 
BRANCH  24  25
ATOM     25  C   UNL     1      -2.973  11.649  18.466  0.00  0.00    +0.000 A 
ATOM     26  C   UNL     1      -3.868  11.090  17.543  0.00  0.00    +0.000 A 
ATOM     27  C   UNL     1      -5.243  11.163  17.760  0.00  0.00    +0.000 A 
ATOM     28  C   UNL     1      -5.742  11.795  18.908  0.00  0.00    +0.000 A 
ATOM     29  C   UNL     1      -7.123  11.869  19.139  0.00  0.00    +0.000 A 
ATOM     30  C   UNL     1      -7.609  12.503  20.288  0.00  0.00    +0.000 A 
ATOM     31  C   UNL     1      -6.721  13.069  21.207  0.00  0.00    +0.000 A 
ATOM     32  C   UNL     1      -5.344  13.003  20.989  0.00  0.00    +0.000 A 
ATOM     33  C   UNL     1      -4.845  12.366  19.843  0.00  0.00    +0.000 A 
ATOM     34  C   UNL     1      -3.464  12.286  19.616  0.00  0.00    +0.000 A 
ENDBRANCH  24  25
ENDBRANCH  22  24
ENDBRANCH  21  22
ENDBRANCH  20  21
ENDBRANCH  19  20
ENDBRANCH   2  19
TORSDOF 12
ENDMDL
