MODEL 1
REMARK VINA RESULT:      -8.2      0.000      0.000
REMARK  Name = 
REMARK  6 active torsions:
REMARK  status: ('A' for Active; 'I' for Inactive)
REMARK    1  A    between atoms: C_2  and  O_3
REMARK    2  A    between atoms: C_2  and  C_4
REMARK    3  A    between atoms: C_5  and  C_6
REMARK    4  A    between atoms: N_9  and  C_10
REMARK    5  A    between atoms: C_13  and  O_14
REMARK    6  A    between atoms: C_15  and  C_16
REMARK                            x       y       z     vdW  Elec       q    Type
REMARK                         _______ _______ _______ _____ _____    ______ ____
ROOT
ATOM      1  C   UNL     1       1.339   8.677  19.577  0.00  0.00    +0.000 A 
ATOM      2  C   UNL     1       2.133   9.191  18.547  0.00  0.00    +0.000 A 
ATOM      3  C   UNL     1       2.909   8.370  17.740  0.00  0.00    +0.000 A 
ATOM      4  C   UNL     1       2.933   7.001  17.973  0.00  0.00    +0.000 A 
ATOM      5  C   UNL     1       2.202   6.416  19.018  0.00  0.00    +0.000 A 
ATOM      6  C   UNL     1       1.404   7.289  19.792  0.00  0.00    +0.000 A 
ENDROOT
BRANCH   5   7
ATOM      7  C   UNL     1       2.291   4.908  19.342  0.00  0.00    +0.000 C 
ATOM      8  C   UNL     1       1.835   4.090  18.097  0.00  0.00    +0.000 C 
ATOM      9  C   UNL     1       1.866   2.581  18.377  0.00  0.00    +0.000 C 
ATOM     10  C   UNL     1       3.303   2.162  18.708  0.00  0.00    +0.000 C 
ATOM     11  C   UNL     1       3.787   2.908  19.958  0.00  0.00    +0.000 C 
ATOM     12  C   UNL     1       2.869   2.575  21.142  0.00  0.00    +0.000 C 
ATOM     13  C   UNL     1       1.434   3.012  20.824  0.00  0.00    +0.000 C 
ATOM     14  C   UNL     1       0.945   2.273  19.568  0.00  0.00    +0.000 C 
ATOM     15  C   UNL     1       1.406   4.531  20.566  0.00  0.00    +0.000 C 
ATOM     16  C   UNL     1       3.739   4.422  19.689  0.00  0.00    +0.000 C 
ENDBRANCH   5   7
BRANCH   1  20
ATOM     17  C   UNL     1      -0.194  11.328  22.437  0.00  0.00    +0.000 C 
ATOM     18  C   UNL     1       0.506  11.807  21.150  0.00  0.00    +0.000 C 
ATOM     19  C   UNL     1       0.234  10.890  19.955  0.00  0.00    +0.000 C 
ATOM     20  N   UNL     1       0.505   9.495  20.317  0.00  0.00    +0.000 N 
ATOM     21  C   UNL     1      -0.152   8.967  21.512  0.00  0.00    +0.000 C 
ATOM     22  C   UNL     1       0.184   9.865  22.702  0.00  0.00    +0.000 C 
BRANCH  17  24
ATOM     23  C   UNL     1      -2.438  12.234  23.176  0.00  0.00    +0.000 C 
ATOM     24  C   UNL     1      -1.701  11.468  22.358  0.00  0.00    +0.000 C 
BRANCH  23  26
ATOM     25  O   UNL     1      -4.556  12.496  22.170  0.00  0.00    +0.000 OA
ATOM     26  C   UNL     1      -3.915  12.301  23.190  0.00  0.00    +0.000 C 
BRANCH  26  27
ATOM     27  O   UNL     1      -4.488  12.121  24.395  0.00  0.00    +0.000 OA
ATOM     28  H   UNL     1      -4.072  11.446  24.955  0.00  0.00    +0.000 HD
ENDBRANCH  26  27
ENDBRANCH  23  26
ENDBRANCH  17  24
ENDBRANCH   1  20
BRANCH   4  29
ATOM     29  O   UNL     1       3.702   6.223  17.148  0.00  0.00    +0.000 OA
ATOM     30  H   UNL     1       4.107   5.510  17.666  0.00  0.00    +0.000 HD
ENDBRANCH   4  29
TORSDOF 6
ENDMDL
MODEL 2
REMARK VINA RESULT:      -8.1      2.818      4.167
REMARK  Name = 
REMARK  6 active torsions:
REMARK  status: ('A' for Active; 'I' for Inactive)
REMARK    1  A    between atoms: C_2  and  O_3
REMARK    2  A    between atoms: C_2  and  C_4
REMARK    3  A    between atoms: C_5  and  C_6
REMARK    4  A    between atoms: N_9  and  C_10
REMARK    5  A    between atoms: C_13  and  O_14
REMARK    6  A    between atoms: C_15  and  C_16
REMARK                            x       y       z     vdW  Elec       q    Type
REMARK                         _______ _______ _______ _____ _____    ______ ____
ROOT
ATOM      1  C   UNL     1       1.824   7.219  20.347  0.00  0.00    +0.000 A 
ATOM      2  C   UNL     1       1.279   6.082  20.952  0.00  0.00    +0.000 A 
ATOM      3  C   UNL     1       1.784   4.810  20.712  0.00  0.00    +0.000 A 
ATOM      4  C   UNL     1       2.837   4.646  19.822  0.00  0.00    +0.000 A 
ATOM      5  C   UNL     1       3.405   5.733  19.139  0.00  0.00    +0.000 A 
ATOM      6  C   UNL     1       2.877   7.009  19.440  0.00  0.00    +0.000 A 
ENDROOT
BRANCH   5   7
ATOM      7  C   UNL     1       4.516   5.551  18.081  0.00  0.00    +0.000 C 
ATOM      8  C   UNL     1       4.779   6.915  17.376  0.00  0.00    +0.000 C 
ATOM      9  C   UNL     1       5.850   6.784  16.284  0.00  0.00    +0.000 C 
ATOM     10  C   UNL     1       7.167   6.330  16.925  0.00  0.00    +0.000 C 
ATOM     11  C   UNL     1       6.973   4.964  17.597  0.00  0.00    +0.000 C 
ATOM     12  C   UNL     1       6.531   3.934  16.549  0.00  0.00    +0.000 C 
ATOM     13  C   UNL     1       5.202   4.373  15.921  0.00  0.00    +0.000 C 
ATOM     14  C   UNL     1       5.387   5.744  15.251  0.00  0.00    +0.000 C 
ATOM     15  C   UNL     1       4.127   4.482  17.018  0.00  0.00    +0.000 C 
ATOM     16  C   UNL     1       5.887   5.086  18.680  0.00  0.00    +0.000 C 
ENDBRANCH   5   7
BRANCH   1  20
ATOM     17  C   UNL     1      -0.607  10.543  21.119  0.00  0.00    +0.000 C 
ATOM     18  C   UNL     1      -0.261   9.498  22.197  0.00  0.00    +0.000 C 
ATOM     19  C   UNL     1       1.153   8.935  22.040  0.00  0.00    +0.000 C 
ATOM     20  N   UNL     1       1.368   8.486  20.661  0.00  0.00    +0.000 N 
ATOM     21  C   UNL     1       1.087   9.440  19.589  0.00  0.00    +0.000 C 
ATOM     22  C   UNL     1      -0.349   9.941  19.732  0.00  0.00    +0.000 C 
BRANCH  17  24
ATOM     23  C   UNL     1      -0.268  12.928  21.896  0.00  0.00    +0.000 C 
ATOM     24  C   UNL     1       0.187  11.824  21.284  0.00  0.00    +0.000 C 
BRANCH  23  26
ATOM     25  O   UNL     1       1.658  14.279  22.064  0.00  0.00    +0.000 OA
ATOM     26  C   UNL     1       0.443  14.222  21.971  0.00  0.00    +0.000 C 
BRANCH  26  27
ATOM     27  O   UNL     1      -0.342  15.314  21.918  0.00  0.00    +0.000 OA
ATOM     28  H   UNL     1      -0.659  15.639  22.776  0.00  0.00    +0.000 HD
ENDBRANCH  26  27
ENDBRANCH  23  26
ENDBRANCH  17  24
ENDBRANCH   1  20
BRANCH   4  29
ATOM     29  O   UNL     1       3.316   3.378  19.621  0.00  0.00    +0.000 OA
ATOM     30  H   UNL     1       2.888   2.995  18.840  0.00  0.00    +0.000 HD
ENDBRANCH   4  29
TORSDOF 6
ENDMDL
MODEL 3
REMARK VINA RESULT:      -8.1      0.539      1.639
REMARK  Name = 
REMARK  6 active torsions:
REMARK  status: ('A' for Active; 'I' for Inactive)
REMARK    1  A    between atoms: C_2  and  O_3
REMARK    2  A    between atoms: C_2  and  C_4
REMARK    3  A    between atoms: C_5  and  C_6
REMARK    4  A    between atoms: N_9  and  C_10
REMARK    5  A    between atoms: C_13  and  O_14
REMARK    6  A    between atoms: C_15  and  C_16
REMARK                            x       y       z     vdW  Elec       q    Type
REMARK                         _______ _______ _______ _____ _____    ______ ____
ROOT
ATOM      1  C   UNL     1       1.574   8.734  19.246  0.00  0.00    +0.000 A 
ATOM      2  C   UNL     1       2.479   9.155  18.267  0.00  0.00    +0.000 A 
ATOM      3  C   UNL     1       3.261   8.254  17.556  0.00  0.00    +0.000 A 
ATOM      4  C   UNL     1       3.175   6.898  17.838  0.00  0.00    +0.000 A 
ATOM      5  C   UNL     1       2.326   6.402  18.840  0.00  0.00    +0.000 A 
ATOM      6  C   UNL     1       1.529   7.355  19.514  0.00  0.00    +0.000 A 
ENDROOT
BRANCH   5   7
ATOM      7  C   UNL     1       2.289   4.906  19.223  0.00  0.00    +0.000 C 
ATOM      8  C   UNL     1       1.334   4.713  20.438  0.00  0.00    +0.000 C 
ATOM      9  C   UNL     1       1.289   3.246  20.888  0.00  0.00    +0.000 C 
ATOM     10  C   UNL     1       0.757   2.385  19.736  0.00  0.00    +0.000 C 
ATOM     11  C   UNL     1       1.691   2.504  18.524  0.00  0.00    +0.000 C 
ATOM     12  C   UNL     1       3.098   2.031  18.911  0.00  0.00    +0.000 C 
ATOM     13  C   UNL     1       3.643   2.904  20.048  0.00  0.00    +0.000 C 
ATOM     14  C   UNL     1       2.709   2.794  21.264  0.00  0.00    +0.000 C 
ATOM     15  C   UNL     1       3.706   4.371  19.584  0.00  0.00    +0.000 C 
ATOM     16  C   UNL     1       1.753   3.976  18.081  0.00  0.00    +0.000 C 
ENDBRANCH   5   7
BRANCH   1  20
ATOM     17  C   UNL     1      -0.046  11.503  21.942  0.00  0.00    +0.000 C 
ATOM     18  C   UNL     1       0.882  11.916  20.783  0.00  0.00    +0.000 C 
ATOM     19  C   UNL     1       0.684  11.055  19.534  0.00  0.00    +0.000 C 
ATOM     20  N   UNL     1       0.740   9.633  19.885  0.00  0.00    +0.000 N 
ATOM     21  C   UNL     1      -0.139   9.168  20.958  0.00  0.00    +0.000 C 
ATOM     22  C   UNL     1       0.122  10.002  22.211  0.00  0.00    +0.000 C 
BRANCH  17  24
ATOM     23  C   UNL     1      -2.332  12.424  22.516  0.00  0.00    +0.000 C 
ATOM     24  C   UNL     1      -1.500  11.819  21.654  0.00  0.00    +0.000 C 
BRANCH  23  26
ATOM     25  O   UNL     1      -4.607  12.287  23.123  0.00  0.00    +0.000 OA
ATOM     26  C   UNL     1      -3.778  12.642  22.301  0.00  0.00    +0.000 C 
BRANCH  26  27
ATOM     27  O   UNL     1      -4.103  13.264  21.152  0.00  0.00    +0.000 OA
ATOM     28  H   UNL     1      -4.915  12.949  20.725  0.00  0.00    +0.000 HD
ENDBRANCH  26  27
ENDBRANCH  23  26
ENDBRANCH  17  24
ENDBRANCH   1  20
BRANCH   4  29
ATOM     29  O   UNL     1       3.954   6.039  17.107  0.00  0.00    +0.000 OA
ATOM     30  H   UNL     1       3.572   5.149  17.144  0.00  0.00    +0.000 HD
ENDBRANCH   4  29
TORSDOF 6
ENDMDL
MODEL 4
REMARK VINA RESULT:      -8.0      0.622      1.684
REMARK  Name = 
REMARK  6 active torsions:
REMARK  status: ('A' for Active; 'I' for Inactive)
REMARK    1  A    between atoms: C_2  and  O_3
REMARK    2  A    between atoms: C_2  and  C_4
REMARK    3  A    between atoms: C_5  and  C_6
REMARK    4  A    between atoms: N_9  and  C_10
REMARK    5  A    between atoms: C_13  and  O_14
REMARK    6  A    between atoms: C_15  and  C_16
REMARK                            x       y       z     vdW  Elec       q    Type
REMARK                         _______ _______ _______ _____ _____    ______ ____
ROOT
ATOM      1  C   UNL     1       1.624   8.737  19.166  0.00  0.00    +0.000 A 
ATOM      2  C   UNL     1       2.551   9.109  18.188  0.00  0.00    +0.000 A 
ATOM      3  C   UNL     1       3.316   8.169  17.509  0.00  0.00    +0.000 A 
ATOM      4  C   UNL     1       3.190   6.823  17.823  0.00  0.00    +0.000 A 
ATOM      5  C   UNL     1       2.317   6.376  18.827  0.00  0.00    +0.000 A 
ATOM      6  C   UNL     1       1.539   7.367  19.469  0.00  0.00    +0.000 A 
ENDROOT
BRANCH   5   7
ATOM      7  C   UNL     1       2.235   4.891  19.246  0.00  0.00    +0.000 C 
ATOM      8  C   UNL     1       3.647   4.407  19.692  0.00  0.00    +0.000 C 
ATOM      9  C   UNL     1       3.632   2.922  20.082  0.00  0.00    +0.000 C 
ATOM     10  C   UNL     1       2.678   2.725  21.266  0.00  0.00    +0.000 C 
ATOM     11  C   UNL     1       1.258   3.147  20.864  0.00  0.00    +0.000 C 
ATOM     12  C   UNL     1       0.787   2.296  19.678  0.00  0.00    +0.000 C 
ATOM     13  C   UNL     1       1.726   2.507  18.484  0.00  0.00    +0.000 C 
ATOM     14  C   UNL     1       3.152   2.093  18.882  0.00  0.00    +0.000 C 
ATOM     15  C   UNL     1       1.720   3.994  18.082  0.00  0.00    +0.000 C 
ATOM     16  C   UNL     1       1.271   4.629  20.453  0.00  0.00    +0.000 C 
ENDBRANCH   5   7
BRANCH   1  20
ATOM     17  C   UNL     1       0.043  11.602  21.783  0.00  0.00    +0.000 C 
ATOM     18  C   UNL     1       1.009  11.965  20.639  0.00  0.00    +0.000 C 
ATOM     19  C   UNL     1       0.808  11.091  19.399  0.00  0.00    +0.000 C 
ATOM     20  N   UNL     1       0.808   9.673  19.774  0.00  0.00    +0.000 N 
ATOM     21  C   UNL     1      -0.108   9.256  20.834  0.00  0.00    +0.000 C 
ATOM     22  C   UNL     1       0.154  10.101  22.080  0.00  0.00    +0.000 C 
BRANCH  17  24
ATOM     23  C   UNL     1      -2.315  12.308  22.371  0.00  0.00    +0.000 C 
ATOM     24  C   UNL     1      -1.393  11.963  21.460  0.00  0.00    +0.000 C 
BRANCH  23  26
ATOM     25  O   UNL     1      -4.598  12.413  22.954  0.00  0.00    +0.000 OA
ATOM     26  C   UNL     1      -3.746  12.555  22.093  0.00  0.00    +0.000 C 
BRANCH  26  27
ATOM     27  O   UNL     1      -4.028  12.952  20.838  0.00  0.00    +0.000 OA
ATOM     28  H   UNL     1      -4.451  13.822  20.764  0.00  0.00    +0.000 HD
ENDBRANCH  26  27
ENDBRANCH  23  26
ENDBRANCH  17  24
ENDBRANCH   1  20
BRANCH   4  29
ATOM     29  O   UNL     1       3.953   5.926  17.122  0.00  0.00    +0.000 OA
ATOM     30  H   UNL     1       4.561   6.408  16.541  0.00  0.00    +0.000 HD
ENDBRANCH   4  29
TORSDOF 6
ENDMDL
MODEL 5
REMARK VINA RESULT:      -8.0      2.863      4.352
REMARK  Name = 
REMARK  6 active torsions:
REMARK  status: ('A' for Active; 'I' for Inactive)
REMARK    1  A    between atoms: C_2  and  O_3
REMARK    2  A    between atoms: C_2  and  C_4
REMARK    3  A    between atoms: C_5  and  C_6
REMARK    4  A    between atoms: N_9  and  C_10
REMARK    5  A    between atoms: C_13  and  O_14
REMARK    6  A    between atoms: C_15  and  C_16
REMARK                            x       y       z     vdW  Elec       q    Type
REMARK                         _______ _______ _______ _____ _____    ______ ____
ROOT
ATOM      1  C   UNL     1       1.807   7.214  20.326  0.00  0.00    +0.000 A 
ATOM      2  C   UNL     1       1.254   6.061  20.891  0.00  0.00    +0.000 A 
ATOM      3  C   UNL     1       1.746   4.794  20.603  0.00  0.00    +0.000 A 
ATOM      4  C   UNL     1       2.795   4.653  19.703  0.00  0.00    +0.000 A 
ATOM      5  C   UNL     1       3.370   5.758  19.057  0.00  0.00    +0.000 A 
ATOM      6  C   UNL     1       2.854   7.028  19.407  0.00  0.00    +0.000 A 
ENDROOT
BRANCH   5   7
ATOM      7  C   UNL     1       4.475   5.605  17.988  0.00  0.00    +0.000 C 
ATOM      8  C   UNL     1       5.839   5.355  18.697  0.00  0.00    +0.000 C 
ATOM      9  C   UNL     1       6.984   5.234  17.681  0.00  0.00    +0.000 C 
ATOM     10  C   UNL     1       6.712   4.039  16.759  0.00  0.00    +0.000 C 
ATOM     11  C   UNL     1       5.395   4.257  16.001  0.00  0.00    +0.000 C 
ATOM     12  C   UNL     1       5.492   5.540  15.164  0.00  0.00    +0.000 C 
ATOM     13  C   UNL     1       5.743   6.741  16.084  0.00  0.00    +0.000 C 
ATOM     14  C   UNL     1       7.057   6.526  16.852  0.00  0.00    +0.000 C 
ATOM     15  C   UNL     1       4.580   6.870  17.087  0.00  0.00    +0.000 C 
ATOM     16  C   UNL     1       4.248   4.398  17.016  0.00  0.00    +0.000 C 
ENDBRANCH   5   7
BRANCH   1  20
ATOM     17  C   UNL     1      -0.590  10.526  21.242  0.00  0.00    +0.000 C 
ATOM     18  C   UNL     1      -0.235   9.444  22.280  0.00  0.00    +0.000 C 
ATOM     19  C   UNL     1       1.173   8.878  22.083  0.00  0.00    +0.000 C 
ATOM     20  N   UNL     1       1.364   8.473  20.687  0.00  0.00    +0.000 N 
ATOM     21  C   UNL     1       1.074   9.463  19.651  0.00  0.00    +0.000 C 
ATOM     22  C   UNL     1      -0.357   9.967  19.832  0.00  0.00    +0.000 C 
BRANCH  17  24
ATOM     23  C   UNL     1      -0.160  13.008  21.000  0.00  0.00    +0.000 C 
ATOM     24  C   UNL     1       0.214  11.796  21.436  0.00  0.00    +0.000 C 
BRANCH  23  26
ATOM     25  O   UNL     1       0.770  14.992  20.128  0.00  0.00    +0.000 OA
ATOM     26  C   UNL     1       0.657  14.238  21.079  0.00  0.00    +0.000 C 
BRANCH  26  27
ATOM     27  O   UNL     1       1.248  14.461  22.268  0.00  0.00    +0.000 OA
ATOM     28  H   UNL     1       2.198  14.654  22.230  0.00  0.00    +0.000 HD
ENDBRANCH  26  27
ENDBRANCH  23  26
ENDBRANCH  17  24
ENDBRANCH   1  20
BRANCH   4  29
ATOM     29  O   UNL     1       3.260   3.388  19.453  0.00  0.00    +0.000 OA
ATOM     30  H   UNL     1       3.414   2.932  20.295  0.00  0.00    +0.000 HD
ENDBRANCH   4  29
TORSDOF 6
ENDMDL
MODEL 6
REMARK VINA RESULT:      -8.0      1.275      2.091
REMARK  Name = 
REMARK  6 active torsions:
REMARK  status: ('A' for Active; 'I' for Inactive)
REMARK    1  A    between atoms: C_2  and  O_3
REMARK    2  A    between atoms: C_2  and  C_4
REMARK    3  A    between atoms: C_5  and  C_6
REMARK    4  A    between atoms: N_9  and  C_10
REMARK    5  A    between atoms: C_13  and  O_14
REMARK    6  A    between atoms: C_15  and  C_16
REMARK                            x       y       z     vdW  Elec       q    Type
REMARK                         _______ _______ _______ _____ _____    ______ ____
ROOT
ATOM      1  C   UNL     1       1.951   8.392  18.755  0.00  0.00    +0.000 A 
ATOM      2  C   UNL     1       2.934   8.762  17.833  0.00  0.00    +0.000 A 
ATOM      3  C   UNL     1       3.747   7.824  17.211  0.00  0.00    +0.000 A 
ATOM      4  C   UNL     1       3.613   6.479  17.530  0.00  0.00    +0.000 A 
ATOM      5  C   UNL     1       2.683   6.034  18.482  0.00  0.00    +0.000 A 
ATOM      6  C   UNL     1       1.858   7.024  19.065  0.00  0.00    +0.000 A 
ENDROOT
BRANCH   5   7
ATOM      7  C   UNL     1       2.587   4.552  18.910  0.00  0.00    +0.000 C 
ATOM      8  C   UNL     1       1.478   4.405  19.994  0.00  0.00    +0.000 C 
ATOM      9  C   UNL     1       1.366   2.955  20.487  0.00  0.00    +0.000 C 
ATOM     10  C   UNL     1       0.986   2.053  19.306  0.00  0.00    +0.000 C 
ATOM     11  C   UNL     1       2.073   2.128  18.225  0.00  0.00    +0.000 C 
ATOM     12  C   UNL     1       3.413   1.667  18.812  0.00  0.00    +0.000 C 
ATOM     13  C   UNL     1       3.808   2.581  19.980  0.00  0.00    +0.000 C 
ATOM     14  C   UNL     1       2.721   2.515  21.064  0.00  0.00    +0.000 C 
ATOM     15  C   UNL     1       3.941   4.030  19.475  0.00  0.00    +0.000 C 
ATOM     16  C   UNL     1       2.202   3.582  17.742  0.00  0.00    +0.000 C 
ENDBRANCH   5   7
BRANCH   1  20
ATOM     17  C   UNL     1       0.346  11.597  20.924  0.00  0.00    +0.000 C 
ATOM     18  C   UNL     1       0.979  11.771  19.530  0.00  0.00    +0.000 C 
ATOM     19  C   UNL     1       0.728  10.571  18.615  0.00  0.00    +0.000 C 
ATOM     20  N   UNL     1       1.091   9.327  19.302  0.00  0.00    +0.000 N 
ATOM     21  C   UNL     1       0.501   9.085  20.617  0.00  0.00    +0.000 C 
ATOM     22  C   UNL     1       0.817  10.269  21.530  0.00  0.00    +0.000 C 
BRANCH  17  24
ATOM     23  C   UNL     1      -1.887  12.629  20.329  0.00  0.00    +0.000 C 
ATOM     24  C   UNL     1      -1.169  11.637  20.876  0.00  0.00    +0.000 C 
BRANCH  23  26
ATOM     25  O   UNL     1      -3.961  12.902  21.419  0.00  0.00    +0.000 OA
ATOM     26  C   UNL     1      -3.361  12.744  20.369  0.00  0.00    +0.000 C 
BRANCH  26  27
ATOM     27  O   UNL     1      -3.977  12.673  19.174  0.00  0.00    +0.000 OA
ATOM     28  H   UNL     1      -4.094  13.520  18.717  0.00  0.00    +0.000 HD
ENDBRANCH  26  27
ENDBRANCH  23  26
ENDBRANCH  17  24
ENDBRANCH   1  20
BRANCH   4  29
ATOM     29  O   UNL     1       4.425   5.582  16.887  0.00  0.00    +0.000 OA
ATOM     30  H   UNL     1       4.710   5.959  16.040  0.00  0.00    +0.000 HD
ENDBRANCH   4  29
TORSDOF 6
ENDMDL
MODEL 7
REMARK VINA RESULT:      -8.0      0.827      1.175
REMARK  Name = 
REMARK  6 active torsions:
REMARK  status: ('A' for Active; 'I' for Inactive)
REMARK    1  A    between atoms: C_2  and  O_3
REMARK    2  A    between atoms: C_2  and  C_4
REMARK    3  A    between atoms: C_5  and  C_6
REMARK    4  A    between atoms: N_9  and  C_10
REMARK    5  A    between atoms: C_13  and  O_14
REMARK    6  A    between atoms: C_15  and  C_16
REMARK                            x       y       z     vdW  Elec       q    Type
REMARK                         _______ _______ _______ _____ _____    ______ ____
ROOT
ATOM      1  C   UNL     1       1.477   8.816  19.158  0.00  0.00    +0.000 A 
ATOM      2  C   UNL     1       2.405   9.243  18.204  0.00  0.00    +0.000 A 
ATOM      3  C   UNL     1       3.235   8.350  17.538  0.00  0.00    +0.000 A 
ATOM      4  C   UNL     1       3.175   6.997  17.844  0.00  0.00    +0.000 A 
ATOM      5  C   UNL     1       2.305   6.498  18.825  0.00  0.00    +0.000 A 
ATOM      6  C   UNL     1       1.459   7.441  19.453  0.00  0.00    +0.000 A 
ENDROOT
BRANCH   5   7
ATOM      7  C   UNL     1       2.294   5.008  19.236  0.00  0.00    +0.000 C 
ATOM      8  C   UNL     1       1.788   4.151  18.038  0.00  0.00    +0.000 C 
ATOM      9  C   UNL     1       1.719   2.662  18.404  0.00  0.00    +0.000 C 
ATOM     10  C   UNL     1       3.125   2.170  18.769  0.00  0.00    +0.000 C 
ATOM     11  C   UNL     1       3.652   2.955  19.977  0.00  0.00    +0.000 C 
ATOM     12  C   UNL     1       2.711   2.751  21.172  0.00  0.00    +0.000 C 
ATOM     13  C   UNL     1       1.309   3.263  20.819  0.00  0.00    +0.000 C 
ATOM     14  C   UNL     1       0.777   2.485  19.605  0.00  0.00    +0.000 C 
ATOM     15  C   UNL     1       1.381   4.762  20.474  0.00  0.00    +0.000 C 
ATOM     16  C   UNL     1       3.706   4.450  19.621  0.00  0.00    +0.000 C 
ENDBRANCH   5   7
BRANCH   1  20
ATOM     17  C   UNL     1      -0.484  12.295  20.424  0.00  0.00    +0.000 C 
ATOM     18  C   UNL     1      -0.773  11.625  19.067  0.00  0.00    +0.000 C 
ATOM     19  C   UNL     1      -0.671  10.100  19.130  0.00  0.00    +0.000 C 
ATOM     20  N   UNL     1       0.597   9.703  19.750  0.00  0.00    +0.000 N 
ATOM     21  C   UNL     1       0.919  10.280  21.055  0.00  0.00    +0.000 C 
ATOM     22  C   UNL     1       0.870  11.804  20.951  0.00  0.00    +0.000 C 
BRANCH  17  24
ATOM     23  C   UNL     1      -2.639  12.802  21.651  0.00  0.00    +0.000 C 
ATOM     24  C   UNL     1      -1.569  12.018  21.445  0.00  0.00    +0.000 C 
BRANCH  23  26
ATOM     25  O   UNL     1      -3.358  12.701  23.895  0.00  0.00    +0.000 OA
ATOM     26  C   UNL     1      -3.649  12.612  22.714  0.00  0.00    +0.000 C 
BRANCH  26  27
ATOM     27  O   UNL     1      -4.897  12.349  22.282  0.00  0.00    +0.000 OA
ATOM     28  H   UNL     1      -5.456  13.127  22.131  0.00  0.00    +0.000 HD
ENDBRANCH  26  27
ENDBRANCH  23  26
ENDBRANCH  17  24
ENDBRANCH   1  20
BRANCH   4  29
ATOM     29  O   UNL     1       4.002   6.146  17.158  0.00  0.00    +0.000 OA
ATOM     30  H   UNL     1       4.625   6.665  16.626  0.00  0.00    +0.000 HD
ENDBRANCH   4  29
TORSDOF 6
ENDMDL
MODEL 8
REMARK VINA RESULT:      -7.9      1.161      1.506
REMARK  Name = 
REMARK  6 active torsions:
REMARK  status: ('A' for Active; 'I' for Inactive)
REMARK    1  A    between atoms: C_2  and  O_3
REMARK    2  A    between atoms: C_2  and  C_4
REMARK    3  A    between atoms: C_5  and  C_6
REMARK    4  A    between atoms: N_9  and  C_10
REMARK    5  A    between atoms: C_13  and  O_14
REMARK    6  A    between atoms: C_15  and  C_16
REMARK                            x       y       z     vdW  Elec       q    Type
REMARK                         _______ _______ _______ _____ _____    ______ ____
ROOT
ATOM      1  C   UNL     1       1.626   8.705  18.932  0.00  0.00    +0.000 A 
ATOM      2  C   UNL     1       2.598   9.070  17.995  0.00  0.00    +0.000 A 
ATOM      3  C   UNL     1       3.428   8.131  17.397  0.00  0.00    +0.000 A 
ATOM      4  C   UNL     1       3.323   6.793  17.755  0.00  0.00    +0.000 A 
ATOM      5  C   UNL     1       2.407   6.356  18.724  0.00  0.00    +0.000 A 
ATOM      6  C   UNL     1       1.564   7.345  19.282  0.00  0.00    +0.000 A 
ENDROOT
BRANCH   5   7
ATOM      7  C   UNL     1       2.344   4.886  19.194  0.00  0.00    +0.000 C 
ATOM      8  C   UNL     1       1.818   3.998  18.027  0.00  0.00    +0.000 C 
ATOM      9  C   UNL     1       1.697   2.528  18.453  0.00  0.00    +0.000 C 
ATOM     10  C   UNL     1       3.084   2.005  18.848  0.00  0.00    +0.000 C 
ATOM     11  C   UNL     1       3.629   2.821  20.029  0.00  0.00    +0.000 C 
ATOM     12  C   UNL     1       2.674   2.697  21.223  0.00  0.00    +0.000 C 
ATOM     13  C   UNL     1       1.291   3.239  20.839  0.00  0.00    +0.000 C 
ATOM     14  C   UNL     1       0.742   2.430  19.652  0.00  0.00    +0.000 C 
ATOM     15  C   UNL     1       1.415   4.720  20.434  0.00  0.00    +0.000 C 
ATOM     16  C   UNL     1       3.734   4.298  19.613  0.00  0.00    +0.000 C 
ENDBRANCH   5   7
BRANCH   1  20
ATOM     17  C   UNL     1      -0.027  11.987  20.945  0.00  0.00    +0.000 C 
ATOM     18  C   UNL     1       0.523  12.083  19.509  0.00  0.00    +0.000 C 
ATOM     19  C   UNL     1       0.287  10.806  18.701  0.00  0.00    +0.000 C 
ATOM     20  N   UNL     1       0.749   9.637  19.456  0.00  0.00    +0.000 N 
ATOM     21  C   UNL     1       0.242   9.469  20.817  0.00  0.00    +0.000 C 
ATOM     22  C   UNL     1       0.544  10.733  21.620  0.00  0.00    +0.000 C 
BRANCH  17  24
ATOM     23  C   UNL     1      -2.339  12.660  20.167  0.00  0.00    +0.000 C 
ATOM     24  C   UNL     1      -1.542  11.951  20.980  0.00  0.00    +0.000 C 
BRANCH  23  26
ATOM     25  O   UNL     1      -4.391  12.701  21.330  0.00  0.00    +0.000 OA
ATOM     26  C   UNL     1      -3.814  12.727  20.256  0.00  0.00    +0.000 C 
BRANCH  26  27
ATOM     27  O   UNL     1      -4.457  12.826  19.078  0.00  0.00    +0.000 OA
ATOM     28  H   UNL     1      -3.895  13.037  18.315  0.00  0.00    +0.000 HD
ENDBRANCH  26  27
ENDBRANCH  23  26
ENDBRANCH  17  24
ENDBRANCH   1  20
BRANCH   4  29
ATOM     29  O   UNL     1       4.152   5.895  17.134  0.00  0.00    +0.000 OA
ATOM     30  H   UNL     1       3.617   5.207  16.709  0.00  0.00    +0.000 HD
ENDBRANCH   4  29
TORSDOF 6
ENDMDL
MODEL 9
REMARK VINA RESULT:      -7.9      2.790      4.127
REMARK  Name = 
REMARK  6 active torsions:
REMARK  status: ('A' for Active; 'I' for Inactive)
REMARK    1  A    between atoms: C_2  and  O_3
REMARK    2  A    between atoms: C_2  and  C_4
REMARK    3  A    between atoms: C_5  and  C_6
REMARK    4  A    between atoms: N_9  and  C_10
REMARK    5  A    between atoms: C_13  and  O_14
REMARK    6  A    between atoms: C_15  and  C_16
REMARK                            x       y       z     vdW  Elec       q    Type
REMARK                         _______ _______ _______ _____ _____    ______ ____
ROOT
ATOM      1  C   UNL     1       1.754   7.253  20.380  0.00  0.00    +0.000 A 
ATOM      2  C   UNL     1       1.184   6.101  20.930  0.00  0.00    +0.000 A 
ATOM      3  C   UNL     1       1.671   4.832  20.642  0.00  0.00    +0.000 A 
ATOM      4  C   UNL     1       2.732   4.689  19.758  0.00  0.00    +0.000 A 
ATOM      5  C   UNL     1       3.326   5.793  19.128  0.00  0.00    +0.000 A 
ATOM      6  C   UNL     1       2.814   7.064  19.477  0.00  0.00    +0.000 A 
ENDROOT
BRANCH   5   7
ATOM      7  C   UNL     1       4.446   5.638  18.076  0.00  0.00    +0.000 C 
ATOM      8  C   UNL     1       4.002   4.595  17.007  0.00  0.00    +0.000 C 
ATOM      9  C   UNL     1       5.098   4.371  15.955  0.00  0.00    +0.000 C 
ATOM     10  C   UNL     1       5.374   5.693  15.229  0.00  0.00    +0.000 C 
ATOM     11  C   UNL     1       5.860   6.745  16.235  0.00  0.00    +0.000 C 
ATOM     12  C   UNL     1       7.145   6.253  16.912  0.00  0.00    +0.000 C 
ATOM     13  C   UNL     1       6.868   4.942  17.658  0.00  0.00    +0.000 C 
ATOM     14  C   UNL     1       6.375   3.885  16.657  0.00  0.00    +0.000 C 
ATOM     15  C   UNL     1       5.785   5.178  18.727  0.00  0.00    +0.000 C 
ATOM     16  C   UNL     1       4.772   6.960  17.302  0.00  0.00    +0.000 C 
ENDBRANCH   5   7
BRANCH   1  20
ATOM     17  C   UNL     1      -0.633  10.571  21.302  0.00  0.00    +0.000 C 
ATOM     18  C   UNL     1      -0.277   9.489  22.339  0.00  0.00    +0.000 C 
ATOM     19  C   UNL     1       1.129   8.920  22.139  0.00  0.00    +0.000 C 
ATOM     20  N   UNL     1       1.315   8.513  20.742  0.00  0.00    +0.000 N 
ATOM     21  C   UNL     1       1.024   9.503  19.707  0.00  0.00    +0.000 C 
ATOM     22  C   UNL     1      -0.405  10.011  19.892  0.00  0.00    +0.000 C 
BRANCH  17  24
ATOM     23  C   UNL     1      -0.345  13.028  21.833  0.00  0.00    +0.000 C 
ATOM     24  C   UNL     1       0.175  11.839  21.493  0.00  0.00    +0.000 C 
BRANCH  23  26
ATOM     25  O   UNL     1       1.616  14.319  22.063  0.00  0.00    +0.000 OA
ATOM     26  C   UNL     1       0.405  14.300  21.916  0.00  0.00    +0.000 C 
BRANCH  26  27
ATOM     27  O   UNL     1      -0.340  15.416  21.808  0.00  0.00    +0.000 OA
ATOM     28  H   UNL     1       0.104  16.238  22.070  0.00  0.00    +0.000 HD
ENDBRANCH  26  27
ENDBRANCH  23  26
ENDBRANCH  17  24
ENDBRANCH   1  20
BRANCH   4  29
ATOM     29  O   UNL     1       3.193   3.422  19.509  0.00  0.00    +0.000 OA
ATOM     30  H   UNL     1       2.853   3.121  18.652  0.00  0.00    +0.000 HD
ENDBRANCH   4  29
TORSDOF 6
ENDMDL
