MODEL 1
REMARK VINA RESULT:      -7.2      0.000      0.000
REMARK  Name = 
REMARK  7 active torsions:
REMARK  status: ('A' for Active; 'I' for Inactive)
REMARK    1  A    between atoms: C_1  and  C_2
REMARK    2  A    between atoms: C_5  and  N_6
REMARK    3  A    between atoms: C_7  and  C_9
REMARK    4  A    between atoms: C_13  and  C_14
REMARK    5  A    between atoms: C_14  and  C_15
REMARK    6  A    between atoms: C_14  and  C_16
REMARK    7  A    between atoms: C_14  and  C_17
REMARK                            x       y       z     vdW  Elec       q    Type
REMARK                         _______ _______ _______ _____ _____    ______ ____
ROOT
ATOM      1  N   UNL     1       2.171   7.640  19.747  0.00  0.00    +0.000 N 
ATOM      2  C   UNL     1       2.166   6.259  19.883  0.00  0.00    +0.000 C 
ATOM      3  O   UNL     1       1.457   5.613  20.649  0.00  0.00    +0.000 OA
ATOM      4  H   UNL     1       2.641   8.039  18.948  0.00  0.00    +0.000 HD
ENDROOT
BRANCH   1   9
ATOM      5  C   UNL     1      -1.113  11.201  22.834  0.00  0.00    +0.000 C 
ATOM      6  C   UNL     1      -0.232  10.288  22.034  0.00  0.00    +0.000 A 
ATOM      7  C   UNL     1       0.630   9.400  22.675  0.00  0.00    +0.000 A 
ATOM      8  C   UNL     1       1.438   8.536  21.932  0.00  0.00    +0.000 A 
ATOM      9  C   UNL     1       1.399   8.530  20.536  0.00  0.00    +0.000 A 
ATOM     10  C   UNL     1       0.560   9.444  19.890  0.00  0.00    +0.000 A 
ATOM     11  C   UNL     1      -0.256  10.310  20.635  0.00  0.00    +0.000 A 
ENDBRANCH   1   9
BRANCH   2  12
ATOM     12  C   UNL     1       3.058   5.477  18.990  0.00  0.00    +0.000 A 
ATOM     13  C   UNL     1       2.595   4.517  18.100  0.00  0.00    +0.000 A 
ATOM     14  C   UNL     1       3.526   3.942  17.255  0.00  0.00    +0.000 A 
ATOM     15  N   UNL     1       4.842   4.257  17.247  0.00  0.00    +0.000 NA
ATOM     16  C   UNL     1       5.290   5.202  18.109  0.00  0.00    +0.000 A 
ATOM     17  C   UNL     1       4.417   5.818  18.998  0.00  0.00    +0.000 A 
BRANCH  16  18
ATOM     18  C   UNL     1       6.771   5.599  18.062  0.00  0.00    +0.000 C 
ATOM     19  C   UNL     1       7.378   5.664  19.479  0.00  0.00    +0.000 C 
ATOM     20  C   UNL     1       7.578   4.563  17.250  0.00  0.00    +0.000 C 
ATOM     21  C   UNL     1       6.935   6.986  17.410  0.00  0.00    +0.000 C 
ENDBRANCH  16  18
ENDBRANCH   2  12
TORSDOF 3
ENDMDL
MODEL 2
REMARK VINA RESULT:      -7.2      0.963      1.717
REMARK  Name = 
REMARK  7 active torsions:
REMARK  status: ('A' for Active; 'I' for Inactive)
REMARK    1  A    between atoms: C_1  and  C_2
REMARK    2  A    between atoms: C_5  and  N_6
REMARK    3  A    between atoms: C_7  and  C_9
REMARK    4  A    between atoms: C_13  and  C_14
REMARK    5  A    between atoms: C_14  and  C_15
REMARK    6  A    between atoms: C_14  and  C_16
REMARK    7  A    between atoms: C_14  and  C_17
REMARK                            x       y       z     vdW  Elec       q    Type
REMARK                         _______ _______ _______ _____ _____    ______ ____
ROOT
ATOM      1  N   UNL     1       2.434   7.373  20.086  0.00  0.00    +0.000 N 
ATOM      2  C   UNL     1       2.223   6.013  20.252  0.00  0.00    +0.000 C 
ATOM      3  O   UNL     1       1.199   5.489  20.680  0.00  0.00    +0.000 OA
ATOM      4  H   UNL     1       3.229   7.670  19.537  0.00  0.00    +0.000 HD
ENDROOT
BRANCH   1   9
ATOM      5  C   UNL     1      -1.177  11.519  21.750  0.00  0.00    +0.000 C 
ATOM      6  C   UNL     1      -0.257  10.421  21.304  0.00  0.00    +0.000 A 
ATOM      7  C   UNL     1       0.060  10.270  19.956  0.00  0.00    +0.000 A 
ATOM      8  C   UNL     1       0.931   9.260  19.541  0.00  0.00    +0.000 A 
ATOM      9  C   UNL     1       1.513   8.383  20.461  0.00  0.00    +0.000 A 
ATOM     10  C   UNL     1       1.169   8.512  21.811  0.00  0.00    +0.000 A 
ATOM     11  C   UNL     1       0.297   9.529  22.230  0.00  0.00    +0.000 A 
ENDBRANCH   1   9
BRANCH   2  12
ATOM     12  C   UNL     1       3.308   5.091  19.828  0.00  0.00    +0.000 A 
ATOM     13  C   UNL     1       3.178   3.709  19.829  0.00  0.00    +0.000 A 
ATOM     14  C   UNL     1       4.230   2.978  19.308  0.00  0.00    +0.000 A 
ATOM     15  N   UNL     1       5.361   3.526  18.806  0.00  0.00    +0.000 NA
ATOM     16  C   UNL     1       5.481   4.876  18.797  0.00  0.00    +0.000 A 
ATOM     17  C   UNL     1       4.471   5.678  19.313  0.00  0.00    +0.000 A 
BRANCH  16  18
ATOM     18  C   UNL     1       6.739   5.499  18.178  0.00  0.00    +0.000 C 
ATOM     19  C   UNL     1       6.402   6.794  17.410  0.00  0.00    +0.000 C 
ATOM     20  C   UNL     1       7.760   5.855  19.280  0.00  0.00    +0.000 C 
ATOM     21  C   UNL     1       7.393   4.516  17.187  0.00  0.00    +0.000 C 
ENDBRANCH  16  18
ENDBRANCH   2  12
TORSDOF 3
ENDMDL
MODEL 3
REMARK VINA RESULT:      -7.2      5.820      7.382
REMARK  Name = 
REMARK  7 active torsions:
REMARK  status: ('A' for Active; 'I' for Inactive)
REMARK    1  A    between atoms: C_1  and  C_2
REMARK    2  A    between atoms: C_5  and  N_6
REMARK    3  A    between atoms: C_7  and  C_9
REMARK    4  A    between atoms: C_13  and  C_14
REMARK    5  A    between atoms: C_14  and  C_15
REMARK    6  A    between atoms: C_14  and  C_16
REMARK    7  A    between atoms: C_14  and  C_17
REMARK                            x       y       z     vdW  Elec       q    Type
REMARK                         _______ _______ _______ _____ _____    ______ ____
ROOT
ATOM      1  N   UNL     1       9.221   9.185  19.248  0.00  0.00    +0.000 N 
ATOM      2  C   UNL     1       8.262   8.789  18.328  0.00  0.00    +0.000 C 
ATOM      3  O   UNL     1       7.676   9.522  17.537  0.00  0.00    +0.000 OA
ATOM      4  H   UNL     1       9.777   8.470  19.696  0.00  0.00    +0.000 HD
ENDROOT
BRANCH   1   9
ATOM      5  C   UNL     1      10.921  14.567  20.312  0.00  0.00    +0.000 C 
ATOM      6  C   UNL     1      10.455  13.173  20.017  0.00  0.00    +0.000 A 
ATOM      7  C   UNL     1      10.693  12.598  18.770  0.00  0.00    +0.000 A 
ATOM      8  C   UNL     1      10.276  11.293  18.500  0.00  0.00    +0.000 A 
ATOM      9  C   UNL     1       9.621  10.527  19.468  0.00  0.00    +0.000 A 
ATOM     10  C   UNL     1       9.351  11.114  20.709  0.00  0.00    +0.000 A 
ATOM     11  C   UNL     1       9.773  12.424  20.984  0.00  0.00    +0.000 A 
ENDBRANCH   1   9
BRANCH   2  12
ATOM     12  C   UNL     1       7.943   7.341  18.246  0.00  0.00    +0.000 A 
ATOM     13  C   UNL     1       8.268   6.430  19.242  0.00  0.00    +0.000 A 
ATOM     14  C   UNL     1       7.815   5.134  19.081  0.00  0.00    +0.000 A 
ATOM     15  N   UNL     1       7.085   4.709  18.024  0.00  0.00    +0.000 NA
ATOM     16  C   UNL     1       6.760   5.603  17.057  0.00  0.00    +0.000 A 
ATOM     17  C   UNL     1       7.187   6.922  17.143  0.00  0.00    +0.000 A 
BRANCH  16  18
ATOM     18  C   UNL     1       5.886   5.135  15.887  0.00  0.00    +0.000 C 
ATOM     19  C   UNL     1       6.741   4.503  14.768  0.00  0.00    +0.000 C 
ATOM     20  C   UNL     1       4.874   4.071  16.364  0.00  0.00    +0.000 C 
ATOM     21  C   UNL     1       5.115   6.324  15.282  0.00  0.00    +0.000 C 
ENDBRANCH  16  18
ENDBRANCH   2  12
TORSDOF 3
ENDMDL
MODEL 4
REMARK VINA RESULT:      -7.1      1.031      1.075
REMARK  Name = 
REMARK  7 active torsions:
REMARK  status: ('A' for Active; 'I' for Inactive)
REMARK    1  A    between atoms: C_1  and  C_2
REMARK    2  A    between atoms: C_5  and  N_6
REMARK    3  A    between atoms: C_7  and  C_9
REMARK    4  A    between atoms: C_13  and  C_14
REMARK    5  A    between atoms: C_14  and  C_15
REMARK    6  A    between atoms: C_14  and  C_16
REMARK    7  A    between atoms: C_14  and  C_17
REMARK                            x       y       z     vdW  Elec       q    Type
REMARK                         _______ _______ _______ _____ _____    ______ ____
ROOT
ATOM      1  N   UNL     1       2.435   7.407  20.010  0.00  0.00    +0.000 N 
ATOM      2  C   UNL     1       2.240   6.053  20.237  0.00  0.00    +0.000 C 
ATOM      3  O   UNL     1       1.227   5.538  20.702  0.00  0.00    +0.000 OA
ATOM      4  H   UNL     1       3.219   7.687  19.436  0.00  0.00    +0.000 HD
ENDROOT
BRANCH   1   9
ATOM      5  C   UNL     1      -1.422  11.479  21.247  0.00  0.00    +0.000 C 
ATOM      6  C   UNL     1      -0.394  10.432  20.938  0.00  0.00    +0.000 A 
ATOM      7  C   UNL     1       0.056   9.568  21.935  0.00  0.00    +0.000 A 
ATOM      8  C   UNL     1       1.000   8.580  21.645  0.00  0.00    +0.000 A 
ATOM      9  C   UNL     1       1.510   8.424  20.354  0.00  0.00    +0.000 A 
ATOM     10  C   UNL     1       1.085   9.311  19.359  0.00  0.00    +0.000 A 
ATOM     11  C   UNL     1       0.134  10.302  19.648  0.00  0.00    +0.000 A 
ENDBRANCH   1   9
BRANCH   2  12
ATOM     12  C   UNL     1       3.327   5.123  19.837  0.00  0.00    +0.000 A 
ATOM     13  C   UNL     1       3.205   3.741  19.882  0.00  0.00    +0.000 A 
ATOM     14  C   UNL     1       4.258   3.000  19.379  0.00  0.00    +0.000 A 
ATOM     15  N   UNL     1       5.383   3.537  18.854  0.00  0.00    +0.000 NA
ATOM     16  C   UNL     1       5.496   4.887  18.801  0.00  0.00    +0.000 A 
ATOM     17  C   UNL     1       4.484   5.700  19.297  0.00  0.00    +0.000 A 
BRANCH  16  18
ATOM     18  C   UNL     1       6.748   5.496  18.155  0.00  0.00    +0.000 C 
ATOM     19  C   UNL     1       7.832   5.796  19.212  0.00  0.00    +0.000 C 
ATOM     20  C   UNL     1       7.350   4.517  17.125  0.00  0.00    +0.000 C 
ATOM     21  C   UNL     1       6.397   6.818  17.446  0.00  0.00    +0.000 C 
ENDBRANCH  16  18
ENDBRANCH   2  12
TORSDOF 3
ENDMDL
MODEL 5
REMARK VINA RESULT:      -7.0      2.566      3.817
REMARK  Name = 
REMARK  7 active torsions:
REMARK  status: ('A' for Active; 'I' for Inactive)
REMARK    1  A    between atoms: C_1  and  C_2
REMARK    2  A    between atoms: C_5  and  N_6
REMARK    3  A    between atoms: C_7  and  C_9
REMARK    4  A    between atoms: C_13  and  C_14
REMARK    5  A    between atoms: C_14  and  C_15
REMARK    6  A    between atoms: C_14  and  C_16
REMARK    7  A    between atoms: C_14  and  C_17
REMARK                            x       y       z     vdW  Elec       q    Type
REMARK                         _______ _______ _______ _____ _____    ______ ____
ROOT
ATOM      1  N   UNL     1       1.970   8.788  17.833  0.00  0.00    +0.000 N 
ATOM      2  C   UNL     1       2.264   7.793  18.753  0.00  0.00    +0.000 C 
ATOM      3  O   UNL     1       1.997   7.818  19.951  0.00  0.00    +0.000 OA
ATOM      4  H   UNL     1       2.051   8.568  16.850  0.00  0.00    +0.000 HD
ENDROOT
BRANCH   1   9
ATOM      5  C   UNL     1      -0.342  13.917  18.984  0.00  0.00    +0.000 C 
ATOM      6  C   UNL     1       0.258  12.571  18.712  0.00  0.00    +0.000 A 
ATOM      7  C   UNL     1      -0.547  11.434  18.667  0.00  0.00    +0.000 A 
ATOM      8  C   UNL     1       0.007  10.182  18.396  0.00  0.00    +0.000 A 
ATOM      9  C   UNL     1       1.375  10.034  18.154  0.00  0.00    +0.000 A 
ATOM     10  C   UNL     1       2.191  11.168  18.233  0.00  0.00    +0.000 A 
ATOM     11  C   UNL     1       1.635  12.427  18.501  0.00  0.00    +0.000 A 
ENDBRANCH   1   9
BRANCH   2  12
ATOM     12  C   UNL     1       2.914   6.557  18.248  0.00  0.00    +0.000 A 
ATOM     13  C   UNL     1       4.021   6.565  17.411  0.00  0.00    +0.000 A 
ATOM     14  C   UNL     1       4.587   5.341  17.105  0.00  0.00    +0.000 A 
ATOM     15  N   UNL     1       4.129   4.155  17.569  0.00  0.00    +0.000 NA
ATOM     16  C   UNL     1       3.054   4.150  18.395  0.00  0.00    +0.000 A 
ATOM     17  C   UNL     1       2.424   5.340  18.739  0.00  0.00    +0.000 A 
BRANCH  16  18
ATOM     18  C   UNL     1       2.569   2.811  18.964  0.00  0.00    +0.000 C 
ATOM     19  C   UNL     1       2.747   2.757  20.496  0.00  0.00    +0.000 C 
ATOM     20  C   UNL     1       1.070   2.608  18.656  0.00  0.00    +0.000 C 
ATOM     21  C   UNL     1       3.370   1.645  18.351  0.00  0.00    +0.000 C 
ENDBRANCH  16  18
ENDBRANCH   2  12
TORSDOF 3
ENDMDL
MODEL 6
REMARK VINA RESULT:      -7.0      2.579      3.756
REMARK  Name = 
REMARK  7 active torsions:
REMARK  status: ('A' for Active; 'I' for Inactive)
REMARK    1  A    between atoms: C_1  and  C_2
REMARK    2  A    between atoms: C_5  and  N_6
REMARK    3  A    between atoms: C_7  and  C_9
REMARK    4  A    between atoms: C_13  and  C_14
REMARK    5  A    between atoms: C_14  and  C_15
REMARK    6  A    between atoms: C_14  and  C_16
REMARK    7  A    between atoms: C_14  and  C_17
REMARK                            x       y       z     vdW  Elec       q    Type
REMARK                         _______ _______ _______ _____ _____    ______ ____
ROOT
ATOM      1  N   UNL     1       1.887   8.746  17.822  0.00  0.00    +0.000 N 
ATOM      2  C   UNL     1       2.268   7.792  18.755  0.00  0.00    +0.000 C 
ATOM      3  O   UNL     1       2.087   7.857  19.967  0.00  0.00    +0.000 OA
ATOM      4  H   UNL     1       1.902   8.491  16.845  0.00  0.00    +0.000 HD
ENDROOT
BRANCH   1   9
ATOM      5  C   UNL     1      -0.641  13.700  19.254  0.00  0.00    +0.000 C 
ATOM      6  C   UNL     1       0.023  12.417  18.853  0.00  0.00    +0.000 A 
ATOM      7  C   UNL     1       1.402  12.365  18.661  0.00  0.00    +0.000 A 
ATOM      8  C   UNL     1       2.025  11.167  18.306  0.00  0.00    +0.000 A 
ATOM      9  C   UNL     1       1.289   9.991  18.141  0.00  0.00    +0.000 A 
ATOM     10  C   UNL     1      -0.100  10.048  18.298  0.00  0.00    +0.000 A 
ATOM     11  C   UNL     1      -0.727  11.251  18.660  0.00  0.00    +0.000 A 
ENDBRANCH   1   9
BRANCH   2  12
ATOM     12  C   UNL     1       2.907   6.551  18.249  0.00  0.00    +0.000 A 
ATOM     13  C   UNL     1       4.012   6.550  17.409  0.00  0.00    +0.000 A 
ATOM     14  C   UNL     1       4.569   5.322  17.103  0.00  0.00    +0.000 A 
ATOM     15  N   UNL     1       4.104   4.140  17.569  0.00  0.00    +0.000 NA
ATOM     16  C   UNL     1       3.031   4.144  18.398  0.00  0.00    +0.000 A 
ATOM     17  C   UNL     1       2.411   5.338  18.743  0.00  0.00    +0.000 A 
BRANCH  16  18
ATOM     18  C   UNL     1       2.539   2.808  18.970  0.00  0.00    +0.000 C 
ATOM     19  C   UNL     1       2.706   2.761  20.503  0.00  0.00    +0.000 C 
ATOM     20  C   UNL     1       1.042   2.608  18.652  0.00  0.00    +0.000 C 
ATOM     21  C   UNL     1       3.341   1.638  18.368  0.00  0.00    +0.000 C 
ENDBRANCH  16  18
ENDBRANCH   2  12
TORSDOF 3
ENDMDL
MODEL 7
REMARK VINA RESULT:      -7.0      1.813      3.284
REMARK  Name = 
REMARK  7 active torsions:
REMARK  status: ('A' for Active; 'I' for Inactive)
REMARK    1  A    between atoms: C_1  and  C_2
REMARK    2  A    between atoms: C_5  and  N_6
REMARK    3  A    between atoms: C_7  and  C_9
REMARK    4  A    between atoms: C_13  and  C_14
REMARK    5  A    between atoms: C_14  and  C_15
REMARK    6  A    between atoms: C_14  and  C_16
REMARK    7  A    between atoms: C_14  and  C_17
REMARK                            x       y       z     vdW  Elec       q    Type
REMARK                         _______ _______ _______ _____ _____    ______ ____
ROOT
ATOM      1  N   UNL     1       1.679   7.841  20.120  0.00  0.00    +0.000 N 
ATOM      2  C   UNL     1       2.180   7.910  18.829  0.00  0.00    +0.000 C 
ATOM      3  O   UNL     1       2.123   8.885  18.085  0.00  0.00    +0.000 OA
ATOM      4  H   UNL     1       1.965   7.067  20.703  0.00  0.00    +0.000 HD
ENDROOT
BRANCH   1   9
ATOM      5  C   UNL     1      -1.143  12.031  22.852  0.00  0.00    +0.000 C 
ATOM      6  C   UNL     1      -0.432  10.929  22.126  0.00  0.00    +0.000 A 
ATOM      7  C   UNL     1      -0.183  11.029  20.759  0.00  0.00    +0.000 A 
ATOM      8  C   UNL     1       0.496  10.012  20.085  0.00  0.00    +0.000 A 
ATOM      9  C   UNL     1       0.949   8.875  20.759  0.00  0.00    +0.000 A 
ATOM     10  C   UNL     1       0.669   8.756  22.124  0.00  0.00    +0.000 A 
ATOM     11  C   UNL     1      -0.009   9.779  22.804  0.00  0.00    +0.000 A 
ENDBRANCH   1   9
BRANCH   2  12
ATOM     12  C   UNL     1       2.899   6.722  18.304  0.00  0.00    +0.000 A 
ATOM     13  C   UNL     1       4.045   6.806  17.526  0.00  0.00    +0.000 A 
ATOM     14  C   UNL     1       4.671   5.617  17.197  0.00  0.00    +0.000 A 
ATOM     15  N   UNL     1       4.235   4.396  17.584  0.00  0.00    +0.000 NA
ATOM     16  C   UNL     1       3.121   4.317  18.354  0.00  0.00    +0.000 A 
ATOM     17  C   UNL     1       2.431   5.467  18.717  0.00  0.00    +0.000 A 
BRANCH  16  18
ATOM     18  C   UNL     1       2.659   2.937  18.839  0.00  0.00    +0.000 C 
ATOM     19  C   UNL     1       3.459   1.808  18.156  0.00  0.00    +0.000 C 
ATOM     20  C   UNL     1       2.866   2.807  20.363  0.00  0.00    +0.000 C 
ATOM     21  C   UNL     1       1.167   2.726  18.516  0.00  0.00    +0.000 C 
ENDBRANCH  16  18
ENDBRANCH   2  12
TORSDOF 3
ENDMDL
MODEL 8
REMARK VINA RESULT:      -7.0      0.554      1.194
REMARK  Name = 
REMARK  7 active torsions:
REMARK  status: ('A' for Active; 'I' for Inactive)
REMARK    1  A    between atoms: C_1  and  C_2
REMARK    2  A    between atoms: C_5  and  N_6
REMARK    3  A    between atoms: C_7  and  C_9
REMARK    4  A    between atoms: C_13  and  C_14
REMARK    5  A    between atoms: C_14  and  C_15
REMARK    6  A    between atoms: C_14  and  C_16
REMARK    7  A    between atoms: C_14  and  C_17
REMARK                            x       y       z     vdW  Elec       q    Type
REMARK                         _______ _______ _______ _____ _____    ______ ____
ROOT
ATOM      1  N   UNL     1       2.170   7.563  19.486  0.00  0.00    +0.000 N 
ATOM      2  C   UNL     1       2.255   6.200  19.727  0.00  0.00    +0.000 C 
ATOM      3  O   UNL     1       1.692   5.591  20.632  0.00  0.00    +0.000 OA
ATOM      4  H   UNL     1       2.505   7.913  18.600  0.00  0.00    +0.000 HD
ENDROOT
BRANCH   1   9
ATOM      5  C   UNL     1      -0.831  11.269  22.688  0.00  0.00    +0.000 C 
ATOM      6  C   UNL     1      -0.022  10.315  21.860  0.00  0.00    +0.000 A 
ATOM      7  C   UNL     1       0.733   9.315  22.470  0.00  0.00    +0.000 A 
ATOM      8  C   UNL     1       1.472   8.415  21.700  0.00  0.00    +0.000 A 
ATOM      9  C   UNL     1       1.468   8.484  20.305  0.00  0.00    +0.000 A 
ATOM     10  C   UNL     1       0.739   9.508  19.691  0.00  0.00    +0.000 A 
ATOM     11  C   UNL     1      -0.008  10.411  20.464  0.00  0.00    +0.000 A 
ENDBRANCH   1   9
BRANCH   2  12
ATOM     12  C   UNL     1       3.056   5.382  18.781  0.00  0.00    +0.000 A 
ATOM     13  C   UNL     1       2.538   4.303  18.078  0.00  0.00    +0.000 A 
ATOM     14  C   UNL     1       3.367   3.699  17.151  0.00  0.00    +0.000 A 
ATOM     15  N   UNL     1       4.636   4.094  16.895  0.00  0.00    +0.000 NA
ATOM     16  C   UNL     1       5.136   5.155  17.575  0.00  0.00    +0.000 A 
ATOM     17  C   UNL     1       4.367   5.808  18.530  0.00  0.00    +0.000 A 
BRANCH  16  18
ATOM     18  C   UNL     1       6.554   5.638  17.245  0.00  0.00    +0.000 C 
ATOM     19  C   UNL     1       6.993   5.166  15.843  0.00  0.00    +0.000 C 
ATOM     20  C   UNL     1       6.614   7.180  17.264  0.00  0.00    +0.000 C 
ATOM     21  C   UNL     1       7.562   5.083  18.271  0.00  0.00    +0.000 C 
ENDBRANCH  16  18
ENDBRANCH   2  12
TORSDOF 3
ENDMDL
MODEL 9
REMARK VINA RESULT:      -7.0      1.869      3.251
REMARK  Name = 
REMARK  7 active torsions:
REMARK  status: ('A' for Active; 'I' for Inactive)
REMARK    1  A    between atoms: C_1  and  C_2
REMARK    2  A    between atoms: C_5  and  N_6
REMARK    3  A    between atoms: C_7  and  C_9
REMARK    4  A    between atoms: C_13  and  C_14
REMARK    5  A    between atoms: C_14  and  C_15
REMARK    6  A    between atoms: C_14  and  C_16
REMARK    7  A    between atoms: C_14  and  C_17
REMARK                            x       y       z     vdW  Elec       q    Type
REMARK                         _______ _______ _______ _____ _____    ______ ____
ROOT
ATOM      1  N   UNL     1       1.711   7.922  20.154  0.00  0.00    +0.000 N 
ATOM      2  C   UNL     1       1.999   7.879  18.798  0.00  0.00    +0.000 C 
ATOM      3  O   UNL     1       1.717   8.744  17.974  0.00  0.00    +0.000 OA
ATOM      4  H   UNL     1       2.171   7.257  20.761  0.00  0.00    +0.000 HD
ENDROOT
BRANCH   1   9
ATOM      5  C   UNL     1      -1.213  12.030  22.902  0.00  0.00    +0.000 C 
ATOM      6  C   UNL     1      -0.470  10.958  22.163  0.00  0.00    +0.000 A 
ATOM      7  C   UNL     1       0.256  11.266  21.014  0.00  0.00    +0.000 A 
ATOM      8  C   UNL     1       0.964  10.272  20.335  0.00  0.00    +0.000 A 
ATOM      9  C   UNL     1       0.972   8.950  20.789  0.00  0.00    +0.000 A 
ATOM     10  C   UNL     1       0.215   8.632  21.923  0.00  0.00    +0.000 A 
ATOM     11  C   UNL     1      -0.493   9.631  22.609  0.00  0.00    +0.000 A 
ENDBRANCH   1   9
BRANCH   2  12
ATOM     12  C   UNL     1       2.764   6.711  18.292  0.00  0.00    +0.000 A 
ATOM     13  C   UNL     1       3.926   6.827  17.541  0.00  0.00    +0.000 A 
ATOM     14  C   UNL     1       4.592   5.657  17.229  0.00  0.00    +0.000 A 
ATOM     15  N   UNL     1       4.182   4.424  17.607  0.00  0.00    +0.000 NA
ATOM     16  C   UNL     1       3.053   4.314  18.350  0.00  0.00    +0.000 A 
ATOM     17  C   UNL     1       2.323   5.444  18.695  0.00  0.00    +0.000 A 
BRANCH  16  18
ATOM     18  C   UNL     1       2.619   2.922  18.826  0.00  0.00    +0.000 C 
ATOM     19  C   UNL     1       1.109   2.700  18.601  0.00  0.00    +0.000 C 
ATOM     20  C   UNL     1       3.379   1.827  18.047  0.00  0.00    +0.000 C 
ATOM     21  C   UNL     1       2.904   2.756  20.332  0.00  0.00    +0.000 C 
ENDBRANCH  16  18
ENDBRANCH   2  12
TORSDOF 3
ENDMDL
