MODEL 1
REMARK VINA RESULT:      -8.2      0.000      0.000
REMARK  Name = 
REMARK  8 active torsions:
REMARK  status: ('A' for Active; 'I' for Inactive)
REMARK    1  A    between atoms: C_1  and  C_2
REMARK    2  A    between atoms: C_6  and  C_7
REMARK    3  A    between atoms: N_8  and  N_9
REMARK    4  A    between atoms: C_12  and  N_13
REMARK    5  A    between atoms: C_20  and  O_21
REMARK    6  A    between atoms: O_21  and  C_22
REMARK    7  A    between atoms: C_22  and  C_23
REMARK    8  A    between atoms: C_23  and  C_24
REMARK                            x       y       z     vdW  Elec       q    Type
REMARK                         _______ _______ _______ _____ _____    ______ ____
ROOT
ATOM      1  N   UNL     1       1.929   9.543  17.736  0.00  0.00    +0.000 N 
ATOM      2  C   UNL     1       2.526   8.319  18.158  0.00  0.00    +0.000 A 
ATOM      3  C   UNL     1       3.593   7.849  17.412  0.00  0.00    +0.000 A 
ATOM      4  C   UNL     1       4.140   6.627  17.749  0.00  0.00    +0.000 A 
ATOM      5  N   UNL     1       3.677   5.941  18.807  0.00  0.00    +0.000 NA
ATOM      6  C   UNL     1       2.685   6.502  19.512  0.00  0.00    +0.000 A 
ATOM      7  N   UNL     1       2.063   7.645  19.221  0.00  0.00    +0.000 NA
ATOM      8  H   UNL     1       2.600  10.299  17.860  0.00  0.00    +0.000 HD
ENDROOT
BRANCH   4   9
ATOM      9  N   UNL     1       5.155   6.072  17.008  0.00  0.00    +0.000 N 
ATOM     10  C   UNL     1       4.951   5.163  15.882  0.00  0.00    +0.000 C 
ATOM     11  C   UNL     1       5.674   3.837  16.154  0.00  0.00    +0.000 C 
ATOM     12  O   UNL     1       7.065   4.051  16.446  0.00  0.00    +0.000 OA
ATOM     13  C   UNL     1       7.216   4.899  17.601  0.00  0.00    +0.000 C 
ATOM     14  C   UNL     1       6.552   6.277  17.395  0.00  0.00    +0.000 C 
ENDBRANCH   4   9
BRANCH   1  16
ATOM     15  C   UNL     1       0.352  11.012  18.368  0.00  0.00    +0.000 C 
ATOM     16  N   UNL     1       0.664   9.769  18.187  0.00  0.00    +0.000 NA
BRANCH  15  22
ATOM     17  C   UNL     1      -4.541  11.313  17.400  0.00  0.00    +0.000 C 
ATOM     18  C   UNL     1      -3.388  11.551  18.330  0.00  0.00    +0.000 A 
ATOM     19  C   UNL     1      -3.575  12.144  19.584  0.00  0.00    +0.000 A 
ATOM     20  C   UNL     1      -2.486  12.365  20.433  0.00  0.00    +0.000 A 
ATOM     21  C   UNL     1      -1.200  11.992  20.040  0.00  0.00    +0.000 A 
ATOM     22  C   UNL     1      -1.009  11.394  18.793  0.00  0.00    +0.000 A 
ATOM     23  C   UNL     1      -2.098  11.177  17.939  0.00  0.00    +0.000 A 
ENDBRANCH  15  22
ENDBRANCH   1  16
BRANCH   6  24
ATOM     24  O   UNL     1       2.202   5.852  20.628  0.00  0.00    +0.000 OA
BRANCH  24  25
ATOM     25  C   UNL     1       0.972   5.168  20.375  0.00  0.00    +0.000 C 
BRANCH  25  26
ATOM     26  C   UNL     1       1.166   3.706  20.772  0.00  0.00    +0.000 C 
BRANCH  26  27
ATOM     27  C   UNL     1       2.051   2.967  19.805  0.00  0.00    +0.000 A 
ATOM     28  C   UNL     1       1.608   2.680  18.516  0.00  0.00    +0.000 A 
ATOM     29  C   UNL     1       2.454   1.993  17.650  0.00  0.00    +0.000 A 
ATOM     30  C   UNL     1       3.714   1.612  18.089  0.00  0.00    +0.000 A 
ATOM     31  C   UNL     1       4.080   1.941  19.383  0.00  0.00    +0.000 A 
ATOM     32  N   UNL     1       3.282   2.611  20.244  0.00  0.00    +0.000 NA
ENDBRANCH  26  27
ENDBRANCH  25  26
ENDBRANCH  24  25
ENDBRANCH   6  24
TORSDOF 7
ENDMDL
MODEL 2
REMARK VINA RESULT:      -8.1      2.437      7.440
REMARK  Name = 
REMARK  8 active torsions:
REMARK  status: ('A' for Active; 'I' for Inactive)
REMARK    1  A    between atoms: C_1  and  C_2
REMARK    2  A    between atoms: C_6  and  C_7
REMARK    3  A    between atoms: N_8  and  N_9
REMARK    4  A    between atoms: C_12  and  N_13
REMARK    5  A    between atoms: C_20  and  O_21
REMARK    6  A    between atoms: O_21  and  C_22
REMARK    7  A    between atoms: C_22  and  C_23
REMARK    8  A    between atoms: C_23  and  C_24
REMARK                            x       y       z     vdW  Elec       q    Type
REMARK                         _______ _______ _______ _____ _____    ______ ____
ROOT
ATOM      1  N   UNL     1       2.553   8.168  17.554  0.00  0.00    +0.000 N 
ATOM      2  C   UNL     1       2.073   7.920  18.874  0.00  0.00    +0.000 A 
ATOM      3  C   UNL     1       1.631   9.014  19.598  0.00  0.00    +0.000 A 
ATOM      4  C   UNL     1       1.235   8.817  20.906  0.00  0.00    +0.000 A 
ATOM      5  N   UNL     1       1.233   7.584  21.440  0.00  0.00    +0.000 NA
ATOM      6  C   UNL     1       1.614   6.575  20.645  0.00  0.00    +0.000 A 
ATOM      7  N   UNL     1       2.065   6.685  19.395  0.00  0.00    +0.000 NA
ATOM      8  H   UNL     1       1.777   8.485  16.974  0.00  0.00    +0.000 HD
ENDROOT
BRANCH   4   9
ATOM      9  N   UNL     1       0.851   9.869  21.702  0.00  0.00    +0.000 N 
ATOM     10  C   UNL     1       0.315   9.728  23.054  0.00  0.00    +0.000 C 
ATOM     11  C   UNL     1      -1.076  10.372  23.125  0.00  0.00    +0.000 C 
ATOM     12  O   UNL     1      -1.041  11.741  22.685  0.00  0.00    +0.000 OA
ATOM     13  C   UNL     1      -0.567  11.824  21.327  0.00  0.00    +0.000 C 
ATOM     14  C   UNL     1       0.851  11.235  21.174  0.00  0.00    +0.000 C 
ENDBRANCH   4   9
BRANCH   1  16
ATOM     15  C   UNL     1       4.602   7.268  17.367  0.00  0.00    +0.000 C 
ATOM     16  N   UNL     1       3.355   7.203  17.027  0.00  0.00    +0.000 NA
BRANCH  15  22
ATOM     17  C   UNL     1       6.264   4.193  13.795  0.00  0.00    +0.000 C 
ATOM     18  C   UNL     1       6.375   4.740  15.188  0.00  0.00    +0.000 A 
ATOM     19  C   UNL     1       7.358   4.284  16.074  0.00  0.00    +0.000 A 
ATOM     20  C   UNL     1       7.440   4.800  17.370  0.00  0.00    +0.000 A 
ATOM     21  C   UNL     1       6.541   5.779  17.795  0.00  0.00    +0.000 A 
ATOM     22  C   UNL     1       5.562   6.242  16.915  0.00  0.00    +0.000 A 
ATOM     23  C   UNL     1       5.476   5.723  15.617  0.00  0.00    +0.000 A 
ENDBRANCH  15  22
ENDBRANCH   1  16
BRANCH   6  24
ATOM     24  O   UNL     1       1.594   5.286  21.137  0.00  0.00    +0.000 OA
BRANCH  24  25
ATOM     25  C   UNL     1       0.586   4.480  20.521  0.00  0.00    +0.000 C 
BRANCH  25  26
ATOM     26  C   UNL     1       1.145   3.066  20.380  0.00  0.00    +0.000 C 
BRANCH  26  27
ATOM     27  C   UNL     1       2.219   2.982  19.330  0.00  0.00    +0.000 A 
ATOM     28  C   UNL     1       1.991   3.465  18.043  0.00  0.00    +0.000 A 
ATOM     29  C   UNL     1       3.007   3.369  17.096  0.00  0.00    +0.000 A 
ATOM     30  C   UNL     1       4.220   2.796  17.456  0.00  0.00    +0.000 A 
ATOM     31  C   UNL     1       4.368   2.346  18.757  0.00  0.00    +0.000 A 
ATOM     32  N   UNL     1       3.401   2.432  19.697  0.00  0.00    +0.000 NA
ENDBRANCH  26  27
ENDBRANCH  25  26
ENDBRANCH  24  25
ENDBRANCH   6  24
TORSDOF 7
ENDMDL
MODEL 3
REMARK VINA RESULT:      -8.0      0.892      1.891
REMARK  Name = 
REMARK  8 active torsions:
REMARK  status: ('A' for Active; 'I' for Inactive)
REMARK    1  A    between atoms: C_1  and  C_2
REMARK    2  A    between atoms: C_6  and  C_7
REMARK    3  A    between atoms: N_8  and  N_9
REMARK    4  A    between atoms: C_12  and  N_13
REMARK    5  A    between atoms: C_20  and  O_21
REMARK    6  A    between atoms: O_21  and  C_22
REMARK    7  A    between atoms: C_22  and  C_23
REMARK    8  A    between atoms: C_23  and  C_24
REMARK                            x       y       z     vdW  Elec       q    Type
REMARK                         _______ _______ _______ _____ _____    ______ ____
ROOT
ATOM      1  N   UNL     1       2.262   8.998  17.645  0.00  0.00    +0.000 N 
ATOM      2  C   UNL     1       2.676   7.771  18.242  0.00  0.00    +0.000 A 
ATOM      3  C   UNL     1       3.736   7.109  17.648  0.00  0.00    +0.000 A 
ATOM      4  C   UNL     1       4.108   5.880  18.155  0.00  0.00    +0.000 A 
ATOM      5  N   UNL     1       3.485   5.369  19.230  0.00  0.00    +0.000 NA
ATOM      6  C   UNL     1       2.513   6.109  19.781  0.00  0.00    +0.000 A 
ATOM      7  N   UNL     1       2.055   7.273  19.321  0.00  0.00    +0.000 NA
ATOM      8  H   UNL     1       3.006   9.687  17.754  0.00  0.00    +0.000 HD
ENDROOT
BRANCH   4   9
ATOM      9  N   UNL     1       5.106   5.139  17.570  0.00  0.00    +0.000 N 
ATOM     10  C   UNL     1       6.272   4.619  18.282  0.00  0.00    +0.000 C 
ATOM     11  C   UNL     1       7.553   5.151  17.627  0.00  0.00    +0.000 C 
ATOM     12  O   UNL     1       7.586   4.850  16.221  0.00  0.00    +0.000 OA
ATOM     13  C   UNL     1       6.452   5.437  15.551  0.00  0.00    +0.000 C 
ATOM     14  C   UNL     1       5.115   4.921  16.122  0.00  0.00    +0.000 C 
ENDBRANCH   4   9
BRANCH   1  16
ATOM     15  C   UNL     1       0.921  10.535  18.586  0.00  0.00    +0.000 C 
ATOM     16  N   UNL     1       1.001   9.409  17.954  0.00  0.00    +0.000 NA
BRANCH  15  22
ATOM     17  C   UNL     1      -2.025  12.942  21.825  0.00  0.00    +0.000 C 
ATOM     18  C   UNL     1      -1.834  12.286  20.489  0.00  0.00    +0.000 A 
ATOM     19  C   UNL     1      -2.879  12.202  19.562  0.00  0.00    +0.000 A 
ATOM     20  C   UNL     1      -2.683  11.580  18.326  0.00  0.00    +0.000 A 
ATOM     21  C   UNL     1      -1.439  11.036  18.002  0.00  0.00    +0.000 A 
ATOM     22  C   UNL     1      -0.391  11.122  18.920  0.00  0.00    +0.000 A 
ATOM     23  C   UNL     1      -0.588  11.741  20.161  0.00  0.00    +0.000 A 
ENDBRANCH  15  22
ENDBRANCH   1  16
BRANCH   6  24
ATOM     24  O   UNL     1       1.869   5.643  20.908  0.00  0.00    +0.000 OA
BRANCH  24  25
ATOM     25  C   UNL     1       0.827   4.714  20.600  0.00  0.00    +0.000 C 
BRANCH  25  26
ATOM     26  C   UNL     1       1.296   3.328  21.036  0.00  0.00    +0.000 C 
BRANCH  26  27
ATOM     27  C   UNL     1       2.184   2.680  20.009  0.00  0.00    +0.000 A 
ATOM     28  C   UNL     1       3.472   2.266  20.345  0.00  0.00    +0.000 A 
ATOM     29  C   UNL     1       4.265   1.672  19.367  0.00  0.00    +0.000 A 
ATOM     30  C   UNL     1       3.757   1.506  18.086  0.00  0.00    +0.000 A 
ATOM     31  C   UNL     1       2.466   1.939  17.836  0.00  0.00    +0.000 A 
ATOM     32  N   UNL     1       1.671   2.514  18.766  0.00  0.00    +0.000 NA
ENDBRANCH  26  27
ENDBRANCH  25  26
ENDBRANCH  24  25
ENDBRANCH   6  24
TORSDOF 7
ENDMDL
MODEL 4
REMARK VINA RESULT:      -8.0      2.178      5.627
REMARK  Name = 
REMARK  8 active torsions:
REMARK  status: ('A' for Active; 'I' for Inactive)
REMARK    1  A    between atoms: C_1  and  C_2
REMARK    2  A    between atoms: C_6  and  C_7
REMARK    3  A    between atoms: N_8  and  N_9
REMARK    4  A    between atoms: C_12  and  N_13
REMARK    5  A    between atoms: C_20  and  O_21
REMARK    6  A    between atoms: O_21  and  C_22
REMARK    7  A    between atoms: C_22  and  C_23
REMARK    8  A    between atoms: C_23  and  C_24
REMARK                            x       y       z     vdW  Elec       q    Type
REMARK                         _______ _______ _______ _____ _____    ______ ____
ROOT
ATOM      1  N   UNL     1       0.782  10.503  17.775  0.00  0.00    +0.000 N 
ATOM      2  C   UNL     1       1.255   9.401  18.545  0.00  0.00    +0.000 A 
ATOM      3  C   UNL     1       2.020   8.454  17.886  0.00  0.00    +0.000 A 
ATOM      4  C   UNL     1       2.425   7.335  18.587  0.00  0.00    +0.000 A 
ATOM      5  N   UNL     1       2.124   7.200  19.889  0.00  0.00    +0.000 NA
ATOM      6  C   UNL     1       1.436   8.197  20.462  0.00  0.00    +0.000 A 
ATOM      7  N   UNL     1       0.958   9.278  19.847  0.00  0.00    +0.000 NA
ATOM      8  H   UNL     1       1.578  11.067  17.481  0.00  0.00    +0.000 HD
ENDROOT
BRANCH   4   9
ATOM      9  N   UNL     1       3.127   6.326  17.974  0.00  0.00    +0.000 N 
ATOM     10  C   UNL     1       2.723   4.922  17.976  0.00  0.00    +0.000 C 
ATOM     11  C   UNL     1       3.838   4.067  18.593  0.00  0.00    +0.000 C 
ATOM     12  O   UNL     1       5.092   4.279  17.921  0.00  0.00    +0.000 OA
ATOM     13  C   UNL     1       5.480   5.665  18.000  0.00  0.00    +0.000 C 
ATOM     14  C   UNL     1       4.429   6.596  17.361  0.00  0.00    +0.000 C 
ENDBRANCH   4   9
BRANCH   1  16
ATOM     15  C   UNL     1      -1.445  10.763  17.903  0.00  0.00    +0.000 C 
ATOM     16  N   UNL     1      -0.282  11.173  18.295  0.00  0.00    +0.000 NA
BRANCH  15  22
ATOM     17  C   UNL     1      -6.347  11.644  17.496  0.00  0.00    +0.000 C 
ATOM     18  C   UNL     1      -5.061  11.803  18.253  0.00  0.00    +0.000 A 
ATOM     19  C   UNL     1      -5.006  12.525  19.451  0.00  0.00    +0.000 A 
ATOM     20  C   UNL     1      -3.796  12.668  20.137  0.00  0.00    +0.000 A 
ATOM     21  C   UNL     1      -2.629  12.090  19.635  0.00  0.00    +0.000 A 
ATOM     22  C   UNL     1      -2.680  11.364  18.444  0.00  0.00    +0.000 A 
ATOM     23  C   UNL     1      -3.890  11.223  17.753  0.00  0.00    +0.000 A 
ENDBRANCH  15  22
ENDBRANCH   1  16
BRANCH   6  24
ATOM     24  O   UNL     1       1.135   8.120  21.806  0.00  0.00    +0.000 OA
BRANCH  24  25
ATOM     25  C   UNL     1       1.081   9.405  22.431  0.00  0.00    +0.000 C 
BRANCH  25  26
ATOM     26  C   UNL     1      -0.366   9.660  22.843  0.00  0.00    +0.000 C 
BRANCH  26  27
ATOM     27  C   UNL     1      -0.730  11.118  22.768  0.00  0.00    +0.000 A 
ATOM     28  C   UNL     1      -1.893  11.590  23.372  0.00  0.00    +0.000 A 
ATOM     29  C   UNL     1      -2.198  12.946  23.280  0.00  0.00    +0.000 A 
ATOM     30  C   UNL     1      -1.339  13.791  22.591  0.00  0.00    +0.000 A 
ATOM     31  C   UNL     1      -0.201  13.243  22.025  0.00  0.00    +0.000 A 
ATOM     32  N   UNL     1       0.123  11.934  22.103  0.00  0.00    +0.000 NA
ENDBRANCH  26  27
ENDBRANCH  25  26
ENDBRANCH  24  25
ENDBRANCH   6  24
TORSDOF 7
ENDMDL
MODEL 5
REMARK VINA RESULT:      -8.0      0.737      1.134
REMARK  Name = 
REMARK  8 active torsions:
REMARK  status: ('A' for Active; 'I' for Inactive)
REMARK    1  A    between atoms: C_1  and  C_2
REMARK    2  A    between atoms: C_6  and  C_7
REMARK    3  A    between atoms: N_8  and  N_9
REMARK    4  A    between atoms: C_12  and  N_13
REMARK    5  A    between atoms: C_20  and  O_21
REMARK    6  A    between atoms: O_21  and  C_22
REMARK    7  A    between atoms: C_22  and  C_23
REMARK    8  A    between atoms: C_23  and  C_24
REMARK                            x       y       z     vdW  Elec       q    Type
REMARK                         _______ _______ _______ _____ _____    ______ ____
ROOT
ATOM      1  N   UNL     1       2.134   9.017  17.620  0.00  0.00    +0.000 N 
ATOM      2  C   UNL     1       2.555   7.828  18.284  0.00  0.00    +0.000 A 
ATOM      3  C   UNL     1       3.658   7.173  17.765  0.00  0.00    +0.000 A 
ATOM      4  C   UNL     1       4.040   5.977  18.339  0.00  0.00    +0.000 A 
ATOM      5  N   UNL     1       3.384   5.492  19.406  0.00  0.00    +0.000 NA
ATOM      6  C   UNL     1       2.369   6.226  19.883  0.00  0.00    +0.000 A 
ATOM      7  N   UNL     1       1.900   7.356  19.355  0.00  0.00    +0.000 NA
ATOM      8  H   UNL     1       2.854   9.731  17.731  0.00  0.00    +0.000 HD
ENDROOT
BRANCH   4   9
ATOM      9  N   UNL     1       5.083   5.242  17.828  0.00  0.00    +0.000 N 
ATOM     10  C   UNL     1       6.267   4.853  18.591  0.00  0.00    +0.000 C 
ATOM     11  C   UNL     1       7.525   5.393  17.897  0.00  0.00    +0.000 C 
ATOM     12  O   UNL     1       7.588   4.970  16.524  0.00  0.00    +0.000 OA
ATOM     13  C   UNL     1       6.431   5.431  15.798  0.00  0.00    +0.000 C 
ATOM     14  C   UNL     1       5.118   4.895  16.406  0.00  0.00    +0.000 C 
ENDBRANCH   4   9
BRANCH   1  16
ATOM     15  C   UNL     1       0.713  10.528  18.481  0.00  0.00    +0.000 C 
ATOM     16  N   UNL     1       0.851   9.403  17.856  0.00  0.00    +0.000 NA
BRANCH  15  22
ATOM     17  C   UNL     1      -4.009  11.266  17.021  0.00  0.00    +0.000 C 
ATOM     18  C   UNL     1      -2.923  11.459  18.038  0.00  0.00    +0.000 A 
ATOM     19  C   UNL     1      -3.149  12.176  19.219  0.00  0.00    +0.000 A 
ATOM     20  C   UNL     1      -2.122  12.351  20.150  0.00  0.00    +0.000 A 
ATOM     21  C   UNL     1      -0.857  11.810  19.913  0.00  0.00    +0.000 A 
ATOM     22  C   UNL     1      -0.627  11.089  18.740  0.00  0.00    +0.000 A 
ATOM     23  C   UNL     1      -1.654  10.917  17.804  0.00  0.00    +0.000 A 
ENDBRANCH  15  22
ENDBRANCH   1  16
BRANCH   6  24
ATOM     24  O   UNL     1       1.689   5.787  21.000  0.00  0.00    +0.000 OA
BRANCH  24  25
ATOM     25  C   UNL     1       2.261   4.603  21.561  0.00  0.00    +0.000 C 
BRANCH  25  26
ATOM     26  C   UNL     1       1.493   3.408  21.003  0.00  0.00    +0.000 C 
BRANCH  26  27
ATOM     27  C   UNL     1       2.233   2.729  19.882  0.00  0.00    +0.000 A 
ATOM     28  C   UNL     1       1.649   2.600  18.624  0.00  0.00    +0.000 A 
ATOM     29  C   UNL     1       2.363   1.964  17.612  0.00  0.00    +0.000 A 
ATOM     30  C   UNL     1       3.636   1.478  17.879  0.00  0.00    +0.000 A 
ATOM     31  C   UNL     1       4.146   1.653  19.154  0.00  0.00    +0.000 A 
ATOM     32  N   UNL     1       3.478   2.270  20.154  0.00  0.00    +0.000 NA
ENDBRANCH  26  27
ENDBRANCH  25  26
ENDBRANCH  24  25
ENDBRANCH   6  24
TORSDOF 7
ENDMDL
MODEL 6
REMARK VINA RESULT:      -8.0      2.310      5.643
REMARK  Name = 
REMARK  8 active torsions:
REMARK  status: ('A' for Active; 'I' for Inactive)
REMARK    1  A    between atoms: C_1  and  C_2
REMARK    2  A    between atoms: C_6  and  C_7
REMARK    3  A    between atoms: N_8  and  N_9
REMARK    4  A    between atoms: C_12  and  N_13
REMARK    5  A    between atoms: C_20  and  O_21
REMARK    6  A    between atoms: O_21  and  C_22
REMARK    7  A    between atoms: C_22  and  C_23
REMARK    8  A    between atoms: C_23  and  C_24
REMARK                            x       y       z     vdW  Elec       q    Type
REMARK                         _______ _______ _______ _____ _____    ______ ____
ROOT
ATOM      1  N   UNL     1       0.758  10.356  17.751  0.00  0.00    +0.000 N 
ATOM      2  C   UNL     1       1.263   9.335  18.608  0.00  0.00    +0.000 A 
ATOM      3  C   UNL     1       2.197   8.467  18.069  0.00  0.00    +0.000 A 
ATOM      4  C   UNL     1       2.645   7.420  18.850  0.00  0.00    +0.000 A 
ATOM      5  N   UNL     1       2.219   7.283  20.117  0.00  0.00    +0.000 NA
ATOM      6  C   UNL     1       1.365   8.208  20.576  0.00  0.00    +0.000 A 
ATOM      7  N   UNL     1       0.839   9.211  19.874  0.00  0.00    +0.000 NA
ATOM      8  H   UNL     1       1.513  11.001  17.523  0.00  0.00    +0.000 HD
ENDROOT
BRANCH   4   9
ATOM      9  N   UNL     1       3.519   6.484  18.354  0.00  0.00    +0.000 N 
ATOM     10  C   UNL     1       3.936   5.283  19.074  0.00  0.00    +0.000 C 
ATOM     11  C   UNL     1       5.464   5.276  19.221  0.00  0.00    +0.000 C 
ATOM     12  O   UNL     1       6.113   5.407  17.945  0.00  0.00    +0.000 OA
ATOM     13  C   UNL     1       5.720   6.636  17.302  0.00  0.00    +0.000 C 
ATOM     14  C   UNL     1       4.196   6.706  17.075  0.00  0.00    +0.000 C 
ENDBRANCH   4   9
BRANCH   1  16
ATOM     15  C   UNL     1      -1.435  10.649  17.363  0.00  0.00    +0.000 C 
ATOM     16  N   UNL     1      -0.426  10.912  18.129  0.00  0.00    +0.000 NA
BRANCH  15  22
ATOM     17  C   UNL     1      -4.552  12.812  20.615  0.00  0.00    +0.000 C 
ATOM     18  C   UNL     1      -4.312  12.183  19.274  0.00  0.00    +0.000 A 
ATOM     19  C   UNL     1      -5.346  12.034  18.343  0.00  0.00    +0.000 A 
ATOM     20  C   UNL     1      -5.103  11.438  17.102  0.00  0.00    +0.000 A 
ATOM     21  C   UNL     1      -3.823  10.987  16.777  0.00  0.00    +0.000 A 
ATOM     22  C   UNL     1      -2.786  11.138  17.699  0.00  0.00    +0.000 A 
ATOM     23  C   UNL     1      -3.029  11.731  18.944  0.00  0.00    +0.000 A 
ENDBRANCH  15  22
ENDBRANCH   1  16
BRANCH   6  24
ATOM     24  O   UNL     1       0.928   8.130  21.882  0.00  0.00    +0.000 OA
BRANCH  24  25
ATOM     25  C   UNL     1      -0.408   8.615  22.044  0.00  0.00    +0.000 C 
BRANCH  25  26
ATOM     26  C   UNL     1      -0.410   9.580  23.227  0.00  0.00    +0.000 C 
BRANCH  26  27
ATOM     27  C   UNL     1      -0.661  11.001  22.800  0.00  0.00    +0.000 A 
ATOM     28  C   UNL     1      -1.776  11.695  23.267  0.00  0.00    +0.000 A 
ATOM     29  C   UNL     1      -1.977  13.007  22.849  0.00  0.00    +0.000 A 
ATOM     30  C   UNL     1      -1.066  13.592  21.981  0.00  0.00    +0.000 A 
ATOM     31  C   UNL     1       0.019  12.837  21.569  0.00  0.00    +0.000 A 
ATOM     32  N   UNL     1       0.242  11.563  21.962  0.00  0.00    +0.000 NA
ENDBRANCH  26  27
ENDBRANCH  25  26
ENDBRANCH  24  25
ENDBRANCH   6  24
TORSDOF 7
ENDMDL
MODEL 7
REMARK VINA RESULT:      -7.9      0.762      1.635
REMARK  Name = 
REMARK  8 active torsions:
REMARK  status: ('A' for Active; 'I' for Inactive)
REMARK    1  A    between atoms: C_1  and  C_2
REMARK    2  A    between atoms: C_6  and  C_7
REMARK    3  A    between atoms: N_8  and  N_9
REMARK    4  A    between atoms: C_12  and  N_13
REMARK    5  A    between atoms: C_20  and  O_21
REMARK    6  A    between atoms: O_21  and  C_22
REMARK    7  A    between atoms: C_22  and  C_23
REMARK    8  A    between atoms: C_23  and  C_24
REMARK                            x       y       z     vdW  Elec       q    Type
REMARK                         _______ _______ _______ _____ _____    ______ ____
ROOT
ATOM      1  N   UNL     1       1.604   9.802  17.764  0.00  0.00    +0.000 N 
ATOM      2  C   UNL     1       2.211   8.596  18.223  0.00  0.00    +0.000 A 
ATOM      3  C   UNL     1       3.298   8.126  17.505  0.00  0.00    +0.000 A 
ATOM      4  C   UNL     1       3.856   6.920  17.877  0.00  0.00    +0.000 A 
ATOM      5  N   UNL     1       3.385   6.249  18.941  0.00  0.00    +0.000 NA
ATOM      6  C   UNL     1       2.374   6.811  19.617  0.00  0.00    +0.000 A 
ATOM      7  N   UNL     1       1.741   7.938  19.292  0.00  0.00    +0.000 NA
ATOM      8  H   UNL     1       2.263  10.570  17.883  0.00  0.00    +0.000 HD
ENDROOT
BRANCH   4   9
ATOM      9  N   UNL     1       4.891   6.363  17.165  0.00  0.00    +0.000 N 
ATOM     10  C   UNL     1       4.907   4.988  16.673  0.00  0.00    +0.000 C 
ATOM     11  C   UNL     1       6.129   4.252  17.241  0.00  0.00    +0.000 C 
ATOM     12  O   UNL     1       7.347   4.958  16.947  0.00  0.00    +0.000 OA
ATOM     13  C   UNL     1       7.311   6.285  17.507  0.00  0.00    +0.000 C 
ATOM     14  C   UNL     1       6.132   7.112  16.953  0.00  0.00    +0.000 C 
ENDBRANCH   4   9
BRANCH   1  16
ATOM     15  C   UNL     1       0.062  11.232  18.552  0.00  0.00    +0.000 C 
ATOM     16  N   UNL     1       0.329  10.019  18.189  0.00  0.00    +0.000 NA
BRANCH  15  22
ATOM     17  C   UNL     1      -3.002  13.225  21.959  0.00  0.00    +0.000 C 
ATOM     18  C   UNL     1      -2.800  12.574  20.623  0.00  0.00    +0.000 A 
ATOM     19  C   UNL     1      -3.880  12.302  19.774  0.00  0.00    +0.000 A 
ATOM     20  C   UNL     1      -3.671  11.687  18.536  0.00  0.00    +0.000 A 
ATOM     21  C   UNL     1      -2.382  11.339  18.132  0.00  0.00    +0.000 A 
ATOM     22  C   UNL     1      -1.301  11.612  18.972  0.00  0.00    +0.000 A 
ATOM     23  C   UNL     1      -1.508  12.224  20.214  0.00  0.00    +0.000 A 
ENDBRANCH  15  22
ENDBRANCH   1  16
BRANCH   6  24
ATOM     24  O   UNL     1       1.880   6.178  20.739  0.00  0.00    +0.000 OA
BRANCH  24  25
ATOM     25  C   UNL     1       0.948   5.143  20.420  0.00  0.00    +0.000 C 
BRANCH  25  26
ATOM     26  C   UNL     1       1.491   3.836  20.993  0.00  0.00    +0.000 C 
BRANCH  26  27
ATOM     27  C   UNL     1       2.270   3.049  19.973  0.00  0.00    +0.000 A 
ATOM     28  C   UNL     1       3.516   2.513  20.294  0.00  0.00    +0.000 A 
ATOM     29  C   UNL     1       4.209   1.793  19.324  0.00  0.00    +0.000 A 
ATOM     30  C   UNL     1       3.645   1.626  18.067  0.00  0.00    +0.000 A 
ATOM     31  C   UNL     1       2.400   2.185  17.832  0.00  0.00    +0.000 A 
ATOM     32  N   UNL     1       1.703   2.884  18.755  0.00  0.00    +0.000 NA
ENDBRANCH  26  27
ENDBRANCH  25  26
ENDBRANCH  24  25
ENDBRANCH   6  24
TORSDOF 7
ENDMDL
MODEL 8
REMARK VINA RESULT:      -7.8      3.226      9.989
REMARK  Name = 
REMARK  8 active torsions:
REMARK  status: ('A' for Active; 'I' for Inactive)
REMARK    1  A    between atoms: C_1  and  C_2
REMARK    2  A    between atoms: C_6  and  C_7
REMARK    3  A    between atoms: N_8  and  N_9
REMARK    4  A    between atoms: C_12  and  N_13
REMARK    5  A    between atoms: C_20  and  O_21
REMARK    6  A    between atoms: O_21  and  C_22
REMARK    7  A    between atoms: C_22  and  C_23
REMARK    8  A    between atoms: C_23  and  C_24
REMARK                            x       y       z     vdW  Elec       q    Type
REMARK                         _______ _______ _______ _____ _____    ______ ____
ROOT
ATOM      1  N   UNL     1       1.712   8.539  20.950  0.00  0.00    +0.000 N 
ATOM      2  C   UNL     1       0.741   9.487  20.514  0.00  0.00    +0.000 A 
ATOM      3  C   UNL     1       0.286  10.398  21.452  0.00  0.00    +0.000 A 
ATOM      4  C   UNL     1      -0.712  11.277  21.081  0.00  0.00    +0.000 A 
ATOM      5  N   UNL     1      -1.190  11.276  19.825  0.00  0.00    +0.000 NA
ATOM      6  C   UNL     1      -0.645  10.403  18.966  0.00  0.00    +0.000 A 
ATOM      7  N   UNL     1       0.276   9.485  19.256  0.00  0.00    +0.000 NA
ATOM      8  H   UNL     1       2.575   9.030  21.178  0.00  0.00    +0.000 HD
ENDROOT
BRANCH   4   9
ATOM      9  N   UNL     1      -1.256  12.160  21.982  0.00  0.00    +0.000 N 
ATOM     10  C   UNL     1      -1.689  11.799  23.330  0.00  0.00    +0.000 C 
ATOM     11  C   UNL     1      -3.174  12.145  23.503  0.00  0.00    +0.000 C 
ATOM     12  O   UNL     1      -3.430  13.525  23.192  0.00  0.00    +0.000 OA
ATOM     13  C   UNL     1      -3.047  13.817  21.833  0.00  0.00    +0.000 C 
ATOM     14  C   UNL     1      -1.550  13.538  21.583  0.00  0.00    +0.000 C 
ENDBRANCH   4   9
BRANCH   1  16
ATOM     15  C   UNL     1       1.718   6.297  20.816  0.00  0.00    +0.000 C 
ATOM     16  N   UNL     1       1.830   7.420  20.183  0.00  0.00    +0.000 NA
BRANCH  15  22
ATOM     17  C   UNL     1       3.361   3.583  16.955  0.00  0.00    +0.000 C 
ATOM     18  C   UNL     1       2.551   3.686  18.214  0.00  0.00    +0.000 A 
ATOM     19  C   UNL     1       1.821   2.596  18.702  0.00  0.00    +0.000 A 
ATOM     20  C   UNL     1       1.065   2.715  19.871  0.00  0.00    +0.000 A 
ATOM     21  C   UNL     1       1.032   3.924  20.568  0.00  0.00    +0.000 A 
ATOM     22  C   UNL     1       1.763   5.013  20.089  0.00  0.00    +0.000 A 
ATOM     23  C   UNL     1       2.517   4.896  18.915  0.00  0.00    +0.000 A 
ENDBRANCH  15  22
ENDBRANCH   1  16
BRANCH   6  24
ATOM     24  O   UNL     1      -1.077  10.390  17.656  0.00  0.00    +0.000 OA
BRANCH  24  25
ATOM     25  C   UNL     1      -2.257  11.174  17.459  0.00  0.00    +0.000 C 
BRANCH  25  26
ATOM     26  C   UNL     1      -3.443  10.215  17.388  0.00  0.00    +0.000 C 
BRANCH  26  27
ATOM     27  C   UNL     1      -4.755  10.919  17.606  0.00  0.00    +0.000 A 
ATOM     28  C   UNL     1      -5.699  10.401  18.491  0.00  0.00    +0.000 A 
ATOM     29  C   UNL     1      -6.902  11.078  18.665  0.00  0.00    +0.000 A 
ATOM     30  C   UNL     1      -7.134  12.248  17.957  0.00  0.00    +0.000 A 
ATOM     31  C   UNL     1      -6.143  12.699  17.102  0.00  0.00    +0.000 A 
ATOM     32  N   UNL     1      -4.963  12.066  16.916  0.00  0.00    +0.000 NA
ENDBRANCH  26  27
ENDBRANCH  25  26
ENDBRANCH  24  25
ENDBRANCH   6  24
TORSDOF 7
ENDMDL
MODEL 9
REMARK VINA RESULT:      -7.8      3.194     10.011
REMARK  Name = 
REMARK  8 active torsions:
REMARK  status: ('A' for Active; 'I' for Inactive)
REMARK    1  A    between atoms: C_1  and  C_2
REMARK    2  A    between atoms: C_6  and  C_7
REMARK    3  A    between atoms: N_8  and  N_9
REMARK    4  A    between atoms: C_12  and  N_13
REMARK    5  A    between atoms: C_20  and  O_21
REMARK    6  A    between atoms: O_21  and  C_22
REMARK    7  A    between atoms: C_22  and  C_23
REMARK    8  A    between atoms: C_23  and  C_24
REMARK                            x       y       z     vdW  Elec       q    Type
REMARK                         _______ _______ _______ _____ _____    ______ ____
ROOT
ATOM      1  N   UNL     1       1.504   8.236  21.389  0.00  0.00    +0.000 N 
ATOM      2  C   UNL     1       0.740   9.377  21.006  0.00  0.00    +0.000 A 
ATOM      3  C   UNL     1       0.235  10.168  22.024  0.00  0.00    +0.000 A 
ATOM      4  C   UNL     1      -0.574  11.234  21.686  0.00  0.00    +0.000 A 
ATOM      5  N   UNL     1      -0.821  11.521  20.397  0.00  0.00    +0.000 NA
ATOM      6  C   UNL     1      -0.238  10.742  19.476  0.00  0.00    +0.000 A 
ATOM      7  N   UNL     1       0.506   9.662  19.716  0.00  0.00    +0.000 NA
ATOM      8  H   UNL     1       2.365   8.549  21.836  0.00  0.00    +0.000 HD
ENDROOT
BRANCH   4   9
ATOM      9  N   UNL     1      -1.163  12.017  22.649  0.00  0.00    +0.000 N 
ATOM     10  C   UNL     1      -2.304  11.603  23.463  0.00  0.00    +0.000 C 
ATOM     11  C   UNL     1      -3.459  12.594  23.269  0.00  0.00    +0.000 C 
ATOM     12  O   UNL     1      -3.044  13.943  23.546  0.00  0.00    +0.000 OA
ATOM     13  C   UNL     1      -1.960  14.327  22.677  0.00  0.00    +0.000 C 
ATOM     14  C   UNL     1      -0.735  13.404  22.840  0.00  0.00    +0.000 C 
ENDBRANCH   4   9
BRANCH   1  16
ATOM     15  C   UNL     1       1.746   6.058  20.900  0.00  0.00    +0.000 C 
ATOM     16  N   UNL     1       1.625   7.263  20.445  0.00  0.00    +0.000 NA
BRANCH  15  22
ATOM     17  C   UNL     1       3.893   3.789  17.000  0.00  0.00    +0.000 C 
ATOM     18  C   UNL     1       2.853   3.798  18.081  0.00  0.00    +0.000 A 
ATOM     19  C   UNL     1       1.940   2.746  18.222  0.00  0.00    +0.000 A 
ATOM     20  C   UNL     1       0.973   2.778  19.230  0.00  0.00    +0.000 A 
ATOM     21  C   UNL     1       0.909   3.858  20.111  0.00  0.00    +0.000 A 
ATOM     22  C   UNL     1       1.820   4.907  19.979  0.00  0.00    +0.000 A 
ATOM     23  C   UNL     1       2.787   4.879  18.966  0.00  0.00    +0.000 A 
ENDBRANCH  15  22
ENDBRANCH   1  16
BRANCH   6  24
ATOM     24  O   UNL     1      -0.432  11.020  18.139  0.00  0.00    +0.000 OA
BRANCH  24  25
ATOM     25  C   UNL     1      -1.552  11.879  17.914  0.00  0.00    +0.000 C 
BRANCH  25  26
ATOM     26  C   UNL     1      -2.735  11.002  17.509  0.00  0.00    +0.000 C 
BRANCH  26  27
ATOM     27  C   UNL     1      -4.042  11.534  18.031  0.00  0.00    +0.000 A 
ATOM     28  C   UNL     1      -5.205  11.428  17.270  0.00  0.00    +0.000 A 
ATOM     29  C   UNL     1      -6.395  11.934  17.785  0.00  0.00    +0.000 A 
ATOM     30  C   UNL     1      -6.396  12.529  19.039  0.00  0.00    +0.000 A 
ATOM     31  C   UNL     1      -5.200  12.589  19.733  0.00  0.00    +0.000 A 
ATOM     32  N   UNL     1      -4.031  12.102  19.261  0.00  0.00    +0.000 NA
ENDBRANCH  26  27
ENDBRANCH  25  26
ENDBRANCH  24  25
ENDBRANCH   6  24
TORSDOF 7
ENDMDL
