MODEL 1
REMARK VINA RESULT:      -7.2      0.000      0.000
REMARK  Name = 
REMARK  9 active torsions:
REMARK  status: ('A' for Active; 'I' for Inactive)
REMARK    1  A    between atoms: C_1  and  C_2
REMARK    2  A    between atoms: N_4  and  C_5
REMARK    3  A    between atoms: C_8  and  O_9
REMARK    4  A    between atoms: O_9  and  C_10
REMARK    5  A    between atoms: C_10  and  C_11
REMARK    6  A    between atoms: C_11  and  C_17
REMARK    7  A    between atoms: N_12  and  N_13
REMARK    8  A    between atoms: N_13  and  C_14
REMARK    9  A    between atoms: C_14  and  N_15
REMARK                            x       y       z     vdW  Elec       q    Type
REMARK                         _______ _______ _______ _____ _____    ______ ____
ROOT
ATOM      1  C   UNL     1       5.446   4.669  18.085  0.00  0.00    +0.000 C 
ATOM      2  N   UNL     1       5.646   3.768  19.008  0.00  0.00    +0.000 NA
ENDROOT
BRANCH   1   3
ATOM      3  C   UNL     1       6.402   5.828  18.005  0.00  0.00    +0.000 A 
ATOM      4  C   UNL     1       7.547   5.888  18.812  0.00  0.00    +0.000 A 
ATOM      5  C   UNL     1       8.309   7.059  18.871  0.00  0.00    +0.000 A 
ATOM      6  C   UNL     1       7.942   8.166  18.109  0.00  0.00    +0.000 A 
ATOM      7 BR   UNL     1       8.958   9.756  18.220  0.00  0.00    +0.000 Br
ATOM      8  C   UNL     1       6.825   8.109  17.276  0.00  0.00    +0.000 A 
ATOM      9  C   UNL     1       6.058   6.940  17.220  0.00  0.00    +0.000 A 
ENDBRANCH   1   3
BRANCH   2  10
ATOM     10  N   UNL     1       4.779   2.712  19.052  0.00  0.00    +0.000 N 
ATOM     11  H   UNL     1       4.373   2.334  18.200  0.00  0.00    +0.000 HD
BRANCH  10  12
ATOM     12  C   UNL     1       4.462   2.084  20.222  0.00  0.00    +0.000 C 
ATOM     13  S   UNL     1       3.030   2.365  21.011  0.00  0.00    +0.000 S 
BRANCH  12  14
ATOM     14  N   UNL     1       5.384   1.221  20.703  0.00  0.00    +0.000 N 
ATOM     15  H   UNL     1       6.308   1.248  20.290  0.00  0.00    +0.000 HD
ATOM     16  H   UNL     1       5.147   0.533  21.403  0.00  0.00    +0.000 HD
ENDBRANCH  12  14
ENDBRANCH  10  12
ENDBRANCH   2  10
BRANCH   1  17
ATOM     17  C   UNL     1       4.307   4.608  17.035  0.00  0.00    +0.000 C 
BRANCH  17  18
ATOM     18  O   UNL     1       2.977   4.554  17.563  0.00  0.00    +0.000 OA
BRANCH  18  22
ATOM     19  C   UNL     1       1.837   7.657  20.156  0.00  0.00    +0.000 A 
ATOM     20  C   UNL     1       2.189   7.933  18.843  0.00  0.00    +0.000 A 
ATOM     21  C   UNL     1       2.560   6.914  17.978  0.00  0.00    +0.000 A 
ATOM     22  C   UNL     1       2.627   5.591  18.389  0.00  0.00    +0.000 A 
ATOM     23  C   UNL     1       2.287   5.298  19.709  0.00  0.00    +0.000 A 
ATOM     24  C   UNL     1       1.908   6.328  20.596  0.00  0.00    +0.000 A 
BRANCH  19  28
ATOM     25  C   UNL     1      -0.021  10.037  22.414  0.00  0.00    +0.000 C 
ATOM     26  C   UNL     1       0.166   8.779  21.621  0.00  0.00    +0.000 C 
ATOM     27  O   UNL     1      -0.752   7.963  21.539  0.00  0.00    +0.000 OA
ATOM     28  N   UNL     1       1.423   8.679  21.038  0.00  0.00    +0.000 N 
ATOM     29  H   UNL     1       2.128   9.341  21.332  0.00  0.00    +0.000 HD
ENDBRANCH  19  28
ENDBRANCH  18  22
ENDBRANCH  17  18
ENDBRANCH   1  17
TORSDOF 8
ENDMDL
MODEL 2
REMARK VINA RESULT:      -7.2      3.533      7.095
REMARK  Name = 
REMARK  9 active torsions:
REMARK  status: ('A' for Active; 'I' for Inactive)
REMARK    1  A    between atoms: C_1  and  C_2
REMARK    2  A    between atoms: N_4  and  C_5
REMARK    3  A    between atoms: C_8  and  O_9
REMARK    4  A    between atoms: O_9  and  C_10
REMARK    5  A    between atoms: C_10  and  C_11
REMARK    6  A    between atoms: C_11  and  C_17
REMARK    7  A    between atoms: N_12  and  N_13
REMARK    8  A    between atoms: N_13  and  C_14
REMARK    9  A    between atoms: C_14  and  N_15
REMARK                            x       y       z     vdW  Elec       q    Type
REMARK                         _______ _______ _______ _____ _____    ______ ____
ROOT
ATOM      1  C   UNL     1       2.280   6.460  19.684  0.00  0.00    +0.000 C 
ATOM      2  N   UNL     1       2.129   5.552  20.610  0.00  0.00    +0.000 NA
ENDROOT
BRANCH   1   3
ATOM      3  C   UNL     1       1.760   7.846  19.956  0.00  0.00    +0.000 A 
ATOM      4  C   UNL     1       1.211   8.189  21.199  0.00  0.00    +0.000 A 
ATOM      5  C   UNL     1       0.552   9.411  21.367  0.00  0.00    +0.000 A 
ATOM      6  C   UNL     1       0.458  10.302  20.300  0.00  0.00    +0.000 A 
ATOM      7 BR   UNL     1      -0.464  11.936  20.525  0.00  0.00    +0.000 Br
ATOM      8  C   UNL     1       1.029   9.988  19.067  0.00  0.00    +0.000 A 
ATOM      9  C   UNL     1       1.683   8.763  18.896  0.00  0.00    +0.000 A 
ENDBRANCH   1   3
BRANCH   2  10
ATOM     10  N   UNL     1       2.625   4.304  20.353  0.00  0.00    +0.000 N 
ATOM     11  H   UNL     1       3.606   4.091  20.511  0.00  0.00    +0.000 HD
BRANCH  10  12
ATOM     12  C   UNL     1       1.826   3.281  19.931  0.00  0.00    +0.000 C 
ATOM     13  S   UNL     1       2.271   2.272  18.691  0.00  0.00    +0.000 S 
BRANCH  12  14
ATOM     14  N   UNL     1       0.649   3.137  20.579  0.00  0.00    +0.000 N 
ATOM     15  H   UNL     1      -0.099   3.773  20.332  0.00  0.00    +0.000 HD
ATOM     16  H   UNL     1       0.537   2.466  21.324  0.00  0.00    +0.000 HD
ENDBRANCH  12  14
ENDBRANCH  10  12
ENDBRANCH   2  10
BRANCH   1  17
ATOM     17  C   UNL     1       2.995   6.218  18.331  0.00  0.00    +0.000 C 
BRANCH  17  18
ATOM     18  O   UNL     1       4.394   5.925  18.411  0.00  0.00    +0.000 OA
BRANCH  18  22
ATOM     19  C   UNL     1       6.023   4.252  14.917  0.00  0.00    +0.000 A 
ATOM     20  C   UNL     1       5.778   3.458  16.028  0.00  0.00    +0.000 A 
ATOM     21  C   UNL     1       5.234   4.000  17.183  0.00  0.00    +0.000 A 
ATOM     22  C   UNL     1       4.943   5.351  17.292  0.00  0.00    +0.000 A 
ATOM     23  C   UNL     1       5.194   6.166  16.188  0.00  0.00    +0.000 A 
ATOM     24  C   UNL     1       5.746   5.623  15.009  0.00  0.00    +0.000 A 
BRANCH  19  28
ATOM     25  C   UNL     1       6.605   2.706  11.529  0.00  0.00    +0.000 C 
ATOM     26  C   UNL     1       5.798   3.379  12.597  0.00  0.00    +0.000 C 
ATOM     27  O   UNL     1       4.597   3.585  12.421  0.00  0.00    +0.000 OA
ATOM     28  N   UNL     1       6.543   3.708  13.722  0.00  0.00    +0.000 N 
ATOM     29  H   UNL     1       7.549   3.632  13.655  0.00  0.00    +0.000 HD
ENDBRANCH  19  28
ENDBRANCH  18  22
ENDBRANCH  17  18
ENDBRANCH   1  17
TORSDOF 8
ENDMDL
MODEL 3
REMARK VINA RESULT:      -7.2      3.416      6.786
REMARK  Name = 
REMARK  9 active torsions:
REMARK  status: ('A' for Active; 'I' for Inactive)
REMARK    1  A    between atoms: C_1  and  C_2
REMARK    2  A    between atoms: N_4  and  C_5
REMARK    3  A    between atoms: C_8  and  O_9
REMARK    4  A    between atoms: O_9  and  C_10
REMARK    5  A    between atoms: C_10  and  C_11
REMARK    6  A    between atoms: C_11  and  C_17
REMARK    7  A    between atoms: N_12  and  N_13
REMARK    8  A    between atoms: N_13  and  C_14
REMARK    9  A    between atoms: C_14  and  N_15
REMARK                            x       y       z     vdW  Elec       q    Type
REMARK                         _______ _______ _______ _____ _____    ______ ____
ROOT
ATOM      1  C   UNL     1       2.771   5.919  18.710  0.00  0.00    +0.000 C 
ATOM      2  N   UNL     1       2.021   5.124  17.998  0.00  0.00    +0.000 NA
ENDROOT
BRANCH   1   3
ATOM      3  C   UNL     1       2.272   7.313  18.982  0.00  0.00    +0.000 A 
ATOM      4  C   UNL     1       1.751   7.671  20.233  0.00  0.00    +0.000 A 
ATOM      5  C   UNL     1       1.109   8.901  20.406  0.00  0.00    +0.000 A 
ATOM      6  C   UNL     1       1.004   9.785  19.334  0.00  0.00    +0.000 A 
ATOM      7 BR   UNL     1       0.104  11.431  19.566  0.00  0.00    +0.000 Br
ATOM      8  C   UNL     1       1.547   9.457  18.093  0.00  0.00    +0.000 A 
ATOM      9  C   UNL     1       2.185   8.223  17.917  0.00  0.00    +0.000 A 
ENDBRANCH   1   3
BRANCH   2  10
ATOM     10  N   UNL     1       2.483   3.856  17.778  0.00  0.00    +0.000 N 
ATOM     11  H   UNL     1       3.226   3.681  17.107  0.00  0.00    +0.000 HD
BRANCH  10  12
ATOM     12  C   UNL     1       2.014   2.783  18.479  0.00  0.00    +0.000 C 
ATOM     13  S   UNL     1       0.914   2.950  19.710  0.00  0.00    +0.000 S 
BRANCH  12  14
ATOM     14  N   UNL     1       2.500   1.575  18.115  0.00  0.00    +0.000 N 
ATOM     15  H   UNL     1       1.880   0.958  17.605  0.00  0.00    +0.000 HD
ATOM     16  H   UNL     1       3.421   1.273  18.395  0.00  0.00    +0.000 HD
ENDBRANCH  12  14
ENDBRANCH  10  12
ENDBRANCH   2  10
BRANCH   1  17
ATOM     17  C   UNL     1       4.133   5.514  19.332  0.00  0.00    +0.000 C 
BRANCH  17  18
ATOM     18  O   UNL     1       5.283   6.177  18.796  0.00  0.00    +0.000 OA
BRANCH  18  22
ATOM     19  C   UNL     1       6.545   4.743  15.053  0.00  0.00    +0.000 A 
ATOM     20  C   UNL     1       7.132   4.273  16.219  0.00  0.00    +0.000 A 
ATOM     21  C   UNL     1       6.716   4.736  17.460  0.00  0.00    +0.000 A 
ATOM     22  C   UNL     1       5.730   5.702  17.589  0.00  0.00    +0.000 A 
ATOM     23  C   UNL     1       5.137   6.193  16.425  0.00  0.00    +0.000 A 
ATOM     24  C   UNL     1       5.553   5.727  15.160  0.00  0.00    +0.000 A 
BRANCH  19  28
ATOM     25  C   UNL     1       6.794   3.158  11.642  0.00  0.00    +0.000 C 
ATOM     26  C   UNL     1       6.078   3.699  12.842  0.00  0.00    +0.000 C 
ATOM     27  O   UNL     1       4.852   3.620  12.913  0.00  0.00    +0.000 OA
ATOM     28  N   UNL     1       6.932   4.255  13.786  0.00  0.00    +0.000 N 
ATOM     29  H   UNL     1       7.895   4.402  13.515  0.00  0.00    +0.000 HD
ENDBRANCH  19  28
ENDBRANCH  18  22
ENDBRANCH  17  18
ENDBRANCH   1  17
TORSDOF 8
ENDMDL
MODEL 4
REMARK VINA RESULT:      -7.1      3.753      4.958
REMARK  Name = 
REMARK  9 active torsions:
REMARK  status: ('A' for Active; 'I' for Inactive)
REMARK    1  A    between atoms: C_1  and  C_2
REMARK    2  A    between atoms: N_4  and  C_5
REMARK    3  A    between atoms: C_8  and  O_9
REMARK    4  A    between atoms: O_9  and  C_10
REMARK    5  A    between atoms: C_10  and  C_11
REMARK    6  A    between atoms: C_11  and  C_17
REMARK    7  A    between atoms: N_12  and  N_13
REMARK    8  A    between atoms: N_13  and  C_14
REMARK    9  A    between atoms: C_14  and  N_15
REMARK                            x       y       z     vdW  Elec       q    Type
REMARK                         _______ _______ _______ _____ _____    ______ ____
ROOT
ATOM      1  C   UNL     1       4.412   5.327  17.005  0.00  0.00    +0.000 C 
ATOM      2  N   UNL     1       4.939   4.718  15.978  0.00  0.00    +0.000 NA
ENDROOT
BRANCH   1   3
ATOM      3  C   UNL     1       3.680   4.496  18.025  0.00  0.00    +0.000 A 
ATOM      4  C   UNL     1       2.290   4.332  17.971  0.00  0.00    +0.000 A 
ATOM      5  C   UNL     1       1.607   3.731  19.034  0.00  0.00    +0.000 A 
ATOM      6  C   UNL     1       2.316   3.273  20.143  0.00  0.00    +0.000 A 
ATOM      7 BR   UNL     1       1.383   2.493  21.590  0.00  0.00    +0.000 Br
ATOM      8  C   UNL     1       3.703   3.398  20.195  0.00  0.00    +0.000 A 
ATOM      9  C   UNL     1       4.386   4.006  19.135  0.00  0.00    +0.000 A 
ENDBRANCH   1   3
BRANCH   2  10
ATOM     10  N   UNL     1       5.616   5.487  15.073  0.00  0.00    +0.000 N 
ATOM     11  H   UNL     1       5.438   6.484  15.000  0.00  0.00    +0.000 HD
BRANCH  10  12
ATOM     12  C   UNL     1       6.593   4.970  14.272  0.00  0.00    +0.000 C 
ATOM     13  S   UNL     1       6.282   3.773  13.165  0.00  0.00    +0.000 S 
BRANCH  12  14
ATOM     14  N   UNL     1       7.832   5.487  14.434  0.00  0.00    +0.000 N 
ATOM     15  H   UNL     1       8.614   4.936  14.101  0.00  0.00    +0.000 HD
ATOM     16  H   UNL     1       7.979   6.357  14.923  0.00  0.00    +0.000 HD
ENDBRANCH  12  14
ENDBRANCH  10  12
ENDBRANCH   2  10
BRANCH   1  17
ATOM     17  C   UNL     1       4.520   6.850  17.269  0.00  0.00    +0.000 C 
BRANCH  17  18
ATOM     18  O   UNL     1       3.406   7.637  16.834  0.00  0.00    +0.000 OA
BRANCH  18  22
ATOM     19  C   UNL     1       0.965   9.074  19.937  0.00  0.00    +0.000 A 
ATOM     20  C   UNL     1       1.016   9.737  18.720  0.00  0.00    +0.000 A 
ATOM     21  C   UNL     1       1.813   9.266  17.687  0.00  0.00    +0.000 A 
ATOM     22  C   UNL     1       2.613   8.142  17.832  0.00  0.00    +0.000 A 
ATOM     23  C   UNL     1       2.582   7.471  19.054  0.00  0.00    +0.000 A 
ATOM     24  C   UNL     1       1.774   7.942  20.109  0.00  0.00    +0.000 A 
BRANCH  19  28
ATOM     25  C   UNL     1      -0.616  10.047  23.218  0.00  0.00    +0.000 C 
ATOM     26  C   UNL     1       0.517   9.676  22.311  0.00  0.00    +0.000 C 
ATOM     27  O   UNL     1       1.651   9.538  22.770  0.00  0.00    +0.000 OA
ATOM     28  N   UNL     1       0.131   9.521  20.985  0.00  0.00    +0.000 N 
ATOM     29  H   UNL     1      -0.796   9.832  20.729  0.00  0.00    +0.000 HD
ENDBRANCH  19  28
ENDBRANCH  18  22
ENDBRANCH  17  18
ENDBRANCH   1  17
TORSDOF 8
ENDMDL
MODEL 5
REMARK VINA RESULT:      -7.1      3.006      5.715
REMARK  Name = 
REMARK  9 active torsions:
REMARK  status: ('A' for Active; 'I' for Inactive)
REMARK    1  A    between atoms: C_1  and  C_2
REMARK    2  A    between atoms: N_4  and  C_5
REMARK    3  A    between atoms: C_8  and  O_9
REMARK    4  A    between atoms: O_9  and  C_10
REMARK    5  A    between atoms: C_10  and  C_11
REMARK    6  A    between atoms: C_11  and  C_17
REMARK    7  A    between atoms: N_12  and  N_13
REMARK    8  A    between atoms: N_13  and  C_14
REMARK    9  A    between atoms: C_14  and  N_15
REMARK                            x       y       z     vdW  Elec       q    Type
REMARK                         _______ _______ _______ _____ _____    ______ ____
ROOT
ATOM      1  C   UNL     1       3.893   5.318  18.444  0.00  0.00    +0.000 C 
ATOM      2  N   UNL     1       4.123   4.571  19.489  0.00  0.00    +0.000 NA
ENDROOT
BRANCH   1   3
ATOM      3  C   UNL     1       3.015   6.528  18.614  0.00  0.00    +0.000 A 
ATOM      4  C   UNL     1       2.953   7.529  17.636  0.00  0.00    +0.000 A 
ATOM      5  C   UNL     1       2.294   8.734  17.899  0.00  0.00    +0.000 A 
ATOM      6  C   UNL     1       1.678   8.933  19.132  0.00  0.00    +0.000 A 
ATOM      7 BR   UNL     1       0.819  10.578  19.492  0.00  0.00    +0.000 Br
ATOM      8  C   UNL     1       1.702   7.933  20.103  0.00  0.00    +0.000 A 
ATOM      9  C   UNL     1       2.366   6.729  19.843  0.00  0.00    +0.000 A 
ENDBRANCH   1   3
BRANCH   2  10
ATOM     10  N   UNL     1       4.939   3.487  19.318  0.00  0.00    +0.000 N 
ATOM     11  H   UNL     1       5.930   3.606  19.128  0.00  0.00    +0.000 HD
BRANCH  10  12
ATOM     12  C   UNL     1       4.481   2.208  19.450  0.00  0.00    +0.000 C 
ATOM     13  S   UNL     1       3.136   1.668  18.643  0.00  0.00    +0.000 S 
BRANCH  12  14
ATOM     14  N   UNL     1       5.185   1.406  20.280  0.00  0.00    +0.000 N 
ATOM     15  H   UNL     1       6.019   0.968  19.909  0.00  0.00    +0.000 HD
ATOM     16  H   UNL     1       4.860   1.199  21.213  0.00  0.00    +0.000 HD
ENDBRANCH  12  14
ENDBRANCH  10  12
ENDBRANCH   2  10
BRANCH   1  17
ATOM     17  C   UNL     1       4.497   5.065  17.038  0.00  0.00    +0.000 C 
BRANCH  17  18
ATOM     18  O   UNL     1       5.911   4.844  16.999  0.00  0.00    +0.000 OA
BRANCH  18  22
ATOM     19  C   UNL     1       8.275   7.954  18.546  0.00  0.00    +0.000 A 
ATOM     20  C   UNL     1       7.440   8.180  17.462  0.00  0.00    +0.000 A 
ATOM     21  C   UNL     1       6.650   7.161  16.949  0.00  0.00    +0.000 A 
ATOM     22  C   UNL     1       6.683   5.876  17.469  0.00  0.00    +0.000 A 
ATOM     23  C   UNL     1       7.527   5.629  18.552  0.00  0.00    +0.000 A 
ATOM     24  C   UNL     1       8.332   6.660  19.080  0.00  0.00    +0.000 A 
BRANCH  19  28
ATOM     25  C   UNL     1      10.094  11.152  19.369  0.00  0.00    +0.000 C 
ATOM     26  C   UNL     1       9.073  10.309  18.667  0.00  0.00    +0.000 C 
ATOM     27  O   UNL     1       8.355  10.809  17.801  0.00  0.00    +0.000 OA
ATOM     28  N   UNL     1       9.058   8.990  19.101  0.00  0.00    +0.000 N 
ATOM     29  H   UNL     1       9.585   8.766  19.935  0.00  0.00    +0.000 HD
ENDBRANCH  19  28
ENDBRANCH  18  22
ENDBRANCH  17  18
ENDBRANCH   1  17
TORSDOF 8
ENDMDL
MODEL 6
REMARK VINA RESULT:      -7.1      2.876      3.377
REMARK  Name = 
REMARK  9 active torsions:
REMARK  status: ('A' for Active; 'I' for Inactive)
REMARK    1  A    between atoms: C_1  and  C_2
REMARK    2  A    between atoms: N_4  and  C_5
REMARK    3  A    between atoms: C_8  and  O_9
REMARK    4  A    between atoms: O_9  and  C_10
REMARK    5  A    between atoms: C_10  and  C_11
REMARK    6  A    between atoms: C_11  and  C_17
REMARK    7  A    between atoms: N_12  and  N_13
REMARK    8  A    between atoms: N_13  and  C_14
REMARK    9  A    between atoms: C_14  and  N_15
REMARK                            x       y       z     vdW  Elec       q    Type
REMARK                         _______ _______ _______ _____ _____    ______ ____
ROOT
ATOM      1  C   UNL     1       4.603   4.210  18.645  0.00  0.00    +0.000 C 
ATOM      2  N   UNL     1       4.108   3.060  19.011  0.00  0.00    +0.000 NA
ENDROOT
BRANCH   1   3
ATOM      3  C   UNL     1       5.407   4.265  17.374  0.00  0.00    +0.000 A 
ATOM      4  C   UNL     1       6.762   4.625  17.381  0.00  0.00    +0.000 A 
ATOM      5  C   UNL     1       7.435   4.867  16.180  0.00  0.00    +0.000 A 
ATOM      6  C   UNL     1       6.763   4.730  14.967  0.00  0.00    +0.000 A 
ATOM      7 BR   UNL     1       7.671   5.092  13.350  0.00  0.00    +0.000 Br
ATOM      8  C   UNL     1       5.425   4.339  14.943  0.00  0.00    +0.000 A 
ATOM      9  C   UNL     1       4.748   4.103  16.145  0.00  0.00    +0.000 A 
ENDBRANCH   1   3
BRANCH   2  10
ATOM     10  N   UNL     1       3.364   3.033  20.158  0.00  0.00    +0.000 N 
ATOM     11  H   UNL     1       3.800   3.175  21.065  0.00  0.00    +0.000 HD
BRANCH  10  12
ATOM     12  C   UNL     1       2.008   2.874  20.138  0.00  0.00    +0.000 C 
ATOM     13  S   UNL     1       1.217   2.239  18.826  0.00  0.00    +0.000 S 
BRANCH  12  14
ATOM     14  N   UNL     1       1.346   3.269  21.248  0.00  0.00    +0.000 N 
ATOM     15  H   UNL     1       1.829   3.891  21.883  0.00  0.00    +0.000 HD
ATOM     16  H   UNL     1       0.429   2.908  21.470  0.00  0.00    +0.000 HD
ENDBRANCH  12  14
ENDBRANCH  10  12
ENDBRANCH   2  10
BRANCH   1  17
ATOM     17  C   UNL     1       4.388   5.540  19.413  0.00  0.00    +0.000 C 
BRANCH  17  18
ATOM     18  O   UNL     1       3.049   5.797  19.846  0.00  0.00    +0.000 OA
BRANCH  18  22
ATOM     19  C   UNL     1       1.331   9.451  18.683  0.00  0.00    +0.000 A 
ATOM     20  C   UNL     1       2.122   8.734  17.798  0.00  0.00    +0.000 A 
ATOM     21  C   UNL     1       2.687   7.523  18.170  0.00  0.00    +0.000 A 
ATOM     22  C   UNL     1       2.517   6.995  19.442  0.00  0.00    +0.000 A 
ATOM     23  C   UNL     1       1.733   7.710  20.348  0.00  0.00    +0.000 A 
ATOM     24  C   UNL     1       1.154   8.941  19.976  0.00  0.00    +0.000 A 
BRANCH  19  28
ATOM     25  C   UNL     1       0.020  12.974  18.396  0.00  0.00    +0.000 C 
ATOM     26  C   UNL     1       0.894  11.888  18.946  0.00  0.00    +0.000 C 
ATOM     27  O   UNL     1       1.665  12.130  19.874  0.00  0.00    +0.000 OA
ATOM     28  N   UNL     1       0.719  10.667  18.306  0.00  0.00    +0.000 N 
ATOM     29  H   UNL     1       0.178  10.660  17.452  0.00  0.00    +0.000 HD
ENDBRANCH  19  28
ENDBRANCH  18  22
ENDBRANCH  17  18
ENDBRANCH   1  17
TORSDOF 8
ENDMDL
MODEL 7
REMARK VINA RESULT:      -7.1      1.116      1.153
REMARK  Name = 
REMARK  9 active torsions:
REMARK  status: ('A' for Active; 'I' for Inactive)
REMARK    1  A    between atoms: C_1  and  C_2
REMARK    2  A    between atoms: N_4  and  C_5
REMARK    3  A    between atoms: C_8  and  O_9
REMARK    4  A    between atoms: O_9  and  C_10
REMARK    5  A    between atoms: C_10  and  C_11
REMARK    6  A    between atoms: C_11  and  C_17
REMARK    7  A    between atoms: N_12  and  N_13
REMARK    8  A    between atoms: N_13  and  C_14
REMARK    9  A    between atoms: C_14  and  N_15
REMARK                            x       y       z     vdW  Elec       q    Type
REMARK                         _______ _______ _______ _____ _____    ______ ____
ROOT
ATOM      1  C   UNL     1       5.529   5.007  18.033  0.00  0.00    +0.000 C 
ATOM      2  N   UNL     1       5.816   3.973  18.776  0.00  0.00    +0.000 NA
ENDROOT
BRANCH   1   3
ATOM      3  C   UNL     1       6.511   6.148  17.995  0.00  0.00    +0.000 A 
ATOM      4  C   UNL     1       7.645   6.164  18.818  0.00  0.00    +0.000 A 
ATOM      5  C   UNL     1       8.431   7.316  18.915  0.00  0.00    +0.000 A 
ATOM      6  C   UNL     1       8.099   8.448  18.174  0.00  0.00    +0.000 A 
ATOM      7 BR   UNL     1       9.147  10.012  18.338  0.00  0.00    +0.000 Br
ATOM      8  C   UNL     1       6.994   8.435  17.325  0.00  0.00    +0.000 A 
ATOM      9  C   UNL     1       6.202   7.285  17.231  0.00  0.00    +0.000 A 
ENDBRANCH   1   3
BRANCH   2  10
ATOM     10  N   UNL     1       4.921   2.939  18.783  0.00  0.00    +0.000 N 
ATOM     11  H   UNL     1       4.608   2.515  17.914  0.00  0.00    +0.000 HD
BRANCH  10  12
ATOM     12  C   UNL     1       4.454   2.394  19.944  0.00  0.00    +0.000 C 
ATOM     13  S   UNL     1       2.992   2.833  20.595  0.00  0.00    +0.000 S 
BRANCH  12  14
ATOM     14  N   UNL     1       5.252   1.478  20.536  0.00  0.00    +0.000 N 
ATOM     15  H   UNL     1       5.702   0.797  19.938  0.00  0.00    +0.000 HD
ATOM     16  H   UNL     1       5.348   1.433  21.540  0.00  0.00    +0.000 HD
ENDBRANCH  12  14
ENDBRANCH  10  12
ENDBRANCH   2  10
BRANCH   1  17
ATOM     17  C   UNL     1       4.258   5.129  17.154  0.00  0.00    +0.000 C 
BRANCH  17  18
ATOM     18  O   UNL     1       3.011   5.098  17.857  0.00  0.00    +0.000 OA
BRANCH  18  22
ATOM     19  C   UNL     1       1.667   8.719  19.511  0.00  0.00    +0.000 A 
ATOM     20  C   UNL     1       2.002   8.642  18.167  0.00  0.00    +0.000 A 
ATOM     21  C   UNL     1       2.439   7.449  17.610  0.00  0.00    +0.000 A 
ATOM     22  C   UNL     1       2.593   6.299  18.370  0.00  0.00    +0.000 A 
ATOM     23  C   UNL     1       2.271   6.362  19.726  0.00  0.00    +0.000 A 
ATOM     24  C   UNL     1       1.824   7.571  20.299  0.00  0.00    +0.000 A 
BRANCH  19  28
ATOM     25  C   UNL     1      -0.258  11.799  20.518  0.00  0.00    +0.000 C 
ATOM     26  C   UNL     1      -0.077  10.457  19.878  0.00  0.00    +0.000 C 
ATOM     27  O   UNL     1      -1.003   9.948  19.246  0.00  0.00    +0.000 OA
ATOM     28  N   UNL     1       1.186   9.916  20.084  0.00  0.00    +0.000 N 
ATOM     29  H   UNL     1       1.782  10.369  20.764  0.00  0.00    +0.000 HD
ENDBRANCH  19  28
ENDBRANCH  18  22
ENDBRANCH  17  18
ENDBRANCH   1  17
TORSDOF 8
ENDMDL
MODEL 8
REMARK VINA RESULT:      -7.1      3.488      7.077
REMARK  Name = 
REMARK  9 active torsions:
REMARK  status: ('A' for Active; 'I' for Inactive)
REMARK    1  A    between atoms: C_1  and  C_2
REMARK    2  A    between atoms: N_4  and  C_5
REMARK    3  A    between atoms: C_8  and  O_9
REMARK    4  A    between atoms: O_9  and  C_10
REMARK    5  A    between atoms: C_10  and  C_11
REMARK    6  A    between atoms: C_11  and  C_17
REMARK    7  A    between atoms: N_12  and  N_13
REMARK    8  A    between atoms: N_13  and  C_14
REMARK    9  A    between atoms: C_14  and  N_15
REMARK                            x       y       z     vdW  Elec       q    Type
REMARK                         _______ _______ _______ _____ _____    ______ ____
ROOT
ATOM      1  C   UNL     1       2.371   6.608  19.284  0.00  0.00    +0.000 C 
ATOM      2  N   UNL     1       2.133   5.512  19.950  0.00  0.00    +0.000 NA
ENDROOT
BRANCH   1   3
ATOM      3  C   UNL     1       1.823   7.901  19.826  0.00  0.00    +0.000 A 
ATOM      4  C   UNL     1       1.392   8.012  21.155  0.00  0.00    +0.000 A 
ATOM      5  C   UNL     1       0.703   9.152  21.581  0.00  0.00    +0.000 A 
ATOM      6  C   UNL     1       0.460  10.192  20.687  0.00  0.00    +0.000 A 
ATOM      7 BR   UNL     1      -0.502  11.713  21.262  0.00  0.00    +0.000 Br
ATOM      8  C   UNL     1       0.912  10.110  19.371  0.00  0.00    +0.000 A 
ATOM      9  C   UNL     1       1.597   8.967  18.941  0.00  0.00    +0.000 A 
ENDBRANCH   1   3
BRANCH   2  10
ATOM     10  N   UNL     1       2.655   4.350  19.453  0.00  0.00    +0.000 N 
ATOM     11  H   UNL     1       2.938   4.280  18.479  0.00  0.00    +0.000 HD
BRANCH  10  12
ATOM     12  C   UNL     1       2.874   3.258  20.243  0.00  0.00    +0.000 C 
ATOM     13  S   UNL     1       1.941   2.936  21.576  0.00  0.00    +0.000 S 
BRANCH  12  14
ATOM     14  N   UNL     1       3.898   2.454  19.878  0.00  0.00    +0.000 N 
ATOM     15  H   UNL     1       4.756   2.522  20.410  0.00  0.00    +0.000 HD
ATOM     16  H   UNL     1       3.833   1.855  19.068  0.00  0.00    +0.000 HD
ENDBRANCH  12  14
ENDBRANCH  10  12
ENDBRANCH   2  10
BRANCH   1  17
ATOM     17  C   UNL     1       3.215   6.678  17.986  0.00  0.00    +0.000 C 
BRANCH  17  18
ATOM     18  O   UNL     1       4.568   6.225  18.099  0.00  0.00    +0.000 OA
BRANCH  18  22
ATOM     19  C   UNL     1       5.994   4.173  14.721  0.00  0.00    +0.000 A 
ATOM     20  C   UNL     1       5.751   3.492  15.905  0.00  0.00    +0.000 A 
ATOM     21  C   UNL     1       5.273   4.160  17.023  0.00  0.00    +0.000 A 
ATOM     22  C   UNL     1       5.050   5.529  17.020  0.00  0.00    +0.000 A 
ATOM     23  C   UNL     1       5.301   6.230  15.840  0.00  0.00    +0.000 A 
ATOM     24  C   UNL     1       5.786   5.559  14.698  0.00  0.00    +0.000 A 
BRANCH  19  28
ATOM     25  C   UNL     1       6.391   2.373  11.433  0.00  0.00    +0.000 C 
ATOM     26  C   UNL     1       5.670   3.201  12.453  0.00  0.00    +0.000 C 
ATOM     27  O   UNL     1       4.504   3.542  12.253  0.00  0.00    +0.000 OA
ATOM     28  N   UNL     1       6.447   3.501  13.565  0.00  0.00    +0.000 N 
ATOM     29  H   UNL     1       7.436   3.298  13.512  0.00  0.00    +0.000 HD
ENDBRANCH  19  28
ENDBRANCH  18  22
ENDBRANCH  17  18
ENDBRANCH   1  17
TORSDOF 8
ENDMDL
MODEL 9
REMARK VINA RESULT:      -7.1      3.457      6.828
REMARK  Name = 
REMARK  9 active torsions:
REMARK  status: ('A' for Active; 'I' for Inactive)
REMARK    1  A    between atoms: C_1  and  C_2
REMARK    2  A    between atoms: N_4  and  C_5
REMARK    3  A    between atoms: C_8  and  O_9
REMARK    4  A    between atoms: O_9  and  C_10
REMARK    5  A    between atoms: C_10  and  C_11
REMARK    6  A    between atoms: C_11  and  C_17
REMARK    7  A    between atoms: N_12  and  N_13
REMARK    8  A    between atoms: N_13  and  C_14
REMARK    9  A    between atoms: C_14  and  N_15
REMARK                            x       y       z     vdW  Elec       q    Type
REMARK                         _______ _______ _______ _____ _____    ______ ____
ROOT
ATOM      1  C   UNL     1       3.281   5.858  18.907  0.00  0.00    +0.000 C 
ATOM      2  N   UNL     1       2.542   4.784  18.846  0.00  0.00    +0.000 NA
ENDROOT
BRANCH   1   3
ATOM      3  C   UNL     1       2.594   7.185  19.079  0.00  0.00    +0.000 A 
ATOM      4  C   UNL     1       1.975   7.536  20.286  0.00  0.00    +0.000 A 
ATOM      5  C   UNL     1       1.171   8.679  20.362  0.00  0.00    +0.000 A 
ATOM      6  C   UNL     1       1.002   9.484  19.238  0.00  0.00    +0.000 A 
ATOM      7 BR   UNL     1      -0.113  11.007  19.340  0.00  0.00    +0.000 Br
ATOM      8  C   UNL     1       1.639   9.166  18.040  0.00  0.00    +0.000 A 
ATOM      9  C   UNL     1       2.438   8.020  17.960  0.00  0.00    +0.000 A 
ENDBRANCH   1   3
BRANCH   2  10
ATOM     10  N   UNL     1       3.186   3.586  18.710  0.00  0.00    +0.000 N 
ATOM     11  H   UNL     1       3.569   3.299  17.813  0.00  0.00    +0.000 HD
BRANCH  10  12
ATOM     12  C   UNL     1       3.395   2.751  19.770  0.00  0.00    +0.000 C 
ATOM     13  S   UNL     1       2.494   2.853  21.159  0.00  0.00    +0.000 S 
BRANCH  12  14
ATOM     14  N   UNL     1       4.380   1.838  19.624  0.00  0.00    +0.000 N 
ATOM     15  H   UNL     1       5.195   1.932  20.217  0.00  0.00    +0.000 HD
ATOM     16  H   UNL     1       4.337   1.126  18.909  0.00  0.00    +0.000 HD
ENDBRANCH  12  14
ENDBRANCH  10  12
ENDBRANCH   2  10
BRANCH   1  17
ATOM     17  C   UNL     1       4.831   5.857  18.852  0.00  0.00    +0.000 C 
BRANCH  17  18
ATOM     18  O   UNL     1       5.413   6.514  17.720  0.00  0.00    +0.000 OA
BRANCH  18  22
ATOM     19  C   UNL     1       6.105   4.040  14.395  0.00  0.00    +0.000 A 
ATOM     20  C   UNL     1       5.571   5.309  14.227  0.00  0.00    +0.000 A 
ATOM     21  C   UNL     1       5.345   6.136  15.318  0.00  0.00    +0.000 A 
ATOM     22  C   UNL     1       5.610   5.725  16.616  0.00  0.00    +0.000 A 
ATOM     23  C   UNL     1       6.138   4.447  16.804  0.00  0.00    +0.000 A 
ATOM     24  C   UNL     1       6.371   3.601  15.699  0.00  0.00    +0.000 A 
BRANCH  19  28
ATOM     25  C   UNL     1       6.022   1.948  11.261  0.00  0.00    +0.000 C 
ATOM     26  C   UNL     1       5.518   2.985  12.219  0.00  0.00    +0.000 C 
ATOM     27  O   UNL     1       4.443   3.544  12.008  0.00  0.00    +0.000 OA
ATOM     28  N   UNL     1       6.374   3.201  13.292  0.00  0.00    +0.000 N 
ATOM     29  H   UNL     1       7.298   2.794  13.242  0.00  0.00    +0.000 HD
ENDBRANCH  19  28
ENDBRANCH  18  22
ENDBRANCH  17  18
ENDBRANCH   1  17
TORSDOF 8
ENDMDL
