MODEL 1
REMARK VINA RESULT:      -9.3      0.000      0.000
REMARK  Name = 
REMARK  4 active torsions:
REMARK  status: ('A' for Active; 'I' for Inactive)
REMARK    1  A    between atoms: C_2  and  C_10
REMARK    2  A    between atoms: C_16  and  C_17
REMARK    3  A    between atoms: C_21  and  C_22
REMARK    4  A    between atoms: C_22  and  N_23
REMARK                            x       y       z     vdW  Elec       q    Type
REMARK                         _______ _______ _______ _____ _____    ______ ____
ROOT
ATOM      1  C   UNL     1       3.802   3.846  17.878  0.00  0.00    +0.000 A 
ATOM      2  N   UNL     1       3.680   2.508  18.009  0.00  0.00    +0.000 NA
ATOM      3  N   UNL     1       2.920   2.366  19.115  0.00  0.00    +0.000 N 
ATOM      4  C   UNL     1       2.497   3.544  19.667  0.00  0.00    +0.000 A 
ATOM      5  C   UNL     1       1.730   3.833  20.798  0.00  0.00    +0.000 A 
ATOM      6  C   UNL     1       1.448   5.186  21.058  0.00  0.00    +0.000 A 
ATOM      7  C   UNL     1       1.910   6.227  20.232  0.00  0.00    +0.000 A 
ATOM      8  C   UNL     1       2.722   5.880  19.135  0.00  0.00    +0.000 A 
ATOM      9  C   UNL     1       3.017   4.533  18.847  0.00  0.00    +0.000 A 
ATOM     10  H   UNL     1       2.729   1.427  19.449  0.00  0.00    +0.000 HD
ENDROOT
BRANCH   1  12
ATOM     11  O   UNL     1       4.777   5.697  16.787  0.00  0.00    +0.000 OA
ATOM     12  C   UNL     1       4.677   4.471  16.881  0.00  0.00    +0.000 C 
ATOM     13  N   UNL     1       5.338   3.586  16.057  0.00  0.00    +0.000 N 
ATOM     14  C   UNL     1       6.169   4.040  15.032  0.00  0.00    +0.000 A 
ATOM     15  C   UNL     1       7.129   5.029  15.254  0.00  0.00    +0.000 A 
ATOM     16  N   UNL     1       7.912   5.535  14.268  0.00  0.00    +0.000 NA
ATOM     17  C   UNL     1       7.666   5.030  13.040  0.00  0.00    +0.000 A 
ATOM     18  C   UNL     1       6.725   4.039  12.821  0.00  0.00    +0.000 A 
ATOM     19  N   UNL     1       5.987   3.487  13.815  0.00  0.00    +0.000 NA
ATOM     20  H   UNL     1       4.891   2.685  15.932  0.00  0.00    +0.000 HD
ENDBRANCH   1  12
BRANCH   7  21
ATOM     21  C   UNL     1       1.568   7.644  20.477  0.00  0.00    +0.000 A 
ATOM     22  C   UNL     1       1.735   8.267  21.716  0.00  0.00    +0.000 A 
ATOM     23  N   UNL     1       1.450   9.567  21.982  0.00  0.00    +0.000 NA
ATOM     24  C   UNL     1       0.988  10.312  20.953  0.00  0.00    +0.000 A 
ATOM     25  C   UNL     1       0.781   9.820  19.673  0.00  0.00    +0.000 A 
ATOM     26  C   UNL     1       1.063   8.464  19.455  0.00  0.00    +0.000 A 
BRANCH  25  27
ATOM     27  C   UNL     1       0.247  10.690  18.565  0.00  0.00    +0.000 C 
BRANCH  27  28
ATOM     28  N   UNL     1      -1.225  10.672  18.416  0.00  0.00    +0.000 NA
ATOM     29  C   UNL     1      -1.813  12.005  18.591  0.00  0.00    +0.000 C 
ATOM     30  C   UNL     1      -3.287  11.947  19.010  0.00  0.00    +0.000 C 
ATOM     31  C   UNL     1      -4.279  11.745  17.874  0.00  0.00    +0.000 C 
ATOM     32  C   UNL     1      -4.085  10.452  17.096  0.00  0.00    +0.000 C 
ATOM     33  C   UNL     1      -2.770  10.432  16.334  0.00  0.00    +0.000 C 
ATOM     34  C   UNL     1      -1.567   9.978  17.163  0.00  0.00    +0.000 C 
ENDBRANCH  27  28
ENDBRANCH  25  27
ENDBRANCH   7  21
TORSDOF 4
ENDMDL
MODEL 2
REMARK VINA RESULT:      -9.0      0.428      1.142
REMARK  Name = 
REMARK  4 active torsions:
REMARK  status: ('A' for Active; 'I' for Inactive)
REMARK    1  A    between atoms: C_2  and  C_10
REMARK    2  A    between atoms: C_16  and  C_17
REMARK    3  A    between atoms: C_21  and  C_22
REMARK    4  A    between atoms: C_22  and  N_23
REMARK                            x       y       z     vdW  Elec       q    Type
REMARK                         _______ _______ _______ _____ _____    ______ ____
ROOT
ATOM      1  C   UNL     1       3.829   3.921  17.778  0.00  0.00    +0.000 A 
ATOM      2  N   UNL     1       3.701   2.586  17.927  0.00  0.00    +0.000 NA
ATOM      3  N   UNL     1       2.954   2.462  19.044  0.00  0.00    +0.000 N 
ATOM      4  C   UNL     1       2.544   3.650  19.586  0.00  0.00    +0.000 A 
ATOM      5  C   UNL     1       1.792   3.957  20.723  0.00  0.00    +0.000 A 
ATOM      6  C   UNL     1       1.521   5.315  20.969  0.00  0.00    +0.000 A 
ATOM      7  C   UNL     1       1.979   6.342  20.125  0.00  0.00    +0.000 A 
ATOM      8  C   UNL     1       2.775   5.977  19.022  0.00  0.00    +0.000 A 
ATOM      9  C   UNL     1       3.059   4.624  18.748  0.00  0.00    +0.000 A 
ATOM     10  H   UNL     1       2.762   1.529  19.392  0.00  0.00    +0.000 HD
ENDROOT
BRANCH   1  12
ATOM     11  O   UNL     1       4.803   5.753  16.653  0.00  0.00    +0.000 OA
ATOM     12  C   UNL     1       4.695   4.529  16.763  0.00  0.00    +0.000 C 
ATOM     13  N   UNL     1       5.339   3.630  15.941  0.00  0.00    +0.000 N 
ATOM     14  C   UNL     1       6.160   4.067  14.900  0.00  0.00    +0.000 A 
ATOM     15  C   UNL     1       7.129   5.051  15.098  0.00  0.00    +0.000 A 
ATOM     16  N   UNL     1       7.904   5.540  14.096  0.00  0.00    +0.000 NA
ATOM     17  C   UNL     1       7.638   5.023  12.878  0.00  0.00    +0.000 A 
ATOM     18  C   UNL     1       6.688   4.036  12.682  0.00  0.00    +0.000 A 
ATOM     19  N   UNL     1       5.959   3.501  13.692  0.00  0.00    +0.000 NA
ATOM     20  H   UNL     1       4.885   2.731  15.832  0.00  0.00    +0.000 HD
ENDBRANCH   1  12
BRANCH   7  21
ATOM     21  C   UNL     1       1.648   7.765  20.356  0.00  0.00    +0.000 A 
ATOM     22  C   UNL     1       1.536   8.325  21.629  0.00  0.00    +0.000 A 
ATOM     23  N   UNL     1       1.250   9.626  21.888  0.00  0.00    +0.000 NA
ATOM     24  C   UNL     1       1.082  10.438  20.820  0.00  0.00    +0.000 A 
ATOM     25  C   UNL     1       1.171  10.011  19.504  0.00  0.00    +0.000 A 
ATOM     26  C   UNL     1       1.440   8.653  19.287  0.00  0.00    +0.000 A 
BRANCH  25  27
ATOM     27  C   UNL     1       0.958  10.954  18.348  0.00  0.00    +0.000 C 
BRANCH  27  28
ATOM     28  N   UNL     1      -0.449  11.102  17.918  0.00  0.00    +0.000 NA
ATOM     29  C   UNL     1      -1.106   9.805  17.724  0.00  0.00    +0.000 C 
ATOM     30  C   UNL     1      -2.304   9.888  16.770  0.00  0.00    +0.000 C 
ATOM     31  C   UNL     1      -3.606  10.364  17.399  0.00  0.00    +0.000 C 
ATOM     32  C   UNL     1      -3.537  11.761  17.999  0.00  0.00    +0.000 C 
ATOM     33  C   UNL     1      -2.600  11.827  19.195  0.00  0.00    +0.000 C 
ATOM     34  C   UNL     1      -1.129  12.035  18.833  0.00  0.00    +0.000 C 
ENDBRANCH  27  28
ENDBRANCH  25  27
ENDBRANCH   7  21
TORSDOF 4
ENDMDL
MODEL 3
REMARK VINA RESULT:      -9.0      1.826      2.627
REMARK  Name = 
REMARK  4 active torsions:
REMARK  status: ('A' for Active; 'I' for Inactive)
REMARK    1  A    between atoms: C_2  and  C_10
REMARK    2  A    between atoms: C_16  and  C_17
REMARK    3  A    between atoms: C_21  and  C_22
REMARK    4  A    between atoms: C_22  and  N_23
REMARK                            x       y       z     vdW  Elec       q    Type
REMARK                         _______ _______ _______ _____ _____    ______ ____
ROOT
ATOM      1  C   UNL     1       3.930   3.741  17.663  0.00  0.00    +0.000 A 
ATOM      2  N   UNL     1       3.837   2.400  17.786  0.00  0.00    +0.000 NA
ATOM      3  N   UNL     1       3.089   2.235  18.896  0.00  0.00    +0.000 N 
ATOM      4  C   UNL     1       2.645   3.401  19.460  0.00  0.00    +0.000 A 
ATOM      5  C   UNL     1       1.880   3.665  20.598  0.00  0.00    +0.000 A 
ATOM      6  C   UNL     1       1.572   5.011  20.869  0.00  0.00    +0.000 A 
ATOM      7  C   UNL     1       2.006   6.066  20.047  0.00  0.00    +0.000 A 
ATOM      8  C   UNL     1       2.816   5.744  18.941  0.00  0.00    +0.000 A 
ATOM      9  C   UNL     1       3.137   4.405  18.642  0.00  0.00    +0.000 A 
ATOM     10  H   UNL     1       2.921   1.290  19.226  0.00  0.00    +0.000 HD
ENDROOT
BRANCH   1  12
ATOM     11  O   UNL     1       4.872   5.619  16.589  0.00  0.00    +0.000 OA
ATOM     12  C   UNL     1       4.784   4.392  16.664  0.00  0.00    +0.000 C 
ATOM     13  N   UNL     1       5.440   3.526  15.816  0.00  0.00    +0.000 N 
ATOM     14  C   UNL     1       6.252   4.006  14.786  0.00  0.00    +0.000 A 
ATOM     15  C   UNL     1       7.206   4.999  15.010  0.00  0.00    +0.000 A 
ATOM     16  N   UNL     1       7.970   5.529  14.021  0.00  0.00    +0.000 NA
ATOM     17  C   UNL     1       7.710   5.043  12.789  0.00  0.00    +0.000 A 
ATOM     18  C   UNL     1       6.774   4.047  12.567  0.00  0.00    +0.000 A 
ATOM     19  N   UNL     1       6.057   3.471  13.563  0.00  0.00    +0.000 NA
ATOM     20  H   UNL     1       5.000   2.623  15.681  0.00  0.00    +0.000 HD
ENDBRANCH   1  12
BRANCH   7  21
ATOM     21  C   UNL     1       1.635   7.475  20.303  0.00  0.00    +0.000 A 
ATOM     22  C   UNL     1       1.280   7.952  21.566  0.00  0.00    +0.000 A 
ATOM     23  N   UNL     1       0.949   9.237  21.851  0.00  0.00    +0.000 NA
ATOM     24  C   UNL     1       0.989  10.119  20.826  0.00  0.00    +0.000 A 
ATOM     25  C   UNL     1       1.330   9.777  19.526  0.00  0.00    +0.000 A 
ATOM     26  C   UNL     1       1.637   8.433  19.276  0.00  0.00    +0.000 A 
BRANCH  25  27
ATOM     27  C   UNL     1       1.344  10.795  18.416  0.00  0.00    +0.000 C 
BRANCH  27  28
ATOM     28  N   UNL     1       1.416  12.203  18.865  0.00  0.00    +0.000 NA
ATOM     29  C   UNL     1       2.453  12.957  18.152  0.00  0.00    +0.000 C 
ATOM     30  C   UNL     1       2.941  14.178  18.941  0.00  0.00    +0.000 C 
ATOM     31  C   UNL     1       2.069  15.419  18.826  0.00  0.00    +0.000 C 
ATOM     32  C   UNL     1       0.643  15.230  19.320  0.00  0.00    +0.000 C 
ATOM     33  C   UNL     1      -0.139  14.251  18.458  0.00  0.00    +0.000 C 
ATOM     34  C   UNL     1       0.063  12.782  18.832  0.00  0.00    +0.000 C 
ENDBRANCH  27  28
ENDBRANCH  25  27
ENDBRANCH   7  21
TORSDOF 4
ENDMDL
MODEL 4
REMARK VINA RESULT:      -8.9      2.106      2.844
REMARK  Name = 
REMARK  4 active torsions:
REMARK  status: ('A' for Active; 'I' for Inactive)
REMARK    1  A    between atoms: C_2  and  C_10
REMARK    2  A    between atoms: C_16  and  C_17
REMARK    3  A    between atoms: C_21  and  C_22
REMARK    4  A    between atoms: C_22  and  N_23
REMARK                            x       y       z     vdW  Elec       q    Type
REMARK                         _______ _______ _______ _____ _____    ______ ____
ROOT
ATOM      1  C   UNL     1       4.146   4.109  17.726  0.00  0.00    +0.000 A 
ATOM      2  N   UNL     1       4.157   2.800  18.055  0.00  0.00    +0.000 NA
ATOM      3  N   UNL     1       3.445   2.754  19.199  0.00  0.00    +0.000 N 
ATOM      4  C   UNL     1       2.924   3.958  19.592  0.00  0.00    +0.000 A 
ATOM      5  C   UNL     1       2.163   4.340  20.699  0.00  0.00    +0.000 A 
ATOM      6  C   UNL     1       1.760   5.685  20.771  0.00  0.00    +0.000 A 
ATOM      7  C   UNL     1       2.098   6.630  19.785  0.00  0.00    +0.000 A 
ATOM      8  C   UNL     1       2.910   6.200  18.717  0.00  0.00    +0.000 A 
ATOM      9  C   UNL     1       3.325   4.857  18.617  0.00  0.00    +0.000 A 
ATOM     10  H   UNL     1       3.354   1.862  19.673  0.00  0.00    +0.000 HD
ENDROOT
BRANCH   1  12
ATOM     11  O   UNL     1       4.994   5.871  16.405  0.00  0.00    +0.000 OA
ATOM     12  C   UNL     1       4.930   4.657  16.615  0.00  0.00    +0.000 C 
ATOM     13  N   UNL     1       5.549   3.712  15.825  0.00  0.00    +0.000 N 
ATOM     14  C   UNL     1       6.292   4.087  14.704  0.00  0.00    +0.000 A 
ATOM     15  C   UNL     1       7.241   5.108  14.764  0.00  0.00    +0.000 A 
ATOM     16  N   UNL     1       7.938   5.537  13.680  0.00  0.00    +0.000 NA
ATOM     17  C   UNL     1       7.614   4.918  12.525  0.00  0.00    +0.000 A 
ATOM     18  C   UNL     1       6.683   3.896  12.466  0.00  0.00    +0.000 A 
ATOM     19  N   UNL     1       6.034   3.423  13.558  0.00  0.00    +0.000 NA
ATOM     20  H   UNL     1       5.117   2.796  15.814  0.00  0.00    +0.000 HD
ENDBRANCH   1  12
BRANCH   7  21
ATOM     21  C   UNL     1       1.628   8.031  19.836  0.00  0.00    +0.000 A 
ATOM     22  C   UNL     1       1.684   8.895  18.741  0.00  0.00    +0.000 A 
ATOM     23  N   UNL     1       1.251  10.181  18.736  0.00  0.00    +0.000 NA
ATOM     24  C   UNL     1       0.705  10.644  19.883  0.00  0.00    +0.000 A 
ATOM     25  C   UNL     1       0.584   9.890  21.041  0.00  0.00    +0.000 A 
ATOM     26  C   UNL     1       1.072   8.576  21.005  0.00  0.00    +0.000 A 
BRANCH  25  27
ATOM     27  C   UNL     1      -0.018  10.459  22.300  0.00  0.00    +0.000 C 
BRANCH  27  28
ATOM     28  N   UNL     1      -0.915  11.617  22.090  0.00  0.00    +0.000 NA
ATOM     29  C   UNL     1      -1.987  11.672  23.090  0.00  0.00    +0.000 C 
ATOM     30  C   UNL     1      -3.210  12.457  22.599  0.00  0.00    +0.000 C 
ATOM     31  C   UNL     1      -3.111  13.969  22.737  0.00  0.00    +0.000 C 
ATOM     32  C   UNL     1      -1.959  14.594  21.964  0.00  0.00    +0.000 C 
ATOM     33  C   UNL     1      -0.605  14.168  22.507  0.00  0.00    +0.000 C 
ATOM     34  C   UNL     1      -0.096  12.834  21.958  0.00  0.00    +0.000 C 
ENDBRANCH  27  28
ENDBRANCH  25  27
ENDBRANCH   7  21
TORSDOF 4
ENDMDL
MODEL 5
REMARK VINA RESULT:      -8.9      1.330      2.039
REMARK  Name = 
REMARK  4 active torsions:
REMARK  status: ('A' for Active; 'I' for Inactive)
REMARK    1  A    between atoms: C_2  and  C_10
REMARK    2  A    between atoms: C_16  and  C_17
REMARK    3  A    between atoms: C_21  and  C_22
REMARK    4  A    between atoms: C_22  and  N_23
REMARK                            x       y       z     vdW  Elec       q    Type
REMARK                         _______ _______ _______ _____ _____    ______ ____
ROOT
ATOM      1  C   UNL     1       3.958   4.933  17.774  0.00  0.00    +0.000 A 
ATOM      2  N   UNL     1       3.895   3.697  18.312  0.00  0.00    +0.000 NA
ATOM      3  N   UNL     1       3.137   3.870  19.415  0.00  0.00    +0.000 N 
ATOM      4  C   UNL     1       2.659   5.142  19.581  0.00  0.00    +0.000 A 
ATOM      5  C   UNL     1       1.875   5.732  20.574  0.00  0.00    +0.000 A 
ATOM      6  C   UNL     1       1.533   7.086  20.407  0.00  0.00    +0.000 A 
ATOM      7  C   UNL     1       1.953   7.840  19.296  0.00  0.00    +0.000 A 
ATOM      8  C   UNL     1       2.784   7.207  18.352  0.00  0.00    +0.000 A 
ATOM      9  C   UNL     1       3.139   5.851  18.491  0.00  0.00    +0.000 A 
ATOM     10  H   UNL     1       2.986   3.073  20.023  0.00  0.00    +0.000 HD
ENDROOT
BRANCH   1  12
ATOM     11  O   UNL     1       5.033   6.425  16.295  0.00  0.00    +0.000 OA
ATOM     12  C   UNL     1       4.810   5.258  16.625  0.00  0.00    +0.000 C 
ATOM     13  N   UNL     1       5.301   4.165  15.944  0.00  0.00    +0.000 N 
ATOM     14  C   UNL     1       6.088   4.323  14.803  0.00  0.00    +0.000 A 
ATOM     15  C   UNL     1       7.164   5.212  14.774  0.00  0.00    +0.000 A 
ATOM     16  N   UNL     1       7.913   5.433  13.664  0.00  0.00    +0.000 NA
ATOM     17  C   UNL     1       7.513   4.748  12.571  0.00  0.00    +0.000 A 
ATOM     18  C   UNL     1       6.456   3.855  12.601  0.00  0.00    +0.000 A 
ATOM     19  N   UNL     1       5.749   3.585  13.726  0.00  0.00    +0.000 NA
ATOM     20  H   UNL     1       4.752   3.317  16.019  0.00  0.00    +0.000 HD
ENDBRANCH   1  12
BRANCH   7  21
ATOM     21  C   UNL     1       1.548   9.248  19.095  0.00  0.00    +0.000 A 
ATOM     22  C   UNL     1       2.296  10.158  18.346  0.00  0.00    +0.000 A 
ATOM     23  N   UNL     1       1.956  11.452  18.122  0.00  0.00    +0.000 NA
ATOM     24  C   UNL     1       0.788  11.877  18.655  0.00  0.00    +0.000 A 
ATOM     25  C   UNL     1      -0.051  11.075  19.416  0.00  0.00    +0.000 A 
ATOM     26  C   UNL     1       0.357   9.754  19.643  0.00  0.00    +0.000 A 
BRANCH  25  27
ATOM     27  C   UNL     1      -1.335  11.603  20.002  0.00  0.00    +0.000 C 
BRANCH  27  28
ATOM     28  N   UNL     1      -2.405  11.867  19.016  0.00  0.00    +0.000 NA
ATOM     29  C   UNL     1      -2.615  10.731  18.112  0.00  0.00    +0.000 C 
ATOM     30  C   UNL     1      -3.257  11.147  16.783  0.00  0.00    +0.000 C 
ATOM     31  C   UNL     1      -4.770  11.302  16.812  0.00  0.00    +0.000 C 
ATOM     32  C   UNL     1      -5.273  12.355  17.788  0.00  0.00    +0.000 C 
ATOM     33  C   UNL     1      -4.997  11.975  19.235  0.00  0.00    +0.000 C 
ATOM     34  C   UNL     1      -3.599  12.349  19.730  0.00  0.00    +0.000 C 
ENDBRANCH  27  28
ENDBRANCH  25  27
ENDBRANCH   7  21
TORSDOF 4
ENDMDL
MODEL 6
REMARK VINA RESULT:      -8.8      1.817      3.061
REMARK  Name = 
REMARK  4 active torsions:
REMARK  status: ('A' for Active; 'I' for Inactive)
REMARK    1  A    between atoms: C_2  and  C_10
REMARK    2  A    between atoms: C_16  and  C_17
REMARK    3  A    between atoms: C_21  and  C_22
REMARK    4  A    between atoms: C_22  and  N_23
REMARK                            x       y       z     vdW  Elec       q    Type
REMARK                         _______ _______ _______ _____ _____    ______ ____
ROOT
ATOM      1  C   UNL     1       3.197   6.086  19.235  0.00  0.00    +0.000 A 
ATOM      2  N   UNL     1       3.205   5.045  20.094  0.00  0.00    +0.000 NA
ATOM      3  N   UNL     1       2.362   5.435  21.072  0.00  0.00    +0.000 N 
ATOM      4  C   UNL     1       1.765   6.648  20.856  0.00  0.00    +0.000 A 
ATOM      5  C   UNL     1       0.866   7.404  21.613  0.00  0.00    +0.000 A 
ATOM      6  C   UNL     1       0.420   8.618  21.060  0.00  0.00    +0.000 A 
ATOM      7  C   UNL     1       0.848   9.078  19.801  0.00  0.00    +0.000 A 
ATOM      8  C   UNL     1       1.793   8.299  19.106  0.00  0.00    +0.000 A 
ATOM      9  C   UNL     1       2.255   7.076  19.633  0.00  0.00    +0.000 A 
ATOM     10  H   UNL     1       2.239   4.824  21.873  0.00  0.00    +0.000 HD
ENDROOT
BRANCH   1  12
ATOM     11  O   UNL     1       4.299   7.236  17.494  0.00  0.00    +0.000 OA
ATOM     12  C   UNL     1       4.094   6.169  18.078  0.00  0.00    +0.000 C 
ATOM     13  N   UNL     1       4.648   4.969  17.690  0.00  0.00    +0.000 N 
ATOM     14  C   UNL     1       5.484   4.889  16.576  0.00  0.00    +0.000 A 
ATOM     15  C   UNL     1       6.534   5.788  16.384  0.00  0.00    +0.000 A 
ATOM     16  N   UNL     1       7.329   5.776  15.284  0.00  0.00    +0.000 NA
ATOM     17  C   UNL     1       7.002   4.842  14.366  0.00  0.00    +0.000 A 
ATOM     18  C   UNL     1       5.970   3.939  14.560  0.00  0.00    +0.000 A 
ATOM     19  N   UNL     1       5.217   3.909  15.687  0.00  0.00    +0.000 NA
ATOM     20  H   UNL     1       4.119   4.140  17.938  0.00  0.00    +0.000 HD
ENDBRANCH   1  12
BRANCH   7  21
ATOM     21  C   UNL     1       0.336  10.327  19.199  0.00  0.00    +0.000 A 
ATOM     22  C   UNL     1       1.103  11.489  19.083  0.00  0.00    +0.000 A 
ATOM     23  N   UNL     1       0.681  12.651  18.524  0.00  0.00    +0.000 NA
ATOM     24  C   UNL     1      -0.575  12.667  18.025  0.00  0.00    +0.000 A 
ATOM     25  C   UNL     1      -1.439  11.583  18.071  0.00  0.00    +0.000 A 
ATOM     26  C   UNL     1      -0.968  10.413  18.683  0.00  0.00    +0.000 A 
BRANCH  25  27
ATOM     27  C   UNL     1      -2.837  11.658  17.515  0.00  0.00    +0.000 C 
BRANCH  27  28
ATOM     28  N   UNL     1      -3.912  11.450  18.509  0.00  0.00    +0.000 NA
ATOM     29  C   UNL     1      -4.143  12.644  19.330  0.00  0.00    +0.000 C 
ATOM     30  C   UNL     1      -4.792  12.314  20.680  0.00  0.00    +0.000 C 
ATOM     31  C   UNL     1      -6.303  12.138  20.651  0.00  0.00    +0.000 C 
ATOM     32  C   UNL     1      -6.785  11.014  19.746  0.00  0.00    +0.000 C 
ATOM     33  C   UNL     1      -6.502  11.295  18.279  0.00  0.00    +0.000 C 
ATOM     34  C   UNL     1      -5.095  10.904  17.822  0.00  0.00    +0.000 C 
ENDBRANCH  27  28
ENDBRANCH  25  27
ENDBRANCH   7  21
TORSDOF 4
ENDMDL
MODEL 7
REMARK VINA RESULT:      -8.7      3.218      6.466
REMARK  Name = 
REMARK  4 active torsions:
REMARK  status: ('A' for Active; 'I' for Inactive)
REMARK    1  A    between atoms: C_2  and  C_10
REMARK    2  A    between atoms: C_16  and  C_17
REMARK    3  A    between atoms: C_21  and  C_22
REMARK    4  A    between atoms: C_22  and  N_23
REMARK                            x       y       z     vdW  Elec       q    Type
REMARK                         _______ _______ _______ _____ _____    ______ ____
ROOT
ATOM      1  C   UNL     1       1.291   8.561  20.995  0.00  0.00    +0.000 A 
ATOM      2  N   UNL     1       1.732   8.882  22.230  0.00  0.00    +0.000 NA
ATOM      3  N   UNL     1       1.133  10.064  22.484  0.00  0.00    +0.000 N 
ATOM      4  C   UNL     1       0.281  10.491  21.500  0.00  0.00    +0.000 A 
ATOM      5  C   UNL     1      -0.500  11.640  21.364  0.00  0.00    +0.000 A 
ATOM      6  C   UNL     1      -1.303  11.741  20.214  0.00  0.00    +0.000 A 
ATOM      7  C   UNL     1      -1.334  10.743  19.223  0.00  0.00    +0.000 A 
ATOM      8  C   UNL     1      -0.487   9.630  19.389  0.00  0.00    +0.000 A 
ATOM      9  C   UNL     1       0.325   9.500  20.533  0.00  0.00    +0.000 A 
ATOM     10  H   UNL     1       1.353  10.537  23.353  0.00  0.00    +0.000 HD
ENDROOT
BRANCH   1  12
ATOM     11  O   UNL     1       2.308   7.544  19.125  0.00  0.00    +0.000 OA
ATOM     12  C   UNL     1       1.801   7.412  20.241  0.00  0.00    +0.000 C 
ATOM     13  N   UNL     1       1.638   6.194  20.866  0.00  0.00    +0.000 N 
ATOM     14  C   UNL     1       2.034   5.009  20.246  0.00  0.00    +0.000 A 
ATOM     15  C   UNL     1       3.288   4.880  19.648  0.00  0.00    +0.000 A 
ATOM     16  N   UNL     1       3.684   3.764  18.986  0.00  0.00    +0.000 NA
ATOM     17  C   UNL     1       2.750   2.791  18.920  0.00  0.00    +0.000 A 
ATOM     18  C   UNL     1       1.510   2.910  19.525  0.00  0.00    +0.000 A 
ATOM     19  N   UNL     1       1.139   3.999  20.241  0.00  0.00    +0.000 NA
ATOM     20  H   UNL     1       0.876   6.141  21.533  0.00  0.00    +0.000 HD
ENDBRANCH   1  12
BRANCH   7  21
ATOM     21  C   UNL     1      -2.218  10.827  18.041  0.00  0.00    +0.000 A 
ATOM     22  C   UNL     1      -1.891  10.273  16.802  0.00  0.00    +0.000 A 
ATOM     23  N   UNL     1      -2.678  10.311  15.697  0.00  0.00    +0.000 NA
ATOM     24  C   UNL     1      -3.878  10.919  15.823  0.00  0.00    +0.000 A 
ATOM     25  C   UNL     1      -4.327  11.506  16.997  0.00  0.00    +0.000 A 
ATOM     26  C   UNL     1      -3.468  11.465  18.104  0.00  0.00    +0.000 A 
BRANCH  25  27
ATOM     27  C   UNL     1      -5.669  12.187  17.081  0.00  0.00    +0.000 C 
BRANCH  27  28
ATOM     28  N   UNL     1      -6.534  11.719  18.186  0.00  0.00    +0.000 NA
ATOM     29  C   UNL     1      -6.177  10.367  18.632  0.00  0.00    +0.000 C 
ATOM     30  C   UNL     1      -7.342   9.648  19.323  0.00  0.00    +0.000 C 
ATOM     31  C   UNL     1      -7.541   9.995  20.792  0.00  0.00    +0.000 C 
ATOM     32  C   UNL     1      -7.831  11.465  21.054  0.00  0.00    +0.000 C 
ATOM     33  C   UNL     1      -6.647  12.354  20.709  0.00  0.00    +0.000 C 
ATOM     34  C   UNL     1      -6.567  12.753  19.234  0.00  0.00    +0.000 C 
ENDBRANCH  27  28
ENDBRANCH  25  27
ENDBRANCH   7  21
TORSDOF 4
ENDMDL
MODEL 8
REMARK VINA RESULT:      -8.7      1.739      2.598
REMARK  Name = 
REMARK  4 active torsions:
REMARK  status: ('A' for Active; 'I' for Inactive)
REMARK    1  A    between atoms: C_2  and  C_10
REMARK    2  A    between atoms: C_16  and  C_17
REMARK    3  A    between atoms: C_21  and  C_22
REMARK    4  A    between atoms: C_22  and  N_23
REMARK                            x       y       z     vdW  Elec       q    Type
REMARK                         _______ _______ _______ _____ _____    ______ ____
ROOT
ATOM      1  C   UNL     1       4.158   4.288  17.578  0.00  0.00    +0.000 A 
ATOM      2  N   UNL     1       4.145   2.986  17.933  0.00  0.00    +0.000 NA
ATOM      3  N   UNL     1       3.433   2.976  19.078  0.00  0.00    +0.000 N 
ATOM      4  C   UNL     1       2.936   4.197  19.447  0.00  0.00    +0.000 A 
ATOM      5  C   UNL     1       2.183   4.614  20.547  0.00  0.00    +0.000 A 
ATOM      6  C   UNL     1       1.805   5.968  20.592  0.00  0.00    +0.000 A 
ATOM      7  C   UNL     1       2.159   6.887  19.588  0.00  0.00    +0.000 A 
ATOM      8  C   UNL     1       2.961   6.421  18.528  0.00  0.00    +0.000 A 
ATOM      9  C   UNL     1       3.352   5.069  18.454  0.00  0.00    +0.000 A 
ATOM     10  H   UNL     1       3.327   2.096  19.570  0.00  0.00    +0.000 HD
ENDROOT
BRANCH   1  12
ATOM     11  O   UNL     1       5.051   6.008  16.232  0.00  0.00    +0.000 OA
ATOM     12  C   UNL     1       4.951   4.800  16.456  0.00  0.00    +0.000 C 
ATOM     13  N   UNL     1       5.535   3.828  15.672  0.00  0.00    +0.000 N 
ATOM     14  C   UNL     1       6.280   4.167  14.542  0.00  0.00    +0.000 A 
ATOM     15  C   UNL     1       7.262   5.158  14.584  0.00  0.00    +0.000 A 
ATOM     16  N   UNL     1       7.964   5.553  13.491  0.00  0.00    +0.000 NA
ATOM     17  C   UNL     1       7.613   4.933  12.345  0.00  0.00    +0.000 A 
ATOM     18  C   UNL     1       6.650   3.940  12.303  0.00  0.00    +0.000 A 
ATOM     19  N   UNL     1       5.994   3.499  13.405  0.00  0.00    +0.000 NA
ATOM     20  H   UNL     1       5.073   2.925  15.674  0.00  0.00    +0.000 HD
ENDBRANCH   1  12
BRANCH   7  21
ATOM     21  C   UNL     1       1.714   8.297  19.611  0.00  0.00    +0.000 A 
ATOM     22  C   UNL     1       1.796   9.141  18.502  0.00  0.00    +0.000 A 
ATOM     23  N   UNL     1       1.387  10.434  18.472  0.00  0.00    +0.000 NA
ATOM     24  C   UNL     1       0.840  10.927  19.606  0.00  0.00    +0.000 A 
ATOM     25  C   UNL     1       0.696  10.195  20.776  0.00  0.00    +0.000 A 
ATOM     26  C   UNL     1       1.159   8.872  20.766  0.00  0.00    +0.000 A 
BRANCH  25  27
ATOM     27  C   UNL     1       0.094  10.797  22.019  0.00  0.00    +0.000 C 
BRANCH  27  28
ATOM     28  N   UNL     1      -0.869  11.893  21.775  0.00  0.00    +0.000 NA
ATOM     29  C   UNL     1      -1.843  11.549  20.733  0.00  0.00    +0.000 C 
ATOM     30  C   UNL     1      -2.453  12.788  20.066  0.00  0.00    +0.000 C 
ATOM     31  C   UNL     1      -3.606  13.432  20.821  0.00  0.00    +0.000 C 
ATOM     32  C   UNL     1      -3.244  13.926  22.214  0.00  0.00    +0.000 C 
ATOM     33  C   UNL     1      -2.889  12.785  23.154  0.00  0.00    +0.000 C 
ATOM     34  C   UNL     1      -1.433  12.325  23.065  0.00  0.00    +0.000 C 
ENDBRANCH  27  28
ENDBRANCH  25  27
ENDBRANCH   7  21
TORSDOF 4
ENDMDL
MODEL 9
REMARK VINA RESULT:      -8.6      3.256      4.393
REMARK  Name = 
REMARK  4 active torsions:
REMARK  status: ('A' for Active; 'I' for Inactive)
REMARK    1  A    between atoms: C_2  and  C_10
REMARK    2  A    between atoms: C_16  and  C_17
REMARK    3  A    between atoms: C_21  and  C_22
REMARK    4  A    between atoms: C_22  and  N_23
REMARK                            x       y       z     vdW  Elec       q    Type
REMARK                         _______ _______ _______ _____ _____    ______ ____
ROOT
ATOM      1  C   UNL     1       3.170   6.093  19.179  0.00  0.00    +0.000 A 
ATOM      2  N   UNL     1       3.102   5.018  19.991  0.00  0.00    +0.000 NA
ATOM      3  N   UNL     1       2.261   5.411  20.970  0.00  0.00    +0.000 N 
ATOM      4  C   UNL     1       1.737   6.664  20.797  0.00  0.00    +0.000 A 
ATOM      5  C   UNL     1       0.866   7.436  21.570  0.00  0.00    +0.000 A 
ATOM      6  C   UNL     1       0.500   8.696  21.063  0.00  0.00    +0.000 A 
ATOM      7  C   UNL     1       0.978   9.185  19.834  0.00  0.00    +0.000 A 
ATOM      8  C   UNL     1       1.893   8.385  19.123  0.00  0.00    +0.000 A 
ATOM      9  C   UNL     1       2.275   7.117  19.603  0.00  0.00    +0.000 A 
ATOM     10  H   UNL     1       2.088   4.775  21.740  0.00  0.00    +0.000 HD
ENDROOT
BRANCH   1  12
ATOM     11  O   UNL     1       4.361   7.253  17.504  0.00  0.00    +0.000 OA
ATOM     12  C   UNL     1       4.093   6.176  18.043  0.00  0.00    +0.000 C 
ATOM     13  N   UNL     1       4.598   4.965  17.621  0.00  0.00    +0.000 N 
ATOM     14  C   UNL     1       5.453   4.886  16.521  0.00  0.00    +0.000 A 
ATOM     15  C   UNL     1       6.548   5.740  16.384  0.00  0.00    +0.000 A 
ATOM     16  N   UNL     1       7.365   5.731  15.300  0.00  0.00    +0.000 NA
ATOM     17  C   UNL     1       7.013   4.848  14.341  0.00  0.00    +0.000 A 
ATOM     18  C   UNL     1       5.936   3.990  14.481  0.00  0.00    +0.000 A 
ATOM     19  N   UNL     1       5.159   3.954  15.591  0.00  0.00    +0.000 NA
ATOM     20  H   UNL     1       4.026   4.154  17.827  0.00  0.00    +0.000 HD
ENDBRANCH   1  12
BRANCH   7  21
ATOM     21  C   UNL     1       0.549  10.486  19.278  0.00  0.00    +0.000 A 
ATOM     22  C   UNL     1      -0.540  10.627  18.417  0.00  0.00    +0.000 A 
ATOM     23  N   UNL     1      -0.979  11.800  17.896  0.00  0.00    +0.000 NA
ATOM     24  C   UNL     1      -0.312  12.917  18.263  0.00  0.00    +0.000 A 
ATOM     25  C   UNL     1       0.783  12.919  19.114  0.00  0.00    +0.000 A 
ATOM     26  C   UNL     1       1.216  11.679  19.605  0.00  0.00    +0.000 A 
BRANCH  25  27
ATOM     27  C   UNL     1       1.502  14.192  19.480  0.00  0.00    +0.000 C 
BRANCH  27  28
ATOM     28  N   UNL     1       1.346  15.294  18.506  0.00  0.00    +0.000 NA
ATOM     29  C   UNL     1       0.613  16.431  19.073  0.00  0.00    +0.000 C 
ATOM     30  C   UNL     1      -0.052  17.299  17.996  0.00  0.00    +0.000 C 
ATOM     31  C   UNL     1       0.859  18.320  17.330  0.00  0.00    +0.000 C 
ATOM     32  C   UNL     1       2.053  17.715  16.606  0.00  0.00    +0.000 C 
ATOM     33  C   UNL     1       3.026  17.046  17.563  0.00  0.00    +0.000 C 
ATOM     34  C   UNL     1       2.664  15.604  17.926  0.00  0.00    +0.000 C 
ENDBRANCH  27  28
ENDBRANCH  25  27
ENDBRANCH   7  21
TORSDOF 4
ENDMDL
