MODEL 1
REMARK VINA RESULT:      -6.7      0.000      0.000
REMARK  Name = 
REMARK  11 active torsions:
REMARK  status: ('A' for Active; 'I' for Inactive)
REMARK    1  A    between atoms: C_1  and  C_2
REMARK    2  A    between atoms: C_6  and  C_7
REMARK    3  A    between atoms: C_6  and  N_9
REMARK    4  A    between atoms: C_10  and  C_12
REMARK    5  A    between atoms: C_12  and  C_13
REMARK    6  A    between atoms: C_13  and  C_14
REMARK    7  A    between atoms: C_14  and  O_16
REMARK    8  A    between atoms: O_16  and  C_17
REMARK    9  A    between atoms: C_17  and  C_18
REMARK   10  A    between atoms: C_17  and  C_19
REMARK   11  A    between atoms: C_17  and  C_20
REMARK                            x       y       z     vdW  Elec       q    Type
REMARK                         _______ _______ _______ _____ _____    ______ ____
ROOT
ATOM      1  N   UNL     1       3.983   4.889  18.816  0.00  0.00    +0.000 N 
ATOM      2  C   UNL     1       3.369   5.838  18.031  0.00  0.00    +0.000 C 
ATOM      3  O   UNL     1       2.165   5.834  17.787  0.00  0.00    +0.000 OA
ATOM      4  H   UNL     1       4.970   4.992  19.029  0.00  0.00    +0.000 HD
ENDROOT
BRANCH   1  10
ATOM      5  C   UNL     1       2.503   1.995  17.727  0.00  0.00    +0.000 C 
ATOM      6  C   UNL     1       2.136   3.216  18.564  0.00  0.00    +0.000 C 
ATOM      7  C   UNL     1       0.947   2.943  19.479  0.00  0.00    +0.000 C 
ATOM      8  C   UNL     1       0.973   4.096  20.465  0.00  0.00    +0.000 C 
ATOM      9  C   UNL     1       2.454   4.345  20.740  0.00  0.00    +0.000 C 
ATOM     10  C   UNL     1       3.235   3.812  19.500  0.00  0.00    +0.000 C 
BRANCH  10  11
ATOM     11  C   UNL     1       4.188   2.762  19.983  0.00  0.00    +0.000 C 
ATOM     12  N   UNL     1       4.926   1.945  20.335  0.00  0.00    +0.000 NA
ENDBRANCH  10  11
ENDBRANCH   1  10
BRANCH   2  13
ATOM     13  C   UNL     1       4.286   6.891  17.444  0.00  0.00    +0.000 C 
BRANCH  13  14
ATOM     14  C   UNL     1       5.738   6.593  17.841  0.00  0.00    +0.000 C 
BRANCH  14  15
ATOM     15  C   UNL     1       6.610   6.694  16.615  0.00  0.00    +0.000 C 
ATOM     16  O   UNL     1       7.747   7.152  16.665  0.00  0.00    +0.000 OA
BRANCH  15  17
ATOM     17  O   UNL     1       5.991   6.211  15.502  0.00  0.00    +0.000 OA
BRANCH  17  18
ATOM     18  C   UNL     1       6.453   4.948  14.944  0.00  0.00    +0.000 C 
ATOM     19  C   UNL     1       7.015   4.045  16.050  0.00  0.00    +0.000 C 
ATOM     20  C   UNL     1       5.236   4.254  14.301  0.00  0.00    +0.000 C 
ATOM     21  C   UNL     1       7.484   5.185  13.833  0.00  0.00    +0.000 C 
ENDBRANCH  17  18
ENDBRANCH  15  17
ENDBRANCH  14  15
ENDBRANCH  13  14
ENDBRANCH   2  13
TORSDOF 7
ENDMDL
MODEL 2
REMARK VINA RESULT:      -6.6      1.796      2.849
REMARK  Name = 
REMARK  11 active torsions:
REMARK  status: ('A' for Active; 'I' for Inactive)
REMARK    1  A    between atoms: C_1  and  C_2
REMARK    2  A    between atoms: C_6  and  C_7
REMARK    3  A    between atoms: C_6  and  N_9
REMARK    4  A    between atoms: C_10  and  C_12
REMARK    5  A    between atoms: C_12  and  C_13
REMARK    6  A    between atoms: C_13  and  C_14
REMARK    7  A    between atoms: C_14  and  O_16
REMARK    8  A    between atoms: O_16  and  C_17
REMARK    9  A    between atoms: C_17  and  C_18
REMARK   10  A    between atoms: C_17  and  C_19
REMARK   11  A    between atoms: C_17  and  C_20
REMARK                            x       y       z     vdW  Elec       q    Type
REMARK                         _______ _______ _______ _____ _____    ______ ____
ROOT
ATOM      1  N   UNL     1       4.369   5.490  19.135  0.00  0.00    +0.000 N 
ATOM      2  C   UNL     1       5.264   4.445  19.116  0.00  0.00    +0.000 C 
ATOM      3  O   UNL     1       4.931   3.270  19.245  0.00  0.00    +0.000 OA
ATOM      4  H   UNL     1       4.708   6.430  18.956  0.00  0.00    +0.000 HD
ENDROOT
BRANCH   1  10
ATOM      5  C   UNL     1       2.351   4.132  21.551  0.00  0.00    +0.000 C 
ATOM      6  C   UNL     1       2.581   3.993  20.050  0.00  0.00    +0.000 C 
ATOM      7  C   UNL     1       1.376   3.383  19.343  0.00  0.00    +0.000 C 
ATOM      8  C   UNL     1       1.631   3.667  17.874  0.00  0.00    +0.000 C 
ATOM      9  C   UNL     1       2.249   5.063  17.846  0.00  0.00    +0.000 C 
ATOM     10  C   UNL     1       2.907   5.289  19.242  0.00  0.00    +0.000 C 
BRANCH  10  11
ATOM     11  C   UNL     1       2.272   6.502  19.849  0.00  0.00    +0.000 C 
ATOM     12  N   UNL     1       1.784   7.448  20.299  0.00  0.00    +0.000 NA
ENDBRANCH  10  11
ENDBRANCH   1  10
BRANCH   2  13
ATOM     13  C   UNL     1       6.719   4.836  18.957  0.00  0.00    +0.000 C 
BRANCH  13  14
ATOM     14  C   UNL     1       6.816   6.300  18.505  0.00  0.00    +0.000 C 
BRANCH  14  15
ATOM     15  C   UNL     1       7.413   6.346  17.122  0.00  0.00    +0.000 C 
ATOM     16  O   UNL     1       7.888   7.376  16.656  0.00  0.00    +0.000 OA
BRANCH  15  17
ATOM     17  O   UNL     1       7.365   5.135  16.500  0.00  0.00    +0.000 OA
BRANCH  17  18
ATOM     18  C   UNL     1       6.338   4.912  15.493  0.00  0.00    +0.000 C 
ATOM     19  C   UNL     1       5.272   6.015  15.558  0.00  0.00    +0.000 C 
ATOM     20  C   UNL     1       7.025   4.960  14.114  0.00  0.00    +0.000 C 
ATOM     21  C   UNL     1       5.714   3.519  15.646  0.00  0.00    +0.000 C 
ENDBRANCH  17  18
ENDBRANCH  15  17
ENDBRANCH  14  15
ENDBRANCH  13  14
ENDBRANCH   2  13
TORSDOF 7
ENDMDL
MODEL 3
REMARK VINA RESULT:      -6.6      1.699      1.953
REMARK  Name = 
REMARK  11 active torsions:
REMARK  status: ('A' for Active; 'I' for Inactive)
REMARK    1  A    between atoms: C_1  and  C_2
REMARK    2  A    between atoms: C_6  and  C_7
REMARK    3  A    between atoms: C_6  and  N_9
REMARK    4  A    between atoms: C_10  and  C_12
REMARK    5  A    between atoms: C_12  and  C_13
REMARK    6  A    between atoms: C_13  and  C_14
REMARK    7  A    between atoms: C_14  and  O_16
REMARK    8  A    between atoms: O_16  and  C_17
REMARK    9  A    between atoms: C_17  and  C_18
REMARK   10  A    between atoms: C_17  and  C_19
REMARK   11  A    between atoms: C_17  and  C_20
REMARK                            x       y       z     vdW  Elec       q    Type
REMARK                         _______ _______ _______ _____ _____    ______ ____
ROOT
ATOM      1  N   UNL     1       4.823   4.182  19.661  0.00  0.00    +0.000 N 
ATOM      2  C   UNL     1       5.291   5.339  19.081  0.00  0.00    +0.000 C 
ATOM      3  O   UNL     1       4.593   6.075  18.387  0.00  0.00    +0.000 OA
ATOM      4  H   UNL     1       5.438   3.658  20.275  0.00  0.00    +0.000 HD
ENDROOT
BRANCH   1  10
ATOM      5  C   UNL     1       3.307   1.340  18.488  0.00  0.00    +0.000 C 
ATOM      6  C   UNL     1       3.192   2.849  18.305  0.00  0.00    +0.000 C 
ATOM      7  C   UNL     1       1.825   3.256  17.764  0.00  0.00    +0.000 C 
ATOM      8  C   UNL     1       1.768   4.752  18.003  0.00  0.00    +0.000 C 
ATOM      9  C   UNL     1       2.450   4.962  19.353  0.00  0.00    +0.000 C 
ATOM     10  C   UNL     1       3.411   3.752  19.561  0.00  0.00    +0.000 C 
BRANCH  10  11
ATOM     11  C   UNL     1       3.002   3.061  20.825  0.00  0.00    +0.000 C 
ATOM     12  N   UNL     1       2.670   2.543  21.803  0.00  0.00    +0.000 NA
ENDBRANCH  10  11
ENDBRANCH   1  10
BRANCH   2  13
ATOM     13  C   UNL     1       6.754   5.644  19.323  0.00  0.00    +0.000 C 
BRANCH  13  14
ATOM     14  C   UNL     1       7.367   6.278  18.067  0.00  0.00    +0.000 C 
BRANCH  14  15
ATOM     15  C   UNL     1       7.735   5.184  17.096  0.00  0.00    +0.000 C 
ATOM     16  O   UNL     1       8.204   4.116  17.472  0.00  0.00    +0.000 OA
BRANCH  15  17
ATOM     17  O   UNL     1       7.468   5.530  15.806  0.00  0.00    +0.000 OA
BRANCH  17  18
ATOM     18  C   UNL     1       6.316   4.928  15.150  0.00  0.00    +0.000 C 
ATOM     19  C   UNL     1       5.812   3.719  15.951  0.00  0.00    +0.000 C 
ATOM     20  C   UNL     1       5.203   5.994  15.100  0.00  0.00    +0.000 C 
ATOM     21  C   UNL     1       6.648   4.545  13.702  0.00  0.00    +0.000 C 
ENDBRANCH  17  18
ENDBRANCH  15  17
ENDBRANCH  14  15
ENDBRANCH  13  14
ENDBRANCH   2  13
TORSDOF 7
ENDMDL
MODEL 4
REMARK VINA RESULT:      -6.5      1.865      3.139
REMARK  Name = 
REMARK  11 active torsions:
REMARK  status: ('A' for Active; 'I' for Inactive)
REMARK    1  A    between atoms: C_1  and  C_2
REMARK    2  A    between atoms: C_6  and  C_7
REMARK    3  A    between atoms: C_6  and  N_9
REMARK    4  A    between atoms: C_10  and  C_12
REMARK    5  A    between atoms: C_12  and  C_13
REMARK    6  A    between atoms: C_13  and  C_14
REMARK    7  A    between atoms: C_14  and  O_16
REMARK    8  A    between atoms: O_16  and  C_17
REMARK    9  A    between atoms: C_17  and  C_18
REMARK   10  A    between atoms: C_17  and  C_19
REMARK   11  A    between atoms: C_17  and  C_20
REMARK                            x       y       z     vdW  Elec       q    Type
REMARK                         _______ _______ _______ _____ _____    ______ ____
ROOT
ATOM      1  N   UNL     1       4.543   5.966  18.850  0.00  0.00    +0.000 N 
ATOM      2  C   UNL     1       5.439   4.982  19.202  0.00  0.00    +0.000 C 
ATOM      3  O   UNL     1       5.114   3.814  19.401  0.00  0.00    +0.000 OA
ATOM      4  H   UNL     1       4.893   6.895  18.638  0.00  0.00    +0.000 HD
ENDROOT
BRANCH   1  10
ATOM      5  C   UNL     1       1.762   6.033  20.854  0.00  0.00    +0.000 C 
ATOM      6  C   UNL     1       2.438   5.078  19.876  0.00  0.00    +0.000 C 
ATOM      7  C   UNL     1       1.466   4.032  19.338  0.00  0.00    +0.000 C 
ATOM      8  C   UNL     1       2.191   3.440  18.144  0.00  0.00    +0.000 C 
ATOM      9  C   UNL     1       2.905   4.622  17.491  0.00  0.00    +0.000 C 
ATOM     10  C   UNL     1       3.110   5.692  18.607  0.00  0.00    +0.000 C 
BRANCH  10  11
ATOM     11  C   UNL     1       2.423   6.946  18.163  0.00  0.00    +0.000 C 
ATOM     12  N   UNL     1       1.890   7.920  17.841  0.00  0.00    +0.000 NA
ENDBRANCH  10  11
ENDBRANCH   1  10
BRANCH   2  13
ATOM     13  C   UNL     1       6.874   5.436  19.368  0.00  0.00    +0.000 C 
BRANCH  13  14
ATOM     14  C   UNL     1       7.685   5.059  18.121  0.00  0.00    +0.000 C 
BRANCH  14  15
ATOM     15  C   UNL     1       7.430   6.082  17.043  0.00  0.00    +0.000 C 
ATOM     16  O   UNL     1       7.140   7.243  17.308  0.00  0.00    +0.000 OA
BRANCH  15  17
ATOM     17  O   UNL     1       7.577   5.560  15.793  0.00  0.00    +0.000 OA
BRANCH  17  18
ATOM     18  C   UNL     1       6.402   5.019  15.125  0.00  0.00    +0.000 C 
ATOM     19  C   UNL     1       5.247   6.028  15.166  0.00  0.00    +0.000 C 
ATOM     20  C   UNL     1       6.786   4.757  13.655  0.00  0.00    +0.000 C 
ATOM     21  C   UNL     1       5.995   3.672  15.738  0.00  0.00    +0.000 C 
ENDBRANCH  17  18
ENDBRANCH  15  17
ENDBRANCH  14  15
ENDBRANCH  13  14
ENDBRANCH   2  13
TORSDOF 7
ENDMDL
MODEL 5
REMARK VINA RESULT:      -6.5      1.422      2.681
REMARK  Name = 
REMARK  11 active torsions:
REMARK  status: ('A' for Active; 'I' for Inactive)
REMARK    1  A    between atoms: C_1  and  C_2
REMARK    2  A    between atoms: C_6  and  C_7
REMARK    3  A    between atoms: C_6  and  N_9
REMARK    4  A    between atoms: C_10  and  C_12
REMARK    5  A    between atoms: C_12  and  C_13
REMARK    6  A    between atoms: C_13  and  C_14
REMARK    7  A    between atoms: C_14  and  O_16
REMARK    8  A    between atoms: O_16  and  C_17
REMARK    9  A    between atoms: C_17  and  C_18
REMARK   10  A    between atoms: C_17  and  C_19
REMARK   11  A    between atoms: C_17  and  C_20
REMARK                            x       y       z     vdW  Elec       q    Type
REMARK                         _______ _______ _______ _____ _____    ______ ____
ROOT
ATOM      1  N   UNL     1       4.782   3.330  18.008  0.00  0.00    +0.000 N 
ATOM      2  C   UNL     1       4.315   3.787  16.797  0.00  0.00    +0.000 C 
ATOM      3  O   UNL     1       3.195   4.269  16.646  0.00  0.00    +0.000 OA
ATOM      4  H   UNL     1       5.742   3.005  18.073  0.00  0.00    +0.000 HD
ENDROOT
BRANCH   1  10
ATOM      5  C   UNL     1       1.882   1.871  19.110  0.00  0.00    +0.000 C 
ATOM      6  C   UNL     1       2.475   3.270  18.981  0.00  0.00    +0.000 C 
ATOM      7  C   UNL     1       1.792   4.267  19.912  0.00  0.00    +0.000 C 
ATOM      8  C   UNL     1       2.730   5.459  19.922  0.00  0.00    +0.000 C 
ATOM      9  C   UNL     1       4.133   4.856  19.901  0.00  0.00    +0.000 C 
ATOM     10  C   UNL     1       4.002   3.441  19.260  0.00  0.00    +0.000 C 
BRANCH  10  11
ATOM     11  C   UNL     1       4.502   2.444  20.259  0.00  0.00    +0.000 C 
ATOM     12  N   UNL     1       4.894   1.691  21.044  0.00  0.00    +0.000 NA
ENDBRANCH  10  11
ENDBRANCH   1  10
BRANCH   2  13
ATOM     13  C   UNL     1       5.267   3.630  15.630  0.00  0.00    +0.000 C 
BRANCH  13  14
ATOM     14  C   UNL     1       6.682   4.045  16.055  0.00  0.00    +0.000 C 
BRANCH  14  15
ATOM     15  C   UNL     1       6.999   5.389  15.452  0.00  0.00    +0.000 C 
ATOM     16  O   UNL     1       6.572   5.723  14.352  0.00  0.00    +0.000 OA
BRANCH  15  17
ATOM     17  O   UNL     1       7.777   6.151  16.271  0.00  0.00    +0.000 OA
BRANCH  17  18
ATOM     18  C   UNL     1       7.159   6.772  17.434  0.00  0.00    +0.000 C 
ATOM     19  C   UNL     1       7.435   5.944  18.697  0.00  0.00    +0.000 C 
ATOM     20  C   UNL     1       7.790   8.168  17.602  0.00  0.00    +0.000 C 
ATOM     21  C   UNL     1       5.654   6.974  17.212  0.00  0.00    +0.000 C 
ENDBRANCH  17  18
ENDBRANCH  15  17
ENDBRANCH  14  15
ENDBRANCH  13  14
ENDBRANCH   2  13
TORSDOF 7
ENDMDL
MODEL 6
REMARK VINA RESULT:      -6.4      1.612      1.935
REMARK  Name = 
REMARK  11 active torsions:
REMARK  status: ('A' for Active; 'I' for Inactive)
REMARK    1  A    between atoms: C_1  and  C_2
REMARK    2  A    between atoms: C_6  and  C_7
REMARK    3  A    between atoms: C_6  and  N_9
REMARK    4  A    between atoms: C_10  and  C_12
REMARK    5  A    between atoms: C_12  and  C_13
REMARK    6  A    between atoms: C_13  and  C_14
REMARK    7  A    between atoms: C_14  and  O_16
REMARK    8  A    between atoms: O_16  and  C_17
REMARK    9  A    between atoms: C_17  and  C_18
REMARK   10  A    between atoms: C_17  and  C_19
REMARK   11  A    between atoms: C_17  and  C_20
REMARK                            x       y       z     vdW  Elec       q    Type
REMARK                         _______ _______ _______ _____ _____    ______ ____
ROOT
ATOM      1  N   UNL     1       4.793   4.301  19.642  0.00  0.00    +0.000 N 
ATOM      2  C   UNL     1       5.293   5.378  18.946  0.00  0.00    +0.000 C 
ATOM      3  O   UNL     1       4.606   6.086  18.215  0.00  0.00    +0.000 OA
ATOM      4  H   UNL     1       5.405   3.801  20.279  0.00  0.00    +0.000 HD
ENDROOT
BRANCH   1  10
ATOM      5  C   UNL     1       3.049   1.645  18.353  0.00  0.00    +0.000 C 
ATOM      6  C   UNL     1       2.991   3.168  18.321  0.00  0.00    +0.000 C 
ATOM      7  C   UNL     1       1.604   3.678  17.944  0.00  0.00    +0.000 C 
ATOM      8  C   UNL     1       1.637   5.146  18.323  0.00  0.00    +0.000 C 
ATOM      9  C   UNL     1       2.441   5.199  19.620  0.00  0.00    +0.000 C 
ATOM     10  C   UNL     1       3.359   3.938  19.629  0.00  0.00    +0.000 C 
BRANCH  10  11
ATOM     11  C   UNL     1       3.026   3.146  20.856  0.00  0.00    +0.000 C 
ATOM     12  N   UNL     1       2.782   2.518  21.795  0.00  0.00    +0.000 NA
ENDBRANCH  10  11
ENDBRANCH   1  10
BRANCH   2  13
ATOM     13  C   UNL     1       6.778   5.626  19.109  0.00  0.00    +0.000 C 
BRANCH  13  14
ATOM     14  C   UNL     1       7.558   4.813  18.066  0.00  0.00    +0.000 C 
BRANCH  14  15
ATOM     15  C   UNL     1       7.580   5.578  16.767  0.00  0.00    +0.000 C 
ATOM     16  O   UNL     1       7.646   6.802  16.737  0.00  0.00    +0.000 OA
BRANCH  15  17
ATOM     17  O   UNL     1       7.535   4.752  15.684  0.00  0.00    +0.000 OA
BRANCH  17  18
ATOM     18  C   UNL     1       6.255   4.541  15.025  0.00  0.00    +0.000 C 
ATOM     19  C   UNL     1       6.464   4.050  13.586  0.00  0.00    +0.000 C 
ATOM     20  C   UNL     1       5.499   3.457  15.819  0.00  0.00    +0.000 C 
ATOM     21  C   UNL     1       5.401   5.816  15.065  0.00  0.00    +0.000 C 
ENDBRANCH  17  18
ENDBRANCH  15  17
ENDBRANCH  14  15
ENDBRANCH  13  14
ENDBRANCH   2  13
TORSDOF 7
ENDMDL
MODEL 7
REMARK VINA RESULT:      -6.4      1.570      2.847
REMARK  Name = 
REMARK  11 active torsions:
REMARK  status: ('A' for Active; 'I' for Inactive)
REMARK    1  A    between atoms: C_1  and  C_2
REMARK    2  A    between atoms: C_6  and  C_7
REMARK    3  A    between atoms: C_6  and  N_9
REMARK    4  A    between atoms: C_10  and  C_12
REMARK    5  A    between atoms: C_12  and  C_13
REMARK    6  A    between atoms: C_13  and  C_14
REMARK    7  A    between atoms: C_14  and  O_16
REMARK    8  A    between atoms: O_16  and  C_17
REMARK    9  A    between atoms: C_17  and  C_18
REMARK   10  A    between atoms: C_17  and  C_19
REMARK   11  A    between atoms: C_17  and  C_20
REMARK                            x       y       z     vdW  Elec       q    Type
REMARK                         _______ _______ _______ _____ _____    ______ ____
ROOT
ATOM      1  N   UNL     1       3.533   3.877  17.886  0.00  0.00    +0.000 N 
ATOM      2  C   UNL     1       4.879   3.814  17.603  0.00  0.00    +0.000 C 
ATOM      3  O   UNL     1       5.750   3.818  18.469  0.00  0.00    +0.000 OA
ATOM      4  H   UNL     1       2.867   3.803  17.123  0.00  0.00    +0.000 HD
ENDROOT
BRANCH   1  10
ATOM      5  C   UNL     1       0.855   2.356  19.391  0.00  0.00    +0.000 C 
ATOM      6  C   UNL     1       1.450   3.755  19.271  0.00  0.00    +0.000 C 
ATOM      7  C   UNL     1       0.983   4.672  20.397  0.00  0.00    +0.000 C 
ATOM      8  C   UNL     1       1.937   5.849  20.330  0.00  0.00    +0.000 C 
ATOM      9  C   UNL     1       3.294   5.236  19.991  0.00  0.00    +0.000 C 
ATOM     10  C   UNL     1       3.006   3.885  19.268  0.00  0.00    +0.000 C 
BRANCH  10  11
ATOM     11  C   UNL     1       3.660   2.798  20.064  0.00  0.00    +0.000 C 
ATOM     12  N   UNL     1       4.167   1.973  20.696  0.00  0.00    +0.000 NA
ENDBRANCH  10  11
ENDBRANCH   1  10
BRANCH   2  13
ATOM     13  C   UNL     1       5.234   3.772  16.131  0.00  0.00    +0.000 C 
BRANCH  13  14
ATOM     14  C   UNL     1       6.675   4.260  15.932  0.00  0.00    +0.000 C 
BRANCH  14  15
ATOM     15  C   UNL     1       6.656   5.742  15.655  0.00  0.00    +0.000 C 
ATOM     16  O   UNL     1       5.831   6.250  14.904  0.00  0.00    +0.000 OA
BRANCH  15  17
ATOM     17  O   UNL     1       7.629   6.406  16.340  0.00  0.00    +0.000 OA
BRANCH  17  18
ATOM     18  C   UNL     1       7.276   7.051  17.597  0.00  0.00    +0.000 C 
ATOM     19  C   UNL     1       7.846   6.264  18.785  0.00  0.00    +0.000 C 
ATOM     20  C   UNL     1       7.901   8.460  17.583  0.00  0.00    +0.000 C 
ATOM     21  C   UNL     1       5.756   7.225  17.715  0.00  0.00    +0.000 C 
ENDBRANCH  17  18
ENDBRANCH  15  17
ENDBRANCH  14  15
ENDBRANCH  13  14
ENDBRANCH   2  13
TORSDOF 7
ENDMDL
MODEL 8
REMARK VINA RESULT:      -6.4      1.501      2.669
REMARK  Name = 
REMARK  11 active torsions:
REMARK  status: ('A' for Active; 'I' for Inactive)
REMARK    1  A    between atoms: C_1  and  C_2
REMARK    2  A    between atoms: C_6  and  C_7
REMARK    3  A    between atoms: C_6  and  N_9
REMARK    4  A    between atoms: C_10  and  C_12
REMARK    5  A    between atoms: C_12  and  C_13
REMARK    6  A    between atoms: C_13  and  C_14
REMARK    7  A    between atoms: C_14  and  O_16
REMARK    8  A    between atoms: O_16  and  C_17
REMARK    9  A    between atoms: C_17  and  C_18
REMARK   10  A    between atoms: C_17  and  C_19
REMARK   11  A    between atoms: C_17  and  C_20
REMARK                            x       y       z     vdW  Elec       q    Type
REMARK                         _______ _______ _______ _____ _____    ______ ____
ROOT
ATOM      1  N   UNL     1       3.791   4.340  18.056  0.00  0.00    +0.000 N 
ATOM      2  C   UNL     1       4.199   3.403  17.132  0.00  0.00    +0.000 C 
ATOM      3  O   UNL     1       4.134   2.193  17.327  0.00  0.00    +0.000 OA
ATOM      4  H   UNL     1       3.812   5.322  17.801  0.00  0.00    +0.000 HD
ENDROOT
BRANCH   1  10
ATOM      5  C   UNL     1       1.386   2.063  18.943  0.00  0.00    +0.000 C 
ATOM      6  C   UNL     1       1.680   3.546  19.144  0.00  0.00    +0.000 C 
ATOM      7  C   UNL     1       0.943   4.114  20.353  0.00  0.00    +0.000 C 
ATOM      8  C   UNL     1       1.629   5.442  20.609  0.00  0.00    +0.000 C 
ATOM      9  C   UNL     1       3.107   5.182  20.327  0.00  0.00    +0.000 C 
ATOM     10  C   UNL     1       3.169   3.971  19.346  0.00  0.00    +0.000 C 
BRANCH  10  11
ATOM     11  C   UNL     1       3.973   2.895  20.007  0.00  0.00    +0.000 C 
ATOM     12  N   UNL     1       4.612   2.077  20.515  0.00  0.00    +0.000 NA
ENDBRANCH  10  11
ENDBRANCH   1  10
BRANCH   2  13
ATOM     13  C   UNL     1       4.775   3.963  15.848  0.00  0.00    +0.000 C 
BRANCH  13  14
ATOM     14  C   UNL     1       6.308   3.968  15.927  0.00  0.00    +0.000 C 
BRANCH  14  15
ATOM     15  C   UNL     1       6.818   5.302  15.444  0.00  0.00    +0.000 C 
ATOM     16  O   UNL     1       6.491   5.765  14.357  0.00  0.00    +0.000 OA
BRANCH  15  17
ATOM     17  O   UNL     1       7.642   5.897  16.351  0.00  0.00    +0.000 OA
BRANCH  17  18
ATOM     18  C   UNL     1       7.045   6.706  17.404  0.00  0.00    +0.000 C 
ATOM     19  C   UNL     1       5.597   7.068  17.048  0.00  0.00    +0.000 C 
ATOM     20  C   UNL     1       7.049   5.863  18.694  0.00  0.00    +0.000 C 
ATOM     21  C   UNL     1       7.887   7.960  17.674  0.00  0.00    +0.000 C 
ENDBRANCH  17  18
ENDBRANCH  15  17
ENDBRANCH  14  15
ENDBRANCH  13  14
ENDBRANCH   2  13
TORSDOF 7
ENDMDL
MODEL 9
REMARK VINA RESULT:      -6.3      1.573      1.747
REMARK  Name = 
REMARK  11 active torsions:
REMARK  status: ('A' for Active; 'I' for Inactive)
REMARK    1  A    between atoms: C_1  and  C_2
REMARK    2  A    between atoms: C_6  and  C_7
REMARK    3  A    between atoms: C_6  and  N_9
REMARK    4  A    between atoms: C_10  and  C_12
REMARK    5  A    between atoms: C_12  and  C_13
REMARK    6  A    between atoms: C_13  and  C_14
REMARK    7  A    between atoms: C_14  and  O_16
REMARK    8  A    between atoms: O_16  and  C_17
REMARK    9  A    between atoms: C_17  and  C_18
REMARK   10  A    between atoms: C_17  and  C_19
REMARK   11  A    between atoms: C_17  and  C_20
REMARK                            x       y       z     vdW  Elec       q    Type
REMARK                         _______ _______ _______ _____ _____    ______ ____
ROOT
ATOM      1  N   UNL     1       4.835   3.915  19.348  0.00  0.00    +0.000 N 
ATOM      2  C   UNL     1       4.958   5.286  19.382  0.00  0.00    +0.000 C 
ATOM      3  O   UNL     1       3.999   6.046  19.476  0.00  0.00    +0.000 OA
ATOM      4  H   UNL     1       5.676   3.347  19.336  0.00  0.00    +0.000 HD
ENDROOT
BRANCH   1  10
ATOM      5  C   UNL     1       1.942   3.939  17.509  0.00  0.00    +0.000 C 
ATOM      6  C   UNL     1       2.369   4.119  18.962  0.00  0.00    +0.000 C 
ATOM      7  C   UNL     1       1.215   3.875  19.929  0.00  0.00    +0.000 C 
ATOM      8  C   UNL     1       1.894   3.729  21.278  0.00  0.00    +0.000 C 
ATOM      9  C   UNL     1       3.181   2.961  20.989  0.00  0.00    +0.000 C 
ATOM     10  C   UNL     1       3.534   3.226  19.493  0.00  0.00    +0.000 C 
BRANCH  10  11
ATOM     11  C   UNL     1       3.583   1.900  18.799  0.00  0.00    +0.000 C 
ATOM     12  N   UNL     1       3.600   0.874  18.267  0.00  0.00    +0.000 NA
ENDBRANCH  10  11
ENDBRANCH   1  10
BRANCH   2  13
ATOM     13  C   UNL     1       6.372   5.816  19.262  0.00  0.00    +0.000 C 
BRANCH  13  14
ATOM     14  C   UNL     1       7.160   4.966  18.256  0.00  0.00    +0.000 C 
BRANCH  14  15
ATOM     15  C   UNL     1       7.347   5.758  16.987  0.00  0.00    +0.000 C 
ATOM     16  O   UNL     1       7.435   6.981  16.993  0.00  0.00    +0.000 OA
BRANCH  15  17
ATOM     17  O   UNL     1       7.420   4.957  15.887  0.00  0.00    +0.000 OA
BRANCH  17  18
ATOM     18  C   UNL     1       6.185   4.615  15.195  0.00  0.00    +0.000 C 
ATOM     19  C   UNL     1       5.451   3.487  15.932  0.00  0.00    +0.000 C 
ATOM     20  C   UNL     1       5.294   5.873  15.191  0.00  0.00    +0.000 C 
ATOM     21  C   UNL     1       6.461   4.245  13.732  0.00  0.00    +0.000 C 
ENDBRANCH  17  18
ENDBRANCH  15  17
ENDBRANCH  14  15
ENDBRANCH  13  14
ENDBRANCH   2  13
TORSDOF 7
ENDMDL
