MODEL 1
REMARK VINA RESULT:      -8.7      0.000      0.000
REMARK  Name = 
REMARK  6 active torsions:
REMARK  status: ('A' for Active; 'I' for Inactive)
REMARK    1  A    between atoms: C_1  and  C_2
REMARK    2  A    between atoms: C_2  and  C_3
REMARK    3  A    between atoms: C_5  and  N_6
REMARK    4  A    between atoms: N_6  and  C_7
REMARK    5  A    between atoms: C_18  and  C_19
REMARK    6  A    between atoms: C_18  and  C_20
REMARK                            x       y       z     vdW  Elec       q    Type
REMARK                         _______ _______ _______ _____ _____    ______ ____
ROOT
ATOM      1  N   UNL     1       5.253   3.567  18.900  0.00  0.00    +0.000 NA
ATOM      2  H   UNL     1       6.048   3.330  19.493  0.00  0.00    +0.000 HD
ENDROOT
BRANCH   1   7
ATOM      3  C   UNL     1       7.336   4.633  14.510  0.00  0.00    +0.000 C 
ATOM      4  C   UNL     1       6.521   5.222  15.686  0.00  0.00    +0.000 C 
ATOM      5  C   UNL     1       5.202   5.730  15.073  0.00  0.00    +0.000 C 
ATOM      6  C   UNL     1       6.283   4.112  16.733  0.00  0.00    +0.000 C 
ATOM      7  C   UNL     1       5.620   4.675  18.002  0.00  0.00    +0.000 C 
ATOM      8  C   UNL     1       6.603   5.696  18.599  0.00  0.00    +0.000 C 
ATOM      9  C   UNL     1       6.952   6.826  17.594  0.00  0.00    +0.000 C 
ATOM     10  C   UNL     1       8.193   7.593  18.113  0.00  0.00    +0.000 C 
ATOM     11  C   UNL     1       5.807   7.856  17.517  0.00  0.00    +0.000 C 
ATOM     12  N   UNL     1       7.315   6.330  16.250  0.00  0.00    +0.000 NA
ATOM     13  H   UNL     1       8.296   6.045  16.261  0.00  0.00    +0.000 HD
ENDBRANCH   1   7
BRANCH   1  14
ATOM     14  C   UNL     1       4.066   3.797  19.744  0.00  0.00    +0.000 C 
ATOM     15  C   UNL     1       2.960   4.709  19.124  0.00  0.00    +0.000 C 
ATOM     16  C   UNL     1       2.310   4.048  17.892  0.00  0.00    +0.000 C 
ATOM     17  C   UNL     1       1.667   2.707  18.284  0.00  0.00    +0.000 C 
ATOM     18  C   UNL     1       0.589   2.950  19.355  0.00  0.00    +0.000 C 
ATOM     19  C   UNL     1       1.221   3.604  20.594  0.00  0.00    +0.000 C 
ATOM     20  C   UNL     1       1.864   4.941  20.186  0.00  0.00    +0.000 C 
ATOM     21  C   UNL     1       2.307   2.673  21.157  0.00  0.00    +0.000 C 
ATOM     22  C   UNL     1       3.405   2.431  20.100  0.00  0.00    +0.000 C 
ATOM     23  C   UNL     1       2.754   1.784  18.857  0.00  0.00    +0.000 C 
ENDBRANCH   1  14
TORSDOF 2
ENDMDL
MODEL 2
REMARK VINA RESULT:      -8.4      0.653      1.907
REMARK  Name = 
REMARK  6 active torsions:
REMARK  status: ('A' for Active; 'I' for Inactive)
REMARK    1  A    between atoms: C_1  and  C_2
REMARK    2  A    between atoms: C_2  and  C_3
REMARK    3  A    between atoms: C_5  and  N_6
REMARK    4  A    between atoms: N_6  and  C_7
REMARK    5  A    between atoms: C_18  and  C_19
REMARK    6  A    between atoms: C_18  and  C_20
REMARK                            x       y       z     vdW  Elec       q    Type
REMARK                         _______ _______ _______ _____ _____    ______ ____
ROOT
ATOM      1  N   UNL     1       5.119   3.347  18.567  0.00  0.00    +0.000 NA
ATOM      2  H   UNL     1       5.355   3.483  19.550  0.00  0.00    +0.000 HD
ENDROOT
BRANCH   1   7
ATOM      3  C   UNL     1       7.434   4.728  14.386  0.00  0.00    +0.000 C 
ATOM      4  C   UNL     1       6.579   5.237  15.571  0.00  0.00    +0.000 C 
ATOM      5  C   UNL     1       5.305   5.836  14.947  0.00  0.00    +0.000 C 
ATOM      6  C   UNL     1       6.264   4.048  16.505  0.00  0.00    +0.000 C 
ATOM      7  C   UNL     1       5.557   4.518  17.788  0.00  0.00    +0.000 C 
ATOM      8  C   UNL     1       6.536   5.454  18.515  0.00  0.00    +0.000 C 
ATOM      9  C   UNL     1       6.961   6.656  17.631  0.00  0.00    +0.000 C 
ATOM     10  C   UNL     1       8.195   7.338  18.271  0.00  0.00    +0.000 C 
ATOM     11  C   UNL     1       5.847   7.722  17.594  0.00  0.00    +0.000 C 
ATOM     12  N   UNL     1       7.374   6.268  16.266  0.00  0.00    +0.000 NA
ATOM     13  H   UNL     1       8.346   5.954  16.295  0.00  0.00    +0.000 HD
ENDBRANCH   1   7
BRANCH   1  14
ATOM     14  C   UNL     1       3.690   3.003  18.452  0.00  0.00    +0.000 C 
ATOM     15  C   UNL     1       3.092   2.182  19.638  0.00  0.00    +0.000 C 
ATOM     16  C   UNL     1       3.083   3.004  20.943  0.00  0.00    +0.000 C 
ATOM     17  C   UNL     1       2.241   4.278  20.765  0.00  0.00    +0.000 C 
ATOM     18  C   UNL     1       0.797   3.890  20.401  0.00  0.00    +0.000 C 
ATOM     19  C   UNL     1       0.787   3.076  19.098  0.00  0.00    +0.000 C 
ATOM     20  C   UNL     1       1.636   1.807  19.290  0.00  0.00    +0.000 C 
ATOM     21  C   UNL     1       1.393   3.923  17.968  0.00  0.00    +0.000 C 
ATOM     22  C   UNL     1       2.848   4.307  18.310  0.00  0.00    +0.000 C 
ATOM     23  C   UNL     1       2.844   5.116  19.626  0.00  0.00    +0.000 C 
ENDBRANCH   1  14
TORSDOF 2
ENDMDL
MODEL 3
REMARK VINA RESULT:      -8.3      1.138      2.668
REMARK  Name = 
REMARK  6 active torsions:
REMARK  status: ('A' for Active; 'I' for Inactive)
REMARK    1  A    between atoms: C_1  and  C_2
REMARK    2  A    between atoms: C_2  and  C_3
REMARK    3  A    between atoms: C_5  and  N_6
REMARK    4  A    between atoms: N_6  and  C_7
REMARK    5  A    between atoms: C_18  and  C_19
REMARK    6  A    between atoms: C_18  and  C_20
REMARK                            x       y       z     vdW  Elec       q    Type
REMARK                         _______ _______ _______ _____ _____    ______ ____
ROOT
ATOM      1  N   UNL     1       3.511   5.985  17.940  0.00  0.00    +0.000 NA
ATOM      2  H   UNL     1       2.927   5.795  17.126  0.00  0.00    +0.000 HD
ENDROOT
BRANCH   1   7
ATOM      3  C   UNL     1       7.834   8.427  17.615  0.00  0.00    +0.000 C 
ATOM      4  C   UNL     1       7.181   7.025  17.573  0.00  0.00    +0.000 C 
ATOM      5  C   UNL     1       7.833   6.220  18.712  0.00  0.00    +0.000 C 
ATOM      6  C   UNL     1       5.657   7.178  17.771  0.00  0.00    +0.000 C 
ATOM      7  C   UNL     1       4.931   5.836  17.574  0.00  0.00    +0.000 C 
ATOM      8  C   UNL     1       5.185   5.405  16.121  0.00  0.00    +0.000 C 
ATOM      9  C   UNL     1       6.700   5.279  15.806  0.00  0.00    +0.000 C 
ATOM     10  C   UNL     1       6.887   5.203  14.271  0.00  0.00    +0.000 C 
ATOM     11  C   UNL     1       7.266   3.964  16.378  0.00  0.00    +0.000 C 
ATOM     12  N   UNL     1       7.493   6.443  16.254  0.00  0.00    +0.000 NA
ATOM     13  H   UNL     1       7.415   7.182  15.553  0.00  0.00    +0.000 HD
ENDBRANCH   1   7
BRANCH   1  14
ATOM     14  C   UNL     1       3.055   5.158  19.073  0.00  0.00    +0.000 C 
ATOM     15  C   UNL     1       1.541   4.780  19.069  0.00  0.00    +0.000 C 
ATOM     16  C   UNL     1       1.193   3.857  17.884  0.00  0.00    +0.000 C 
ATOM     17  C   UNL     1       2.015   2.560  17.962  0.00  0.00    +0.000 C 
ATOM     18  C   UNL     1       1.699   1.831  19.280  0.00  0.00    +0.000 C 
ATOM     19  C   UNL     1       2.045   2.736  20.473  0.00  0.00    +0.000 C 
ATOM     20  C   UNL     1       1.219   4.031  20.380  0.00  0.00    +0.000 C 
ATOM     21  C   UNL     1       3.541   3.086  20.423  0.00  0.00    +0.000 C 
ATOM     22  C   UNL     1       3.872   3.832  19.114  0.00  0.00    +0.000 C 
ATOM     23  C   UNL     1       3.510   2.915  17.924  0.00  0.00    +0.000 C 
ENDBRANCH   1  14
TORSDOF 2
ENDMDL
MODEL 4
REMARK VINA RESULT:      -8.2      1.106      3.124
REMARK  Name = 
REMARK  6 active torsions:
REMARK  status: ('A' for Active; 'I' for Inactive)
REMARK    1  A    between atoms: C_1  and  C_2
REMARK    2  A    between atoms: C_2  and  C_3
REMARK    3  A    between atoms: C_5  and  N_6
REMARK    4  A    between atoms: N_6  and  C_7
REMARK    5  A    between atoms: C_18  and  C_19
REMARK    6  A    between atoms: C_18  and  C_20
REMARK                            x       y       z     vdW  Elec       q    Type
REMARK                         _______ _______ _______ _____ _____    ______ ____
ROOT
ATOM      1  N   UNL     1       3.379   5.580  17.562  0.00  0.00    +0.000 NA
ATOM      2  H   UNL     1       2.900   6.063  16.803  0.00  0.00    +0.000 HD
ENDROOT
BRANCH   1   7
ATOM      3  C   UNL     1       7.550   8.292  17.623  0.00  0.00    +0.000 C 
ATOM      4  C   UNL     1       6.991   6.856  17.479  0.00  0.00    +0.000 C 
ATOM      5  C   UNL     1       7.621   6.040  18.624  0.00  0.00    +0.000 C 
ATOM      6  C   UNL     1       5.451   6.907  17.584  0.00  0.00    +0.000 C 
ATOM      7  C   UNL     1       4.825   5.534  17.284  0.00  0.00    +0.000 C 
ATOM      8  C   UNL     1       5.197   5.186  15.833  0.00  0.00    +0.000 C 
ATOM      9  C   UNL     1       6.733   5.167  15.613  0.00  0.00    +0.000 C 
ATOM     10  C   UNL     1       7.021   5.172  14.092  0.00  0.00    +0.000 C 
ATOM     11  C   UNL     1       7.345   3.864  16.166  0.00  0.00    +0.000 C 
ATOM     12  N   UNL     1       7.422   6.355  16.160  0.00  0.00    +0.000 NA
ATOM     13  H   UNL     1       7.341   7.119  15.487  0.00  0.00    +0.000 HD
ENDBRANCH   1   7
BRANCH   1  14
ATOM     14  C   UNL     1       2.734   4.275  17.796  0.00  0.00    +0.000 C 
ATOM     15  C   UNL     1       3.607   3.208  18.528  0.00  0.00    +0.000 C 
ATOM     16  C   UNL     1       3.920   3.634  19.977  0.00  0.00    +0.000 C 
ATOM     17  C   UNL     1       2.616   3.819  20.770  0.00  0.00    +0.000 C 
ATOM     18  C   UNL     1       1.836   2.492  20.791  0.00  0.00    +0.000 C 
ATOM     19  C   UNL     1       1.511   2.055  19.353  0.00  0.00    +0.000 C 
ATOM     20  C   UNL     1       2.824   1.879  18.571  0.00  0.00    +0.000 C 
ATOM     21  C   UNL     1       0.661   3.142  18.676  0.00  0.00    +0.000 C 
ATOM     22  C   UNL     1       1.435   4.476  18.633  0.00  0.00    +0.000 C 
ATOM     23  C   UNL     1       1.764   4.897  20.083  0.00  0.00    +0.000 C 
ENDBRANCH   1  14
TORSDOF 2
ENDMDL
MODEL 5
REMARK VINA RESULT:      -7.4      1.206      1.624
REMARK  Name = 
REMARK  6 active torsions:
REMARK  status: ('A' for Active; 'I' for Inactive)
REMARK    1  A    between atoms: C_1  and  C_2
REMARK    2  A    between atoms: C_2  and  C_3
REMARK    3  A    between atoms: C_5  and  N_6
REMARK    4  A    between atoms: N_6  and  C_7
REMARK    5  A    between atoms: C_18  and  C_19
REMARK    6  A    between atoms: C_18  and  C_20
REMARK                            x       y       z     vdW  Elec       q    Type
REMARK                         _______ _______ _______ _____ _____    ______ ____
ROOT
ATOM      1  N   UNL     1       3.179   5.322  18.193  0.00  0.00    +0.000 NA
ATOM      2  H   UNL     1       2.600   4.776  17.555  0.00  0.00    +0.000 HD
ENDROOT
BRANCH   1   7
ATOM      3  C   UNL     1       6.338   3.810  14.659  0.00  0.00    +0.000 C 
ATOM      4  C   UNL     1       6.006   4.967  15.631  0.00  0.00    +0.000 C 
ATOM      5  C   UNL     1       5.763   6.205  14.747  0.00  0.00    +0.000 C 
ATOM      6  C   UNL     1       4.754   4.586  16.451  0.00  0.00    +0.000 C 
ATOM      7  C   UNL     1       4.470   5.624  17.550  0.00  0.00    +0.000 C 
ATOM      8  C   UNL     1       5.683   5.613  18.493  0.00  0.00    +0.000 C 
ATOM      9  C   UNL     1       7.006   5.929  17.746  0.00  0.00    +0.000 C 
ATOM     10  C   UNL     1       8.199   5.549  18.657  0.00  0.00    +0.000 C 
ATOM     11  C   UNL     1       7.130   7.442  17.478  0.00  0.00    +0.000 C 
ATOM     12  N   UNL     1       7.182   5.150  16.503  0.00  0.00    +0.000 NA
ATOM     13  H   UNL     1       7.546   4.226  16.744  0.00  0.00    +0.000 HD
ENDBRANCH   1   7
BRANCH   1  14
ATOM     14  C   UNL     1       3.260   4.630  19.492  0.00  0.00    +0.000 C 
ATOM     15  C   UNL     1       2.142   4.987  20.521  0.00  0.00    +0.000 C 
ATOM     16  C   UNL     1       0.757   4.516  20.034  0.00  0.00    +0.000 C 
ATOM     17  C   UNL     1       0.755   2.992  19.828  0.00  0.00    +0.000 C 
ATOM     18  C   UNL     1       1.087   2.294  21.159  0.00  0.00    +0.000 C 
ATOM     19  C   UNL     1       2.469   2.748  21.656  0.00  0.00    +0.000 C 
ATOM     20  C   UNL     1       2.457   4.274  21.854  0.00  0.00    +0.000 C 
ATOM     21  C   UNL     1       3.528   2.384  20.604  0.00  0.00    +0.000 C 
ATOM     22  C   UNL     1       3.218   3.088  19.267  0.00  0.00    +0.000 C 
ATOM     23  C   UNL     1       1.824   2.631  18.785  0.00  0.00    +0.000 C 
ENDBRANCH   1  14
TORSDOF 2
ENDMDL
MODEL 6
REMARK VINA RESULT:      -7.3      1.272      2.228
REMARK  Name = 
REMARK  6 active torsions:
REMARK  status: ('A' for Active; 'I' for Inactive)
REMARK    1  A    between atoms: C_1  and  C_2
REMARK    2  A    between atoms: C_2  and  C_3
REMARK    3  A    between atoms: C_5  and  N_6
REMARK    4  A    between atoms: N_6  and  C_7
REMARK    5  A    between atoms: C_18  and  C_19
REMARK    6  A    between atoms: C_18  and  C_20
REMARK                            x       y       z     vdW  Elec       q    Type
REMARK                         _______ _______ _______ _____ _____    ______ ____
ROOT
ATOM      1  N   UNL     1       3.173   5.649  18.164  0.00  0.00    +0.000 NA
ATOM      2  H   UNL     1       2.488   6.152  17.600  0.00  0.00    +0.000 HD
ENDROOT
BRANCH   1   7
ATOM      3  C   UNL     1       6.409   3.652  14.957  0.00  0.00    +0.000 C 
ATOM      4  C   UNL     1       6.104   4.905  15.811  0.00  0.00    +0.000 C 
ATOM      5  C   UNL     1       5.992   6.077  14.817  0.00  0.00    +0.000 C 
ATOM      6  C   UNL     1       4.787   4.673  16.583  0.00  0.00    +0.000 C 
ATOM      7  C   UNL     1       4.514   5.815  17.577  0.00  0.00    +0.000 C 
ATOM      8  C   UNL     1       5.672   5.809  18.588  0.00  0.00    +0.000 C 
ATOM      9  C   UNL     1       7.051   5.978  17.897  0.00  0.00    +0.000 C 
ATOM     10  C   UNL     1       8.165   5.603  18.905  0.00  0.00    +0.000 C 
ATOM     11  C   UNL     1       7.289   7.453  17.516  0.00  0.00    +0.000 C 
ATOM     12  N   UNL     1       7.241   5.087  16.733  0.00  0.00    +0.000 NA
ATOM     13  H   UNL     1       7.529   4.167  17.069  0.00  0.00    +0.000 HD
ENDBRANCH   1   7
BRANCH   1  14
ATOM     14  C   UNL     1       2.726   4.256  18.347  0.00  0.00    +0.000 C 
ATOM     15  C   UNL     1       3.554   3.406  19.361  0.00  0.00    +0.000 C 
ATOM     16  C   UNL     1       3.406   3.944  20.799  0.00  0.00    +0.000 C 
ATOM     17  C   UNL     1       1.931   3.910  21.231  0.00  0.00    +0.000 C 
ATOM     18  C   UNL     1       1.415   2.461  21.178  0.00  0.00    +0.000 C 
ATOM     19  C   UNL     1       1.549   1.911  19.749  0.00  0.00    +0.000 C 
ATOM     20  C   UNL     1       3.029   1.955  19.329  0.00  0.00    +0.000 C 
ATOM     21  C   UNL     1       0.726   2.787  18.791  0.00  0.00    +0.000 C 
ATOM     22  C   UNL     1       1.241   4.241  18.821  0.00  0.00    +0.000 C 
ATOM     23  C   UNL     1       1.110   4.777  20.264  0.00  0.00    +0.000 C 
ENDBRANCH   1  14
TORSDOF 2
ENDMDL
MODEL 7
REMARK VINA RESULT:      -7.2      3.775      5.651
REMARK  Name = 
REMARK  6 active torsions:
REMARK  status: ('A' for Active; 'I' for Inactive)
REMARK    1  A    between atoms: C_1  and  C_2
REMARK    2  A    between atoms: C_2  and  C_3
REMARK    3  A    between atoms: C_5  and  N_6
REMARK    4  A    between atoms: N_6  and  C_7
REMARK    5  A    between atoms: C_18  and  C_19
REMARK    6  A    between atoms: C_18  and  C_20
REMARK                            x       y       z     vdW  Elec       q    Type
REMARK                         _______ _______ _______ _____ _____    ______ ____
ROOT
ATOM      1  N   UNL     1       2.587   6.935  18.288  0.00  0.00    +0.000 NA
ATOM      2  H   UNL     1       3.437   7.407  17.981  0.00  0.00    +0.000 HD
ENDROOT
BRANCH   1   7
ATOM      3  C   UNL     1       1.404  11.758  18.594  0.00  0.00    +0.000 C 
ATOM      4  C   UNL     1       0.973  10.333  19.016  0.00  0.00    +0.000 C 
ATOM      5  C   UNL     1      -0.435  10.125  18.428  0.00  0.00    +0.000 C 
ATOM      6  C   UNL     1       1.991   9.317  18.454  0.00  0.00    +0.000 C 
ATOM      7  C   UNL     1       1.710   7.898  18.978  0.00  0.00    +0.000 C 
ATOM      8  C   UNL     1       1.876   7.949  20.505  0.00  0.00    +0.000 C 
ATOM      9  C   UNL     1       0.930   8.991  21.160  0.00  0.00    +0.000 C 
ATOM     10  C   UNL     1       1.396   9.245  22.615  0.00  0.00    +0.000 C 
ATOM     11  C   UNL     1      -0.505   8.435  21.256  0.00  0.00    +0.000 C 
ATOM     12  N   UNL     1       0.950  10.308  20.491  0.00  0.00    +0.000 NA
ATOM     13  H   UNL     1       1.756  10.836  20.832  0.00  0.00    +0.000 HD
ENDBRANCH   1   7
BRANCH   1  14
ATOM     14  C   UNL     1       2.948   5.734  19.063  0.00  0.00    +0.000 C 
ATOM     15  C   UNL     1       1.839   4.641  19.176  0.00  0.00    +0.000 C 
ATOM     16  C   UNL     1       1.527   4.012  17.803  0.00  0.00    +0.000 C 
ATOM     17  C   UNL     1       2.789   3.360  17.217  0.00  0.00    +0.000 C 
ATOM     18  C   UNL     1       3.291   2.263  18.173  0.00  0.00    +0.000 C 
ATOM     19  C   UNL     1       3.613   2.875  19.546  0.00  0.00    +0.000 C 
ATOM     20  C   UNL     1       2.342   3.527  20.118  0.00  0.00    +0.000 C 
ATOM     21  C   UNL     1       4.699   3.948  19.378  0.00  0.00    +0.000 C 
ATOM     22  C   UNL     1       4.207   5.064  18.433  0.00  0.00    +0.000 C 
ATOM     23  C   UNL     1       3.877   4.434  17.062  0.00  0.00    +0.000 C 
ENDBRANCH   1  14
TORSDOF 2
ENDMDL
MODEL 8
REMARK VINA RESULT:      -7.2      3.565      5.393
REMARK  Name = 
REMARK  6 active torsions:
REMARK  status: ('A' for Active; 'I' for Inactive)
REMARK    1  A    between atoms: C_1  and  C_2
REMARK    2  A    between atoms: C_2  and  C_3
REMARK    3  A    between atoms: C_5  and  N_6
REMARK    4  A    between atoms: N_6  and  C_7
REMARK    5  A    between atoms: C_18  and  C_19
REMARK    6  A    between atoms: C_18  and  C_20
REMARK                            x       y       z     vdW  Elec       q    Type
REMARK                         _______ _______ _______ _____ _____    ______ ____
ROOT
ATOM      1  N   UNL     1       2.494   6.333  18.678  0.00  0.00    +0.000 NA
ATOM      2  H   UNL     1       3.473   6.458  18.935  0.00  0.00    +0.000 HD
ENDROOT
BRANCH   1   7
ATOM      3  C   UNL     1       1.857  11.248  18.255  0.00  0.00    +0.000 C 
ATOM      4  C   UNL     1       1.247   9.952  18.839  0.00  0.00    +0.000 C 
ATOM      5  C   UNL     1      -0.148   9.815  18.200  0.00  0.00    +0.000 C 
ATOM      6  C   UNL     1       2.167   8.764  18.483  0.00  0.00    +0.000 C 
ATOM      7  C   UNL     1       1.703   7.471  19.176  0.00  0.00    +0.000 C 
ATOM      8  C   UNL     1       1.804   7.720  20.690  0.00  0.00    +0.000 C 
ATOM      9  C   UNL     1       0.954   8.939  21.139  0.00  0.00    +0.000 C 
ATOM     10  C   UNL     1       1.380   9.346  22.571  0.00  0.00    +0.000 C 
ATOM     11  C   UNL     1      -0.538   8.559  21.222  0.00  0.00    +0.000 C 
ATOM     12  N   UNL     1       1.155  10.139  20.300  0.00  0.00    +0.000 NA
ATOM     13  H   UNL     1       1.999  10.620  20.614  0.00  0.00    +0.000 HD
ENDBRANCH   1   7
BRANCH   1  14
ATOM     14  C   UNL     1       2.041   5.001  19.118  0.00  0.00    +0.000 C 
ATOM     15  C   UNL     1       1.588   4.029  17.983  0.00  0.00    +0.000 C 
ATOM     16  C   UNL     1       2.770   3.641  17.070  0.00  0.00    +0.000 C 
ATOM     17  C   UNL     1       3.870   2.948  17.890  0.00  0.00    +0.000 C 
ATOM     18  C   UNL     1       3.298   1.677  18.545  0.00  0.00    +0.000 C 
ATOM     19  C   UNL     1       2.123   2.047  19.463  0.00  0.00    +0.000 C 
ATOM     20  C   UNL     1       1.032   2.743  18.630  0.00  0.00    +0.000 C 
ATOM     21  C   UNL     1       2.617   3.010  20.553  0.00  0.00    +0.000 C 
ATOM     22  C   UNL     1       3.181   4.297  19.914  0.00  0.00    +0.000 C 
ATOM     23  C   UNL     1       4.354   3.909  18.987  0.00  0.00    +0.000 C 
ENDBRANCH   1  14
TORSDOF 2
ENDMDL
MODEL 9
REMARK VINA RESULT:      -7.1      0.945      2.458
REMARK  Name = 
REMARK  6 active torsions:
REMARK  status: ('A' for Active; 'I' for Inactive)
REMARK    1  A    between atoms: C_1  and  C_2
REMARK    2  A    between atoms: C_2  and  C_3
REMARK    3  A    between atoms: C_5  and  N_6
REMARK    4  A    between atoms: N_6  and  C_7
REMARK    5  A    between atoms: C_18  and  C_19
REMARK    6  A    between atoms: C_18  and  C_20
REMARK                            x       y       z     vdW  Elec       q    Type
REMARK                         _______ _______ _______ _____ _____    ______ ____
ROOT
ATOM      1  N   UNL     1       5.109   3.348  18.780  0.00  0.00    +0.000 NA
ATOM      2  H   UNL     1       5.887   3.120  19.398  0.00  0.00    +0.000 HD
ENDROOT
BRANCH   1   7
ATOM      3  C   UNL     1       4.410   7.912  16.927  0.00  0.00    +0.000 C 
ATOM      4  C   UNL     1       5.342   6.677  16.897  0.00  0.00    +0.000 C 
ATOM      5  C   UNL     1       6.725   7.180  17.352  0.00  0.00    +0.000 C 
ATOM      6  C   UNL     1       4.775   5.602  17.849  0.00  0.00    +0.000 C 
ATOM      7  C   UNL     1       5.565   4.286  17.739  0.00  0.00    +0.000 C 
ATOM      8  C   UNL     1       5.395   3.787  16.295  0.00  0.00    +0.000 C 
ATOM      9  C   UNL     1       5.886   4.831  15.256  0.00  0.00    +0.000 C 
ATOM     10  C   UNL     1       5.362   4.428  13.856  0.00  0.00    +0.000 C 
ATOM     11  C   UNL     1       7.425   4.820  15.162  0.00  0.00    +0.000 C 
ATOM     12  N   UNL     1       5.375   6.195  15.503  0.00  0.00    +0.000 NA
ATOM     13  H   UNL     1       4.431   6.266  15.119  0.00  0.00    +0.000 HD
ENDBRANCH   1   7
BRANCH   1  14
ATOM     14  C   UNL     1       3.961   3.800  19.586  0.00  0.00    +0.000 C 
ATOM     15  C   UNL     1       2.784   4.444  18.788  0.00  0.00    +0.000 C 
ATOM     16  C   UNL     1       2.098   3.415  17.867  0.00  0.00    +0.000 C 
ATOM     17  C   UNL     1       1.538   2.248  18.696  0.00  0.00    +0.000 C 
ATOM     18  C   UNL     1       0.509   2.786  19.708  0.00  0.00    +0.000 C 
ATOM     19  C   UNL     1       1.178   3.810  20.639  0.00  0.00    +0.000 C 
ATOM     20  C   UNL     1       1.738   4.969  19.795  0.00  0.00    +0.000 C 
ATOM     21  C   UNL     1       2.333   3.129  21.390  0.00  0.00    +0.000 C 
ATOM     22  C   UNL     1       3.381   2.597  20.391  0.00  0.00    +0.000 C 
ATOM     23  C   UNL     1       2.693   1.578  19.456  0.00  0.00    +0.000 C 
ENDBRANCH   1  14
TORSDOF 2
ENDMDL
