MODEL 1
REMARK VINA RESULT:      -7.0      0.000      0.000
REMARK  Name = 
REMARK  7 active torsions:
REMARK  status: ('A' for Active; 'I' for Inactive)
REMARK    1  A    between atoms: C_1  and  C_2
REMARK    2  A    between atoms: C_2  and  O_3
REMARK    3  A    between atoms: C_2  and  C_4
REMARK    4  A    between atoms: C_7  and  S_8
REMARK    5  A    between atoms: N_9  and  C_10
REMARK    6  A    between atoms: C_10  and  C_11
REMARK    7  A    between atoms: C_11  and  C_12
REMARK                            x       y       z     vdW  Elec       q    Type
REMARK                         _______ _______ _______ _____ _____    ______ ____
ROOT
ATOM      1  C   UNL     1       6.196   5.815  17.698  0.00  0.00    +0.000 C 
ATOM      2  C   UNL     1       7.507   6.331  17.054  0.00  0.00    +0.000 C 
ATOM      3  N   UNL     1       7.478   5.911  15.637  0.00  0.00    +0.000 NA
ATOM      4  C   UNL     1       6.573   4.974  15.621  0.00  0.00    +0.000 C 
ATOM      5  N   UNL     1       5.881   4.695  16.788  0.00  0.00    +0.000 N 
ENDROOT
BRANCH   1   7
ATOM      6  C   UNL     1       7.857   5.663  19.634  0.00  0.00    +0.000 C 
ATOM      7  C   UNL     1       6.399   5.486  19.199  0.00  0.00    +0.000 C 
BRANCH   7   8
ATOM      8  O   UNL     1       5.963   4.172  19.549  0.00  0.00    +0.000 OA
ATOM      9  H   UNL     1       5.668   3.706  18.750  0.00  0.00    +0.000 HD
ENDBRANCH   7   8
ENDBRANCH   1   7
BRANCH   4  10
ATOM     10  S   UNL     1       6.257   4.204  14.097  0.00  0.00    +0.000 S 
ATOM     11  H   UNL     1       7.469   4.477  13.600  0.00  0.00    +0.000 HD
ENDBRANCH   4  10
BRANCH   5  12
ATOM     12  C   UNL     1       4.533   4.086  16.719  0.00  0.00    +0.000 C 
BRANCH  12  13
ATOM     13  C   UNL     1       3.410   4.964  17.277  0.00  0.00    +0.000 C 
BRANCH  13  14
ATOM     14  C   UNL     1       2.526   4.439  18.389  0.00  0.00    +0.000 A 
ATOM     15  C   UNL     1       2.444   4.981  19.679  0.00  0.00    +0.000 A 
ATOM     16  C   UNL     1       1.604   4.401  20.645  0.00  0.00    +0.000 A 
ATOM     17  C   UNL     1       0.842   3.277  20.334  0.00  0.00    +0.000 A 
ATOM     18  C   UNL     1       0.917   2.738  19.058  0.00  0.00    +0.000 A 
ATOM     19  F   UNL     1       0.192   1.657  18.748  0.00  0.00    +0.000 F 
ATOM     20  C   UNL     1       1.743   3.308  18.095  0.00  0.00    +0.000 A 
ENDBRANCH  13  14
ENDBRANCH  12  13
ENDBRANCH   5  12
TORSDOF 6
ENDMDL
MODEL 2
REMARK VINA RESULT:      -7.0      1.271      1.675
REMARK  Name = 
REMARK  7 active torsions:
REMARK  status: ('A' for Active; 'I' for Inactive)
REMARK    1  A    between atoms: C_1  and  C_2
REMARK    2  A    between atoms: C_2  and  O_3
REMARK    3  A    between atoms: C_2  and  C_4
REMARK    4  A    between atoms: C_7  and  S_8
REMARK    5  A    between atoms: N_9  and  C_10
REMARK    6  A    between atoms: C_10  and  C_11
REMARK    7  A    between atoms: C_11  and  C_12
REMARK                            x       y       z     vdW  Elec       q    Type
REMARK                         _______ _______ _______ _____ _____    ______ ____
ROOT
ATOM      1  C   UNL     1       6.003   5.648  17.660  0.00  0.00    +0.000 C 
ATOM      2  C   UNL     1       7.229   6.346  17.022  0.00  0.00    +0.000 C 
ATOM      3  N   UNL     1       7.282   5.909  15.611  0.00  0.00    +0.000 NA
ATOM      4  C   UNL     1       6.527   4.846  15.599  0.00  0.00    +0.000 C 
ATOM      5  N   UNL     1       5.870   4.481  16.763  0.00  0.00    +0.000 N 
ENDROOT
BRANCH   1   7
ATOM      6  C   UNL     1       7.686   5.627  19.582  0.00  0.00    +0.000 C 
ATOM      7  C   UNL     1       6.235   5.371  19.167  0.00  0.00    +0.000 C 
BRANCH   7   8
ATOM      8  O   UNL     1       5.863   4.049  19.559  0.00  0.00    +0.000 OA
ATOM      9  H   UNL     1       5.509   3.572  18.791  0.00  0.00    +0.000 HD
ENDBRANCH   7   8
ENDBRANCH   1   7
BRANCH   4  10
ATOM     10  S   UNL     1       6.348   4.019  14.082  0.00  0.00    +0.000 S 
ATOM     11  H   UNL     1       6.675   5.091  13.350  0.00  0.00    +0.000 HD
ENDBRANCH   4  10
BRANCH   5  12
ATOM     12  C   UNL     1       4.630   3.677  16.689  0.00  0.00    +0.000 C 
BRANCH  12  13
ATOM     13  C   UNL     1       3.343   4.468  16.933  0.00  0.00    +0.000 C 
BRANCH  13  14
ATOM     14  C   UNL     1       2.492   4.165  18.148  0.00  0.00    +0.000 A 
ATOM     15  C   UNL     1       1.735   3.000  18.333  0.00  0.00    +0.000 A 
ATOM     16  C   UNL     1       0.961   2.829  19.493  0.00  0.00    +0.000 A 
ATOM     17  C   UNL     1       0.934   3.815  20.476  0.00  0.00    +0.000 A 
ATOM     18  C   UNL     1       1.685   4.969  20.300  0.00  0.00    +0.000 A 
ATOM     19  F   UNL     1       1.665   5.925  21.236  0.00  0.00    +0.000 F 
ATOM     20  C   UNL     1       2.455   5.145  19.156  0.00  0.00    +0.000 A 
ENDBRANCH  13  14
ENDBRANCH  12  13
ENDBRANCH   5  12
TORSDOF 6
ENDMDL
MODEL 3
REMARK VINA RESULT:      -6.7      2.456      3.180
REMARK  Name = 
REMARK  7 active torsions:
REMARK  status: ('A' for Active; 'I' for Inactive)
REMARK    1  A    between atoms: C_1  and  C_2
REMARK    2  A    between atoms: C_2  and  O_3
REMARK    3  A    between atoms: C_2  and  C_4
REMARK    4  A    between atoms: C_7  and  S_8
REMARK    5  A    between atoms: N_9  and  C_10
REMARK    6  A    between atoms: C_10  and  C_11
REMARK    7  A    between atoms: C_11  and  C_12
REMARK                            x       y       z     vdW  Elec       q    Type
REMARK                         _______ _______ _______ _____ _____    ______ ____
ROOT
ATOM      1  C   UNL     1       6.148   5.868  17.013  0.00  0.00    +0.000 C 
ATOM      2  C   UNL     1       5.335   6.802  16.082  0.00  0.00    +0.000 C 
ATOM      3  N   UNL     1       4.154   7.247  16.851  0.00  0.00    +0.000 NA
ATOM      4  C   UNL     1       4.089   6.382  17.825  0.00  0.00    +0.000 C 
ATOM      5  N   UNL     1       5.081   5.421  17.931  0.00  0.00    +0.000 N 
ENDROOT
BRANCH   1   7
ATOM      6  C   UNL     1       5.943   3.731  15.627  0.00  0.00    +0.000 C 
ATOM      7  C   UNL     1       6.898   4.781  16.201  0.00  0.00    +0.000 C 
BRANCH   7   8
ATOM      8  O   UNL     1       7.919   4.124  16.953  0.00  0.00    +0.000 OA
ATOM      9  H   UNL     1       7.557   3.315  17.351  0.00  0.00    +0.000 HD
ENDBRANCH   7   8
ENDBRANCH   1   7
BRANCH   4  10
ATOM     10  S   UNL     1       2.789   6.567  18.962  0.00  0.00    +0.000 S 
ATOM     11  H   UNL     1       2.258   7.620  18.328  0.00  0.00    +0.000 HD
ENDBRANCH   4  10
BRANCH   5  12
ATOM     12  C   UNL     1       5.374   4.806  19.245  0.00  0.00    +0.000 C 
BRANCH  12  13
ATOM     13  C   UNL     1       4.910   3.354  19.385  0.00  0.00    +0.000 C 
BRANCH  13  14
ATOM     14  C   UNL     1       3.429   3.038  19.431  0.00  0.00    +0.000 A 
ATOM     15  C   UNL     1       2.614   2.828  18.310  0.00  0.00    +0.000 A 
ATOM     16  C   UNL     1       1.243   2.561  18.466  0.00  0.00    +0.000 A 
ATOM     17  C   UNL     1       0.675   2.503  19.736  0.00  0.00    +0.000 A 
ATOM     18  C   UNL     1       1.478   2.707  20.848  0.00  0.00    +0.000 A 
ATOM     19  F   UNL     1       0.943   2.656  22.074  0.00  0.00    +0.000 F 
ATOM     20  C   UNL     1       2.836   2.968  20.703  0.00  0.00    +0.000 A 
ENDBRANCH  13  14
ENDBRANCH  12  13
ENDBRANCH   5  12
TORSDOF 6
ENDMDL
MODEL 4
REMARK VINA RESULT:      -6.6      3.558      5.900
REMARK  Name = 
REMARK  7 active torsions:
REMARK  status: ('A' for Active; 'I' for Inactive)
REMARK    1  A    between atoms: C_1  and  C_2
REMARK    2  A    between atoms: C_2  and  O_3
REMARK    3  A    between atoms: C_2  and  C_4
REMARK    4  A    between atoms: C_7  and  S_8
REMARK    5  A    between atoms: N_9  and  C_10
REMARK    6  A    between atoms: C_10  and  C_11
REMARK    7  A    between atoms: C_11  and  C_12
REMARK                            x       y       z     vdW  Elec       q    Type
REMARK                         _______ _______ _______ _____ _____    ______ ____
ROOT
ATOM      1  C   UNL     1       2.736   3.758  19.109  0.00  0.00    +0.000 C 
ATOM      2  C   UNL     1       2.443   3.469  20.602  0.00  0.00    +0.000 C 
ATOM      3  N   UNL     1       1.881   4.710  21.174  0.00  0.00    +0.000 NA
ATOM      4  C   UNL     1       2.221   5.620  20.305  0.00  0.00    +0.000 C 
ATOM      5  N   UNL     1       2.879   5.227  19.150  0.00  0.00    +0.000 N 
ENDROOT
BRANCH   1   7
ATOM      6  C   UNL     1       3.559   1.493  18.259  0.00  0.00    +0.000 C 
ATOM      7  C   UNL     1       3.948   2.933  18.604  0.00  0.00    +0.000 C 
BRANCH   7   8
ATOM      8  O   UNL     1       5.038   2.915  19.526  0.00  0.00    +0.000 OA
ATOM      9  H   UNL     1       5.678   3.603  19.282  0.00  0.00    +0.000 HD
ENDBRANCH   7   8
ENDBRANCH   1   7
BRANCH   4  10
ATOM     10  S   UNL     1       1.743   7.255  20.642  0.00  0.00    +0.000 S 
ATOM     11  H   UNL     1       2.589   7.787  19.752  0.00  0.00    +0.000 HD
ENDBRANCH   4  10
BRANCH   5  12
ATOM     12  C   UNL     1       2.796   6.065  17.933  0.00  0.00    +0.000 C 
BRANCH  12  13
ATOM     13  C   UNL     1       4.102   6.766  17.553  0.00  0.00    +0.000 C 
BRANCH  13  14
ATOM     14  C   UNL     1       5.172   6.005  16.798  0.00  0.00    +0.000 A 
ATOM     15  C   UNL     1       5.184   5.789  15.413  0.00  0.00    +0.000 A 
ATOM     16  C   UNL     1       6.218   5.048  14.815  0.00  0.00    +0.000 A 
ATOM     17  C   UNL     1       7.246   4.518  15.591  0.00  0.00    +0.000 A 
ATOM     18  C   UNL     1       7.241   4.732  16.961  0.00  0.00    +0.000 A 
ATOM     19  F   UNL     1       8.221   4.224  17.717  0.00  0.00    +0.000 F 
ATOM     20  C   UNL     1       6.223   5.466  17.560  0.00  0.00    +0.000 A 
ENDBRANCH  13  14
ENDBRANCH  12  13
ENDBRANCH   5  12
TORSDOF 6
ENDMDL
MODEL 5
REMARK VINA RESULT:      -6.6      2.157      2.912
REMARK  Name = 
REMARK  7 active torsions:
REMARK  status: ('A' for Active; 'I' for Inactive)
REMARK    1  A    between atoms: C_1  and  C_2
REMARK    2  A    between atoms: C_2  and  O_3
REMARK    3  A    between atoms: C_2  and  C_4
REMARK    4  A    between atoms: C_7  and  S_8
REMARK    5  A    between atoms: N_9  and  C_10
REMARK    6  A    between atoms: C_10  and  C_11
REMARK    7  A    between atoms: C_11  and  C_12
REMARK                            x       y       z     vdW  Elec       q    Type
REMARK                         _______ _______ _______ _____ _____    ______ ____
ROOT
ATOM      1  C   UNL     1       5.802   4.539  16.349  0.00  0.00    +0.000 C 
ATOM      2  C   UNL     1       7.261   4.092  16.083  0.00  0.00    +0.000 C 
ATOM      3  N   UNL     1       8.015   4.338  17.330  0.00  0.00    +0.000 NA
ATOM      4  C   UNL     1       7.250   5.167  17.983  0.00  0.00    +0.000 C 
ATOM      5  N   UNL     1       6.020   5.506  17.444  0.00  0.00    +0.000 N 
ENDROOT
BRANCH   1   7
ATOM      6  C   UNL     1       5.602   4.298  13.812  0.00  0.00    +0.000 C 
ATOM      7  C   UNL     1       5.130   5.061  15.053  0.00  0.00    +0.000 C 
BRANCH   7   8
ATOM      8  O   UNL     1       5.325   6.460  14.844  0.00  0.00    +0.000 OA
ATOM      9  H   UNL     1       4.542   6.833  14.408  0.00  0.00    +0.000 HD
ENDBRANCH   7   8
ENDBRANCH   1   7
BRANCH   4  10
ATOM     10  S   UNL     1       7.817   5.716  19.530  0.00  0.00    +0.000 S 
ATOM     11  H   UNL     1       8.341   4.530  19.865  0.00  0.00    +0.000 HD
ENDBRANCH   4  10
BRANCH   5  12
ATOM     12  C   UNL     1       4.924   5.957  18.331  0.00  0.00    +0.000 C 
BRANCH  12  13
ATOM     13  C   UNL     1       3.527   5.514  17.891  0.00  0.00    +0.000 C 
BRANCH  13  14
ATOM     14  C   UNL     1       2.651   4.731  18.846  0.00  0.00    +0.000 A 
ATOM     15  C   UNL     1       2.612   4.909  20.235  0.00  0.00    +0.000 A 
ATOM     16  C   UNL     1       1.774   4.111  21.034  0.00  0.00    +0.000 A 
ATOM     17  C   UNL     1       0.971   3.131  20.454  0.00  0.00    +0.000 A 
ATOM     18  C   UNL     1       1.002   2.954  19.079  0.00  0.00    +0.000 A 
ATOM     19  F   UNL     1       0.237   2.015  18.511  0.00  0.00    +0.000 F 
ATOM     20  C   UNL     1       1.826   3.742  18.282  0.00  0.00    +0.000 A 
ENDBRANCH  13  14
ENDBRANCH  12  13
ENDBRANCH   5  12
TORSDOF 6
ENDMDL
MODEL 6
REMARK VINA RESULT:      -6.6      3.533      5.936
REMARK  Name = 
REMARK  7 active torsions:
REMARK  status: ('A' for Active; 'I' for Inactive)
REMARK    1  A    between atoms: C_1  and  C_2
REMARK    2  A    between atoms: C_2  and  O_3
REMARK    3  A    between atoms: C_2  and  C_4
REMARK    4  A    between atoms: C_7  and  S_8
REMARK    5  A    between atoms: N_9  and  C_10
REMARK    6  A    between atoms: C_10  and  C_11
REMARK    7  A    between atoms: C_11  and  C_12
REMARK                            x       y       z     vdW  Elec       q    Type
REMARK                         _______ _______ _______ _____ _____    ______ ____
ROOT
ATOM      1  C   UNL     1       2.033   3.290  19.248  0.00  0.00    +0.000 C 
ATOM      2  C   UNL     1       1.512   3.611  20.671  0.00  0.00    +0.000 C 
ATOM      3  N   UNL     1       1.427   5.083  20.771  0.00  0.00    +0.000 NA
ATOM      4  C   UNL     1       2.176   5.493  19.785  0.00  0.00    +0.000 C 
ATOM      5  N   UNL     1       2.733   4.552  18.935  0.00  0.00    +0.000 N 
ENDROOT
BRANCH   1   7
ATOM      6  C   UNL     1       4.238   2.172  19.894  0.00  0.00    +0.000 C 
ATOM      7  C   UNL     1       2.868   1.984  19.237  0.00  0.00    +0.000 C 
BRANCH   7   8
ATOM      8  O   UNL     1       3.047   1.443  17.928  0.00  0.00    +0.000 OA
ATOM      9  H   UNL     1       3.576   0.630  17.984  0.00  0.00    +0.000 HD
ENDBRANCH   7   8
ENDBRANCH   1   7
BRANCH   4  10
ATOM     10  S   UNL     1       2.344   7.209  19.579  0.00  0.00    +0.000 S 
ATOM     11  H   UNL     1       1.570   7.507  20.630  0.00  0.00    +0.000 HD
ENDBRANCH   4  10
BRANCH   5  12
ATOM     12  C   UNL     1       3.098   4.932  17.551  0.00  0.00    +0.000 C 
BRANCH  12  13
ATOM     13  C   UNL     1       4.515   4.531  17.135  0.00  0.00    +0.000 C 
BRANCH  13  14
ATOM     14  C   UNL     1       5.692   5.392  17.543  0.00  0.00    +0.000 A 
ATOM     15  C   UNL     1       6.202   6.466  16.801  0.00  0.00    +0.000 A 
ATOM     16  C   UNL     1       7.316   7.188  17.264  0.00  0.00    +0.000 A 
ATOM     17  C   UNL     1       7.929   6.845  18.467  0.00  0.00    +0.000 A 
ATOM     18  C   UNL     1       7.425   5.785  19.207  0.00  0.00    +0.000 A 
ATOM     19  F   UNL     1       8.007   5.445  20.362  0.00  0.00    +0.000 F 
ATOM     20  C   UNL     1       6.322   5.068  18.757  0.00  0.00    +0.000 A 
ENDBRANCH  13  14
ENDBRANCH  12  13
ENDBRANCH   5  12
TORSDOF 6
ENDMDL
MODEL 7
REMARK VINA RESULT:      -6.5      3.457      5.682
REMARK  Name = 
REMARK  7 active torsions:
REMARK  status: ('A' for Active; 'I' for Inactive)
REMARK    1  A    between atoms: C_1  and  C_2
REMARK    2  A    between atoms: C_2  and  O_3
REMARK    3  A    between atoms: C_2  and  C_4
REMARK    4  A    between atoms: C_7  and  S_8
REMARK    5  A    between atoms: N_9  and  C_10
REMARK    6  A    between atoms: C_10  and  C_11
REMARK    7  A    between atoms: C_11  and  C_12
REMARK                            x       y       z     vdW  Elec       q    Type
REMARK                         _______ _______ _______ _____ _____    ______ ____
ROOT
ATOM      1  C   UNL     1       2.706   3.664  19.123  0.00  0.00    +0.000 C 
ATOM      2  C   UNL     1       2.472   3.362  20.624  0.00  0.00    +0.000 C 
ATOM      3  N   UNL     1       1.898   4.586  21.220  0.00  0.00    +0.000 NA
ATOM      4  C   UNL     1       2.185   5.508  20.344  0.00  0.00    +0.000 C 
ATOM      5  N   UNL     1       2.812   5.136  19.166  0.00  0.00    +0.000 N 
ENDROOT
BRANCH   1   7
ATOM      6  C   UNL     1       3.581   1.402  18.316  0.00  0.00    +0.000 C 
ATOM      7  C   UNL     1       3.921   2.872  18.574  0.00  0.00    +0.000 C 
BRANCH   7   8
ATOM      8  O   UNL     1       5.068   2.946  19.421  0.00  0.00    +0.000 OA
ATOM      9  H   UNL     1       5.738   2.314  19.113  0.00  0.00    +0.000 HD
ENDBRANCH   7   8
ENDBRANCH   1   7
BRANCH   4  10
ATOM     10  S   UNL     1       1.676   7.129  20.704  0.00  0.00    +0.000 S 
ATOM     11  H   UNL     1       2.479   7.686  19.789  0.00  0.00    +0.000 HD
ENDBRANCH   4  10
BRANCH   5  12
ATOM     12  C   UNL     1       2.666   5.976  17.955  0.00  0.00    +0.000 C 
BRANCH  12  13
ATOM     13  C   UNL     1       3.937   6.723  17.542  0.00  0.00    +0.000 C 
BRANCH  13  14
ATOM     14  C   UNL     1       5.227   5.957  17.339  0.00  0.00    +0.000 A 
ATOM     15  C   UNL     1       6.331   5.992  18.201  0.00  0.00    +0.000 A 
ATOM     16  C   UNL     1       7.492   5.257  17.905  0.00  0.00    +0.000 A 
ATOM     17  C   UNL     1       7.561   4.483  16.749  0.00  0.00    +0.000 A 
ATOM     18  C   UNL     1       6.470   4.442  15.894  0.00  0.00    +0.000 A 
ATOM     19  F   UNL     1       6.526   3.704  14.779  0.00  0.00    +0.000 F 
ATOM     20  C   UNL     1       5.317   5.164  16.181  0.00  0.00    +0.000 A 
ENDBRANCH  13  14
ENDBRANCH  12  13
ENDBRANCH   5  12
TORSDOF 6
ENDMDL
MODEL 8
REMARK VINA RESULT:      -6.5      1.395      1.600
REMARK  Name = 
REMARK  7 active torsions:
REMARK  status: ('A' for Active; 'I' for Inactive)
REMARK    1  A    between atoms: C_1  and  C_2
REMARK    2  A    between atoms: C_2  and  O_3
REMARK    3  A    between atoms: C_2  and  C_4
REMARK    4  A    between atoms: C_7  and  S_8
REMARK    5  A    between atoms: N_9  and  C_10
REMARK    6  A    between atoms: C_10  and  C_11
REMARK    7  A    between atoms: C_11  and  C_12
REMARK                            x       y       z     vdW  Elec       q    Type
REMARK                         _______ _______ _______ _____ _____    ______ ____
ROOT
ATOM      1  C   UNL     1       6.081   5.624  17.374  0.00  0.00    +0.000 C 
ATOM      2  C   UNL     1       7.444   5.864  16.679  0.00  0.00    +0.000 C 
ATOM      3  N   UNL     1       7.297   5.403  15.282  0.00  0.00    +0.000 NA
ATOM      4  C   UNL     1       6.235   4.648  15.328  0.00  0.00    +0.000 C 
ATOM      5  N   UNL     1       5.539   4.546  16.521  0.00  0.00    +0.000 N 
ENDROOT
BRANCH   1   7
ATOM      6  C   UNL     1       7.605   5.840  19.414  0.00  0.00    +0.000 C 
ATOM      7  C   UNL     1       6.267   5.320  18.883  0.00  0.00    +0.000 C 
BRANCH   7   8
ATOM      8  O   UNL     1       6.147   3.932  19.195  0.00  0.00    +0.000 OA
ATOM      9  H   UNL     1       5.347   3.575  18.777  0.00  0.00    +0.000 HD
ENDBRANCH   7   8
ENDBRANCH   1   7
BRANCH   4  10
ATOM     10  S   UNL     1       5.738   3.892  13.846  0.00  0.00    +0.000 S 
ATOM     11  H   UNL     1       5.490   2.709  14.422  0.00  0.00    +0.000 HD
ENDBRANCH   4  10
BRANCH   5  12
ATOM     12  C   UNL     1       4.102   4.194  16.510  0.00  0.00    +0.000 C 
BRANCH  12  13
ATOM     13  C   UNL     1       3.747   2.944  17.318  0.00  0.00    +0.000 C 
BRANCH  13  14
ATOM     14  C   UNL     1       2.790   3.049  18.487  0.00  0.00    +0.000 A 
ATOM     15  C   UNL     1       1.492   3.575  18.422  0.00  0.00    +0.000 A 
ATOM     16  C   UNL     1       0.692   3.646  19.575  0.00  0.00    +0.000 A 
ATOM     17  C   UNL     1       1.179   3.195  20.800  0.00  0.00    +0.000 A 
ATOM     18  C   UNL     1       2.461   2.670  20.869  0.00  0.00    +0.000 A 
ATOM     19  F   UNL     1       2.940   2.236  22.041  0.00  0.00    +0.000 F 
ATOM     20  C   UNL     1       3.258   2.594  19.732  0.00  0.00    +0.000 A 
ENDBRANCH  13  14
ENDBRANCH  12  13
ENDBRANCH   5  12
TORSDOF 6
ENDMDL
MODEL 9
REMARK VINA RESULT:      -6.4      3.708      5.893
REMARK  Name = 
REMARK  7 active torsions:
REMARK  status: ('A' for Active; 'I' for Inactive)
REMARK    1  A    between atoms: C_1  and  C_2
REMARK    2  A    between atoms: C_2  and  O_3
REMARK    3  A    between atoms: C_2  and  C_4
REMARK    4  A    between atoms: C_7  and  S_8
REMARK    5  A    between atoms: N_9  and  C_10
REMARK    6  A    between atoms: C_10  and  C_11
REMARK    7  A    between atoms: C_11  and  C_12
REMARK                            x       y       z     vdW  Elec       q    Type
REMARK                         _______ _______ _______ _____ _____    ______ ____
ROOT
ATOM      1  C   UNL     1       2.851   3.113  19.574  0.00  0.00    +0.000 C 
ATOM      2  C   UNL     1       2.759   2.970  21.114  0.00  0.00    +0.000 C 
ATOM      3  N   UNL     1       2.071   4.178  21.613  0.00  0.00    +0.000 NA
ATOM      4  C   UNL     1       2.177   5.015  20.618  0.00  0.00    +0.000 C 
ATOM      5  N   UNL     1       2.767   4.582  19.442  0.00  0.00    +0.000 N 
ENDROOT
BRANCH   1   7
ATOM      6  C   UNL     1       3.774   1.278  18.053  0.00  0.00    +0.000 C 
ATOM      7  C   UNL     1       4.119   2.414  19.020  0.00  0.00    +0.000 C 
BRANCH   7   8
ATOM      8  O   UNL     1       4.976   1.911  20.046  0.00  0.00    +0.000 OA
ATOM      9  H   UNL     1       5.669   2.564  20.237  0.00  0.00    +0.000 HD
ENDBRANCH   7   8
ENDBRANCH   1   7
BRANCH   4  10
ATOM     10  S   UNL     1       1.486   6.593  20.834  0.00  0.00    +0.000 S 
ATOM     11  H   UNL     1       0.228   6.171  20.659  0.00  0.00    +0.000 HD
ENDBRANCH   4  10
BRANCH   5  12
ATOM     12  C   UNL     1       2.434   5.244  18.161  0.00  0.00    +0.000 C 
BRANCH  12  13
ATOM     13  C   UNL     1       3.539   6.142  17.603  0.00  0.00    +0.000 C 
BRANCH  13  14
ATOM     14  C   UNL     1       4.903   5.558  17.302  0.00  0.00    +0.000 A 
ATOM     15  C   UNL     1       5.213   4.763  16.190  0.00  0.00    +0.000 A 
ATOM     16  C   UNL     1       6.511   4.253  16.017  0.00  0.00    +0.000 A 
ATOM     17  C   UNL     1       7.509   4.531  16.948  0.00  0.00    +0.000 A 
ATOM     18  C   UNL     1       7.209   5.322  18.048  0.00  0.00    +0.000 A 
ATOM     19  F   UNL     1       8.158   5.593  18.951  0.00  0.00    +0.000 F 
ATOM     20  C   UNL     1       5.928   5.832  18.225  0.00  0.00    +0.000 A 
ENDBRANCH  13  14
ENDBRANCH  12  13
ENDBRANCH   5  12
TORSDOF 6
ENDMDL
