MODEL 1
REMARK VINA RESULT:      -8.7      0.000      0.000
REMARK  Name = 
REMARK  9 active torsions:
REMARK  status: ('A' for Active; 'I' for Inactive)
REMARK    1  A    between atoms: C_1  and  O_2
REMARK    2  A    between atoms: O_2  and  C_3
REMARK    3  A    between atoms: C_5  and  C_6
REMARK    4  A    between atoms: N_9  and  C_10
REMARK    5  A    between atoms: C_10  and  C_11
REMARK    6  A    between atoms: C_27  and  O_28
REMARK    7  A    between atoms: O_28  and  C_29
REMARK    8  A    between atoms: C_30  and  O_31
REMARK    9  A    between atoms: O_31  and  C_32
REMARK                            x       y       z     vdW  Elec       q    Type
REMARK                         _______ _______ _______ _____ _____    ______ ____
ROOT
ATOM      1  C   UNL     1       1.743   7.885  19.884  0.00  0.00    +0.000 A 
ATOM      2  N   UNL     1       1.610   8.846  18.968  0.00  0.00    +0.000 NA
ATOM      3  C   UNL     1       0.916   9.941  19.338  0.00  0.00    +0.000 A 
ATOM      4  N   UNL     1       1.056  10.968  18.425  0.00  0.00    +0.000 N 
ATOM      5  C   UNL     1       0.243  10.066  20.585  0.00  0.00    +0.000 A 
ATOM      6  C   UNL     1      -0.707  11.063  21.007  0.00  0.00    +0.000 A 
ATOM      7  C   UNL     1      -1.145  11.196  22.315  0.00  0.00    +0.000 A 
ATOM      8  C   UNL     1      -0.663  10.307  23.244  0.00  0.00    +0.000 A 
ATOM      9  C   UNL     1       0.165   9.250  22.828  0.00  0.00    +0.000 A 
ATOM     10  C   UNL     1       0.589   9.084  21.504  0.00  0.00    +0.000 A 
ATOM     11  N   UNL     1       1.315   8.007  21.161  0.00  0.00    +0.000 NA
ATOM     12  H   UNL     1       1.485  10.651  17.564  0.00  0.00    +0.000 HD
ENDROOT
BRANCH   1  15
ATOM     13  C   UNL     1       3.729   5.167  17.959  0.00  0.00    +0.000 A 
ATOM     14  C   UNL     1       3.096   6.403  18.276  0.00  0.00    +0.000 A 
ATOM     15  C   UNL     1       2.409   6.614  19.495  0.00  0.00    +0.000 A 
ATOM     16  C   UNL     1       2.344   5.517  20.359  0.00  0.00    +0.000 A 
ATOM     17  C   UNL     1       2.935   4.288  20.067  0.00  0.00    +0.000 A 
ATOM     18  C   UNL     1       3.638   4.086  18.863  0.00  0.00    +0.000 A 
BRANCH  13  20
ATOM     19  C   UNL     1       5.118   6.049  16.217  0.00  0.00    +0.000 C 
ATOM     20  O   UNL     1       4.386   4.956  16.769  0.00  0.00    +0.000 OA
ENDBRANCH  13  20
BRANCH  17  21
ATOM     21  O   UNL     1       2.668   3.350  21.035  0.00  0.00    +0.000 OA
ATOM     22  C   UNL     1       1.314   2.951  21.190  0.00  0.00    +0.000 C 
ENDBRANCH  17  21
BRANCH  18  23
ATOM     23  O   UNL     1       4.112   2.816  18.713  0.00  0.00    +0.000 OA
ATOM     24  C   UNL     1       3.403   1.774  18.073  0.00  0.00    +0.000 C 
ENDBRANCH  18  23
ENDBRANCH   1  15
BRANCH   4  25
ATOM     25  C   UNL     1       0.128  12.051  18.384  0.00  0.00    +0.000 C 
BRANCH  25  26
ATOM     26  C   UNL     1       0.802  13.367  18.562  0.00  0.00    +0.000 A 
ATOM     27  C   UNL     1       0.091  14.406  19.163  0.00  0.00    +0.000 A 
ATOM     28  C   UNL     1       0.723  15.620  19.397  0.00  0.00    +0.000 A 
ATOM     29  C   UNL     1       2.058  15.799  19.022  0.00  0.00    +0.000 A 
ATOM     30 CL   UNL     1       2.771  17.333  19.350  0.00  0.00    +0.000 Cl
ATOM     31  C   UNL     1       2.775  14.755  18.402  0.00  0.00    +0.000 A 
ATOM     32 CL   UNL     1       4.423  14.897  17.950  0.00  0.00    +0.000 Cl
ATOM     33  C   UNL     1       2.139  13.544  18.171  0.00  0.00    +0.000 A 
ENDBRANCH  25  26
ENDBRANCH   4  25
TORSDOF 6
ENDMDL
MODEL 2
REMARK VINA RESULT:      -8.6      0.642      1.317
REMARK  Name = 
REMARK  9 active torsions:
REMARK  status: ('A' for Active; 'I' for Inactive)
REMARK    1  A    between atoms: C_1  and  O_2
REMARK    2  A    between atoms: O_2  and  C_3
REMARK    3  A    between atoms: C_5  and  C_6
REMARK    4  A    between atoms: N_9  and  C_10
REMARK    5  A    between atoms: C_10  and  C_11
REMARK    6  A    between atoms: C_27  and  O_28
REMARK    7  A    between atoms: O_28  and  C_29
REMARK    8  A    between atoms: C_30  and  O_31
REMARK    9  A    between atoms: O_31  and  C_32
REMARK                            x       y       z     vdW  Elec       q    Type
REMARK                         _______ _______ _______ _____ _____    ______ ____
ROOT
ATOM      1  C   UNL     1       1.707   7.891  19.897  0.00  0.00    +0.000 A 
ATOM      2  N   UNL     1       1.515   8.825  18.963  0.00  0.00    +0.000 NA
ATOM      3  C   UNL     1       0.807   9.911  19.332  0.00  0.00    +0.000 A 
ATOM      4  N   UNL     1       0.886  10.918  18.391  0.00  0.00    +0.000 N 
ATOM      5  C   UNL     1       0.177  10.050  20.600  0.00  0.00    +0.000 A 
ATOM      6  C   UNL     1      -0.783  11.033  21.032  0.00  0.00    +0.000 A 
ATOM      7  C   UNL     1      -1.177  11.187  22.352  0.00  0.00    +0.000 A 
ATOM      8  C   UNL     1      -0.639  10.333  23.284  0.00  0.00    +0.000 A 
ATOM      9  C   UNL     1       0.201   9.288  22.863  0.00  0.00    +0.000 A 
ATOM     10  C   UNL     1       0.581   9.100  21.529  0.00  0.00    +0.000 A 
ATOM     11  N   UNL     1       1.322   8.033  21.184  0.00  0.00    +0.000 NA
ATOM     12  H   UNL     1       1.293  10.591  17.522  0.00  0.00    +0.000 HD
ENDROOT
BRANCH   1  15
ATOM     13  C   UNL     1       3.741   5.196  17.990  0.00  0.00    +0.000 A 
ATOM     14  C   UNL     1       3.092   6.425  18.301  0.00  0.00    +0.000 A 
ATOM     15  C   UNL     1       2.390   6.627  19.513  0.00  0.00    +0.000 A 
ATOM     16  C   UNL     1       2.331   5.530  20.376  0.00  0.00    +0.000 A 
ATOM     17  C   UNL     1       2.939   4.307  20.090  0.00  0.00    +0.000 A 
ATOM     18  C   UNL     1       3.655   4.115  18.893  0.00  0.00    +0.000 A 
BRANCH  13  20
ATOM     19  C   UNL     1       5.185   6.076  16.291  0.00  0.00    +0.000 C 
ATOM     20  O   UNL     1       4.412   4.993  16.805  0.00  0.00    +0.000 OA
ENDBRANCH  13  20
BRANCH  17  21
ATOM     21  O   UNL     1       2.673   3.367  21.056  0.00  0.00    +0.000 OA
ATOM     22  C   UNL     1       1.337   2.897  21.149  0.00  0.00    +0.000 C 
ENDBRANCH  17  21
BRANCH  18  23
ATOM     23  O   UNL     1       4.145   2.849  18.747  0.00  0.00    +0.000 OA
ATOM     24  C   UNL     1       3.468   1.808  18.073  0.00  0.00    +0.000 C 
ENDBRANCH  18  23
ENDBRANCH   1  15
BRANCH   4  25
ATOM     25  C   UNL     1      -0.070  11.976  18.357  0.00  0.00    +0.000 C 
BRANCH  25  26
ATOM     26  C   UNL     1       0.569  13.308  18.545  0.00  0.00    +0.000 A 
ATOM     27  C   UNL     1       1.960  13.399  18.474  0.00  0.00    +0.000 A 
ATOM     28  C   UNL     1       2.569  14.641  18.581  0.00  0.00    +0.000 A 
ATOM     29  C   UNL     1       1.793  15.789  18.770  0.00  0.00    +0.000 A 
ATOM     30 CL   UNL     1       2.625  17.293  18.890  0.00  0.00    +0.000 Cl
ATOM     31  C   UNL     1       0.389  15.699  18.857  0.00  0.00    +0.000 A 
ATOM     32 CL   UNL     1      -0.622  17.070  19.051  0.00  0.00    +0.000 Cl
ATOM     33  C   UNL     1      -0.215  14.454  18.748  0.00  0.00    +0.000 A 
ENDBRANCH  25  26
ENDBRANCH   4  25
TORSDOF 6
ENDMDL
MODEL 3
REMARK VINA RESULT:      -8.6      0.301      2.313
REMARK  Name = 
REMARK  9 active torsions:
REMARK  status: ('A' for Active; 'I' for Inactive)
REMARK    1  A    between atoms: C_1  and  O_2
REMARK    2  A    between atoms: O_2  and  C_3
REMARK    3  A    between atoms: C_5  and  C_6
REMARK    4  A    between atoms: N_9  and  C_10
REMARK    5  A    between atoms: C_10  and  C_11
REMARK    6  A    between atoms: C_27  and  O_28
REMARK    7  A    between atoms: O_28  and  C_29
REMARK    8  A    between atoms: C_30  and  O_31
REMARK    9  A    between atoms: O_31  and  C_32
REMARK                            x       y       z     vdW  Elec       q    Type
REMARK                         _______ _______ _______ _____ _____    ______ ____
ROOT
ATOM      1  C   UNL     1       1.625   7.850  20.053  0.00  0.00    +0.000 A 
ATOM      2  N   UNL     1       1.578   8.788  19.105  0.00  0.00    +0.000 NA
ATOM      3  C   UNL     1       0.927   9.927  19.414  0.00  0.00    +0.000 A 
ATOM      4  N   UNL     1       1.155  10.917  18.479  0.00  0.00    +0.000 N 
ATOM      5  C   UNL     1       0.212  10.124  20.628  0.00  0.00    +0.000 A 
ATOM      6  C   UNL     1      -0.702  11.179  20.981  0.00  0.00    +0.000 A 
ATOM      7  C   UNL     1      -1.185  11.374  22.266  0.00  0.00    +0.000 A 
ATOM      8  C   UNL     1      -0.788  10.490  23.239  0.00  0.00    +0.000 A 
ATOM      9  C   UNL     1       0.002   9.382  22.889  0.00  0.00    +0.000 A 
ATOM     10  C   UNL     1       0.470   9.154  21.588  0.00  0.00    +0.000 A 
ATOM     11  N   UNL     1       1.153   8.032  21.306  0.00  0.00    +0.000 NA
ATOM     12  H   UNL     1       1.602  10.553  17.646  0.00  0.00    +0.000 HD
ENDROOT
BRANCH   1  15
ATOM     13  C   UNL     1       2.766   4.146  20.184  0.00  0.00    +0.000 A 
ATOM     14  C   UNL     1       2.169   5.386  20.550  0.00  0.00    +0.000 A 
ATOM     15  C   UNL     1       2.240   6.536  19.728  0.00  0.00    +0.000 A 
ATOM     16  C   UNL     1       2.975   6.399  18.548  0.00  0.00    +0.000 A 
ATOM     17  C   UNL     1       3.588   5.204  18.171  0.00  0.00    +0.000 A 
ATOM     18  C   UNL     1       3.497   4.055  18.980  0.00  0.00    +0.000 A 
BRANCH  13  20
ATOM     19  C   UNL     1       1.474   2.755  21.646  0.00  0.00    +0.000 C 
ATOM     20  O   UNL     1       2.709   3.032  20.988  0.00  0.00    +0.000 OA
ENDBRANCH  13  20
BRANCH  17  21
ATOM     21  O   UNL     1       4.312   5.345  17.012  0.00  0.00    +0.000 OA
ATOM     22  C   UNL     1       4.803   6.642  16.711  0.00  0.00    +0.000 C 
ENDBRANCH  17  21
BRANCH  18  23
ATOM     23  O   UNL     1       4.193   2.987  18.492  0.00  0.00    +0.000 OA
ATOM     24  C   UNL     1       3.596   1.792  18.031  0.00  0.00    +0.000 C 
ENDBRANCH  18  23
ENDBRANCH   1  15
BRANCH   4  25
ATOM     25  C   UNL     1       0.286  12.043  18.368  0.00  0.00    +0.000 C 
BRANCH  25  26
ATOM     26  C   UNL     1       1.014  13.327  18.564  0.00  0.00    +0.000 A 
ATOM     27  C   UNL     1       0.359  14.375  19.213  0.00  0.00    +0.000 A 
ATOM     28  C   UNL     1       1.042  15.557  19.463  0.00  0.00    +0.000 A 
ATOM     29  C   UNL     1       2.372  15.697  19.056  0.00  0.00    +0.000 A 
ATOM     30 CL   UNL     1       3.152  17.194  19.406  0.00  0.00    +0.000 Cl
ATOM     31  C   UNL     1       3.033  14.647  18.387  0.00  0.00    +0.000 A 
ATOM     32 CL   UNL     1       4.672  14.740  17.894  0.00  0.00    +0.000 Cl
ATOM     33  C   UNL     1       2.345  13.466  18.140  0.00  0.00    +0.000 A 
ENDBRANCH  25  26
ENDBRANCH   4  25
TORSDOF 6
ENDMDL
MODEL 4
REMARK VINA RESULT:      -8.5      1.527      2.978
REMARK  Name = 
REMARK  9 active torsions:
REMARK  status: ('A' for Active; 'I' for Inactive)
REMARK    1  A    between atoms: C_1  and  O_2
REMARK    2  A    between atoms: O_2  and  C_3
REMARK    3  A    between atoms: C_5  and  C_6
REMARK    4  A    between atoms: N_9  and  C_10
REMARK    5  A    between atoms: C_10  and  C_11
REMARK    6  A    between atoms: C_27  and  O_28
REMARK    7  A    between atoms: O_28  and  C_29
REMARK    8  A    between atoms: C_30  and  O_31
REMARK    9  A    between atoms: O_31  and  C_32
REMARK                            x       y       z     vdW  Elec       q    Type
REMARK                         _______ _______ _______ _____ _____    ______ ____
ROOT
ATOM      1  C   UNL     1       2.228   7.930  18.825  0.00  0.00    +0.000 A 
ATOM      2  N   UNL     1       1.824   8.987  18.118  0.00  0.00    +0.000 NA
ATOM      3  C   UNL     1       1.068   9.895  18.767  0.00  0.00    +0.000 A 
ATOM      4  N   UNL     1       0.923  11.058  18.035  0.00  0.00    +0.000 N 
ATOM      5  C   UNL     1       0.601   9.727  20.099  0.00  0.00    +0.000 A 
ATOM      6  C   UNL     1      -0.384  10.492  20.819  0.00  0.00    +0.000 A 
ATOM      7  C   UNL     1      -0.612  10.357  22.179  0.00  0.00    +0.000 A 
ATOM      8  C   UNL     1       0.125   9.421  22.862  0.00  0.00    +0.000 A 
ATOM      9  C   UNL     1       1.000   8.578  22.156  0.00  0.00    +0.000 A 
ATOM     10  C   UNL     1       1.216   8.681  20.776  0.00  0.00    +0.000 A 
ATOM     11  N   UNL     1       2.005   7.791  20.151  0.00  0.00    +0.000 NA
ATOM     12  H   UNL     1       1.241  10.944  17.080  0.00  0.00    +0.000 HD
ENDROOT
BRANCH   1  15
ATOM     13  C   UNL     1       3.309   4.503  17.369  0.00  0.00    +0.000 A 
ATOM     14  C   UNL     1       2.560   5.498  18.060  0.00  0.00    +0.000 A 
ATOM     15  C   UNL     1       2.975   6.849  18.130  0.00  0.00    +0.000 A 
ATOM     16  C   UNL     1       4.194   7.147  17.516  0.00  0.00    +0.000 A 
ATOM     17  C   UNL     1       4.960   6.191  16.849  0.00  0.00    +0.000 A 
ATOM     18  C   UNL     1       4.535   4.851  16.762  0.00  0.00    +0.000 A 
BRANCH  13  20
ATOM     19  C   UNL     1       3.302   2.334  18.388  0.00  0.00    +0.000 C 
ATOM     20  O   UNL     1       2.914   3.186  17.312  0.00  0.00    +0.000 OA
ENDBRANCH  13  20
BRANCH  17  21
ATOM     21  O   UNL     1       6.149   6.712  16.399  0.00  0.00    +0.000 OA
ATOM     22  C   UNL     1       7.157   6.954  17.369  0.00  0.00    +0.000 C 
ENDBRANCH  17  21
BRANCH  18  23
ATOM     23  O   UNL     1       5.422   4.037  16.120  0.00  0.00    +0.000 OA
ATOM     24  C   UNL     1       5.647   4.050  14.724  0.00  0.00    +0.000 C 
ENDBRANCH  18  23
ENDBRANCH   1  15
BRANCH   4  25
ATOM     25  C   UNL     1      -0.128  11.981  18.315  0.00  0.00    +0.000 C 
BRANCH  25  26
ATOM     26  C   UNL     1       0.388  13.362  18.528  0.00  0.00    +0.000 A 
ATOM     27  C   UNL     1       1.765  13.577  18.470  0.00  0.00    +0.000 A 
ATOM     28  C   UNL     1       2.260  14.867  18.601  0.00  0.00    +0.000 A 
ATOM     29  C   UNL     1       1.383  15.938  18.801  0.00  0.00    +0.000 A 
ATOM     30 CL   UNL     1       2.076  17.509  18.951  0.00  0.00    +0.000 Cl
ATOM     31  C   UNL     1      -0.008  15.721  18.875  0.00  0.00    +0.000 A 
ATOM     32 CL   UNL     1      -1.139  16.993  19.082  0.00  0.00    +0.000 Cl
ATOM     33  C   UNL     1      -0.498  14.430  18.742  0.00  0.00    +0.000 A 
ENDBRANCH  25  26
ENDBRANCH   4  25
TORSDOF 6
ENDMDL
MODEL 5
REMARK VINA RESULT:      -8.5      0.599      2.620
REMARK  Name = 
REMARK  9 active torsions:
REMARK  status: ('A' for Active; 'I' for Inactive)
REMARK    1  A    between atoms: C_1  and  O_2
REMARK    2  A    between atoms: O_2  and  C_3
REMARK    3  A    between atoms: C_5  and  C_6
REMARK    4  A    between atoms: N_9  and  C_10
REMARK    5  A    between atoms: C_10  and  C_11
REMARK    6  A    between atoms: C_27  and  O_28
REMARK    7  A    between atoms: O_28  and  C_29
REMARK    8  A    between atoms: C_30  and  O_31
REMARK    9  A    between atoms: O_31  and  C_32
REMARK                            x       y       z     vdW  Elec       q    Type
REMARK                         _______ _______ _______ _____ _____    ______ ____
ROOT
ATOM      1  C   UNL     1       1.614   7.873  20.057  0.00  0.00    +0.000 A 
ATOM      2  N   UNL     1       1.562   8.801  19.100  0.00  0.00    +0.000 NA
ATOM      3  C   UNL     1       0.909   9.941  19.399  0.00  0.00    +0.000 A 
ATOM      4  N   UNL     1       1.133  10.923  18.454  0.00  0.00    +0.000 N 
ATOM      5  C   UNL     1       0.197  10.149  20.613  0.00  0.00    +0.000 A 
ATOM      6  C   UNL     1      -0.718  11.206  20.958  0.00  0.00    +0.000 A 
ATOM      7  C   UNL     1      -1.198  11.412  22.242  0.00  0.00    +0.000 A 
ATOM      8  C   UNL     1      -0.796  10.539  23.223  0.00  0.00    +0.000 A 
ATOM      9  C   UNL     1      -0.005   9.429  22.882  0.00  0.00    +0.000 A 
ATOM     10  C   UNL     1       0.460   9.189  21.582  0.00  0.00    +0.000 A 
ATOM     11  N   UNL     1       1.145   8.067  21.310  0.00  0.00    +0.000 NA
ATOM     12  H   UNL     1       1.578  10.551  17.623  0.00  0.00    +0.000 HD
ENDROOT
BRANCH   1  15
ATOM     13  C   UNL     1       2.789   4.181  20.235  0.00  0.00    +0.000 A 
ATOM     14  C   UNL     1       2.191   5.424  20.591  0.00  0.00    +0.000 A 
ATOM     15  C   UNL     1       2.231   6.557  19.744  0.00  0.00    +0.000 A 
ATOM     16  C   UNL     1       2.935   6.401  18.547  0.00  0.00    +0.000 A 
ATOM     17  C   UNL     1       3.548   5.203  18.180  0.00  0.00    +0.000 A 
ATOM     18  C   UNL     1       3.489   4.070  19.014  0.00  0.00    +0.000 A 
BRANCH  13  20
ATOM     19  C   UNL     1       1.491   2.651  21.546  0.00  0.00    +0.000 C 
ATOM     20  O   UNL     1       2.762   3.084  21.064  0.00  0.00    +0.000 OA
ENDBRANCH  13  20
BRANCH  17  21
ATOM     21  O   UNL     1       4.240   5.324  16.999  0.00  0.00    +0.000 OA
ATOM     22  C   UNL     1       4.822   6.588  16.719  0.00  0.00    +0.000 C 
ENDBRANCH  17  21
BRANCH  18  23
ATOM     23  O   UNL     1       4.180   2.998  18.531  0.00  0.00    +0.000 OA
ATOM     24  C   UNL     1       3.576   1.839  17.992  0.00  0.00    +0.000 C 
ENDBRANCH  18  23
ENDBRANCH   1  15
BRANCH   4  25
ATOM     25  C   UNL     1       0.261  12.046  18.333  0.00  0.00    +0.000 C 
BRANCH  25  26
ATOM     26  C   UNL     1       0.971  13.330  18.588  0.00  0.00    +0.000 A 
ATOM     27  C   UNL     1       2.367  13.333  18.588  0.00  0.00    +0.000 A 
ATOM     28  C   UNL     1       3.047  14.531  18.759  0.00  0.00    +0.000 A 
ATOM     29  C   UNL     1       2.335  15.721  18.940  0.00  0.00    +0.000 A 
ATOM     30 CL   UNL     1       3.252  17.166  19.141  0.00  0.00    +0.000 Cl
ATOM     31  C   UNL     1       0.926  15.719  18.955  0.00  0.00    +0.000 A 
ATOM     32 CL   UNL     1      -0.007  17.147  19.136  0.00  0.00    +0.000 Cl
ATOM     33  C   UNL     1       0.251  14.518  18.783  0.00  0.00    +0.000 A 
ENDBRANCH  25  26
ENDBRANCH   4  25
TORSDOF 6
ENDMDL
MODEL 6
REMARK VINA RESULT:      -8.4      1.383      2.638
REMARK  Name = 
REMARK  9 active torsions:
REMARK  status: ('A' for Active; 'I' for Inactive)
REMARK    1  A    between atoms: C_1  and  O_2
REMARK    2  A    between atoms: O_2  and  C_3
REMARK    3  A    between atoms: C_5  and  C_6
REMARK    4  A    between atoms: N_9  and  C_10
REMARK    5  A    between atoms: C_10  and  C_11
REMARK    6  A    between atoms: C_27  and  O_28
REMARK    7  A    between atoms: O_28  and  C_29
REMARK    8  A    between atoms: C_30  and  O_31
REMARK    9  A    between atoms: O_31  and  C_32
REMARK                            x       y       z     vdW  Elec       q    Type
REMARK                         _______ _______ _______ _____ _____    ______ ____
ROOT
ATOM      1  C   UNL     1       2.233   7.950  18.841  0.00  0.00    +0.000 A 
ATOM      2  N   UNL     1       1.857   9.025  18.144  0.00  0.00    +0.000 NA
ATOM      3  C   UNL     1       1.107   9.935  18.796  0.00  0.00    +0.000 A 
ATOM      4  N   UNL     1       0.993  11.111  18.081  0.00  0.00    +0.000 N 
ATOM      5  C   UNL     1       0.618   9.755  20.120  0.00  0.00    +0.000 A 
ATOM      6  C   UNL     1      -0.364  10.526  20.837  0.00  0.00    +0.000 A 
ATOM      7  C   UNL     1      -0.614  10.375  22.191  0.00  0.00    +0.000 A 
ATOM      8  C   UNL     1       0.097   9.416  22.870  0.00  0.00    +0.000 A 
ATOM      9  C   UNL     1       0.968   8.569  22.163  0.00  0.00    +0.000 A 
ATOM     10  C   UNL     1       1.205   8.688  20.788  0.00  0.00    +0.000 A 
ATOM     11  N   UNL     1       1.988   7.795  20.161  0.00  0.00    +0.000 NA
ATOM     12  H   UNL     1       1.322  11.006  17.128  0.00  0.00    +0.000 HD
ENDROOT
BRANCH   1  15
ATOM     13  C   UNL     1       3.287   4.522  17.367  0.00  0.00    +0.000 A 
ATOM     14  C   UNL     1       2.546   5.519  18.064  0.00  0.00    +0.000 A 
ATOM     15  C   UNL     1       2.971   6.867  18.140  0.00  0.00    +0.000 A 
ATOM     16  C   UNL     1       4.192   7.158  17.527  0.00  0.00    +0.000 A 
ATOM     17  C   UNL     1       4.951   6.200  16.855  0.00  0.00    +0.000 A 
ATOM     18  C   UNL     1       4.515   4.864  16.761  0.00  0.00    +0.000 A 
BRANCH  13  20
ATOM     19  C   UNL     1       3.352   2.323  18.318  0.00  0.00    +0.000 C 
ATOM     20  O   UNL     1       2.882   3.209  17.304  0.00  0.00    +0.000 OA
ENDBRANCH  13  20
BRANCH  17  21
ATOM     21  O   UNL     1       6.143   6.714  16.406  0.00  0.00    +0.000 OA
ATOM     22  C   UNL     1       7.185   6.855  17.360  0.00  0.00    +0.000 C 
ENDBRANCH  17  21
BRANCH  18  23
ATOM     23  O   UNL     1       5.396   4.046  16.114  0.00  0.00    +0.000 OA
ATOM     24  C   UNL     1       5.625   4.069  14.720  0.00  0.00    +0.000 C 
ENDBRANCH  18  23
ENDBRANCH   1  15
BRANCH   4  25
ATOM     25  C   UNL     1      -0.046  12.048  18.359  0.00  0.00    +0.000 C 
BRANCH  25  26
ATOM     26  C   UNL     1       0.483  13.430  18.527  0.00  0.00    +0.000 A 
ATOM     27  C   UNL     1      -0.392  14.435  18.944  0.00  0.00    +0.000 A 
ATOM     28  C   UNL     1       0.096  15.714  19.169  0.00  0.00    +0.000 A 
ATOM     29  C   UNL     1       1.451  15.994  18.967  0.00  0.00    +0.000 A 
ATOM     30 CL   UNL     1       1.979  17.606  19.271  0.00  0.00    +0.000 Cl
ATOM     31  C   UNL     1       2.334  14.985  18.532  0.00  0.00    +0.000 A 
ATOM     32 CL   UNL     1       4.013  15.252  18.300  0.00  0.00    +0.000 Cl
ATOM     33  C   UNL     1       1.842  13.707  18.309  0.00  0.00    +0.000 A 
ENDBRANCH  25  26
ENDBRANCH   4  25
TORSDOF 6
ENDMDL
MODEL 7
REMARK VINA RESULT:      -8.2      4.476      8.923
REMARK  Name = 
REMARK  9 active torsions:
REMARK  status: ('A' for Active; 'I' for Inactive)
REMARK    1  A    between atoms: C_1  and  O_2
REMARK    2  A    between atoms: O_2  and  C_3
REMARK    3  A    between atoms: C_5  and  C_6
REMARK    4  A    between atoms: N_9  and  C_10
REMARK    5  A    between atoms: C_10  and  C_11
REMARK    6  A    between atoms: C_27  and  O_28
REMARK    7  A    between atoms: O_28  and  C_29
REMARK    8  A    between atoms: C_30  and  O_31
REMARK    9  A    between atoms: O_31  and  C_32
REMARK                            x       y       z     vdW  Elec       q    Type
REMARK                         _______ _______ _______ _____ _____    ______ ____
ROOT
ATOM      1  C   UNL     1       1.989   6.911  20.052  0.00  0.00    +0.000 A 
ATOM      2  N   UNL     1       2.695   6.692  18.941  0.00  0.00    +0.000 NA
ATOM      3  C   UNL     1       3.179   5.446  18.770  0.00  0.00    +0.000 A 
ATOM      4  N   UNL     1       3.662   5.256  17.490  0.00  0.00    +0.000 N 
ATOM      5  C   UNL     1       3.071   4.415  19.743  0.00  0.00    +0.000 A 
ATOM      6  C   UNL     1       3.730   3.135  19.787  0.00  0.00    +0.000 A 
ATOM      7  C   UNL     1       3.394   2.132  20.682  0.00  0.00    +0.000 A 
ATOM      8  C   UNL     1       2.399   2.394  21.592  0.00  0.00    +0.000 A 
ATOM      9  C   UNL     1       1.832   3.679  21.648  0.00  0.00    +0.000 A 
ATOM     10  C   UNL     1       2.185   4.712  20.771  0.00  0.00    +0.000 A 
ATOM     11  N   UNL     1       1.662   5.939  20.932  0.00  0.00    +0.000 NA
ATOM     12  H   UNL     1       3.744   6.130  16.984  0.00  0.00    +0.000 HD
ENDROOT
BRANCH   1  15
ATOM     13  C   UNL     1       0.611  10.076  21.819  0.00  0.00    +0.000 A 
ATOM     14  C   UNL     1       1.034   8.735  21.593  0.00  0.00    +0.000 A 
ATOM     15  C   UNL     1       1.523   8.293  20.341  0.00  0.00    +0.000 A 
ATOM     16  C   UNL     1       1.525   9.243  19.316  0.00  0.00    +0.000 A 
ATOM     17  C   UNL     1       1.098  10.558  19.501  0.00  0.00    +0.000 A 
ATOM     18  C   UNL     1       0.633  11.002  20.753  0.00  0.00    +0.000 A 
BRANCH  13  20
ATOM     19  C   UNL     1      -1.279  10.755  23.128  0.00  0.00    +0.000 C 
ATOM     20  O   UNL     1       0.122  10.503  23.032  0.00  0.00    +0.000 OA
ENDBRANCH  13  20
BRANCH  17  21
ATOM     21  O   UNL     1       1.125  11.273  18.328  0.00  0.00    +0.000 OA
ATOM     22  C   UNL     1       2.334  11.945  18.009  0.00  0.00    +0.000 C 
ENDBRANCH  17  21
BRANCH  18  23
ATOM     23  O   UNL     1       0.208  12.299  20.751  0.00  0.00    +0.000 OA
ATOM     24  C   UNL     1       0.992  13.393  21.183  0.00  0.00    +0.000 C 
ENDBRANCH  18  23
ENDBRANCH   1  15
BRANCH   4  25
ATOM     25  C   UNL     1       4.564   4.192  17.190  0.00  0.00    +0.000 C 
BRANCH  25  26
ATOM     26  C   UNL     1       5.441   4.517  16.031  0.00  0.00    +0.000 A 
ATOM     27  C   UNL     1       6.461   5.453  16.205  0.00  0.00    +0.000 A 
ATOM     28  C   UNL     1       7.328   5.721  15.156  0.00  0.00    +0.000 A 
ATOM     29  C   UNL     1       7.171   5.064  13.932  0.00  0.00    +0.000 A 
ATOM     30 CL   UNL     1       8.291   5.449  12.680  0.00  0.00    +0.000 Cl
ATOM     31  C   UNL     1       6.133   4.129  13.747  0.00  0.00    +0.000 A 
ATOM     32 CL   UNL     1       5.907   3.263  12.284  0.00  0.00    +0.000 Cl
ATOM     33  C   UNL     1       5.269   3.864  14.800  0.00  0.00    +0.000 A 
ENDBRANCH  25  26
ENDBRANCH   4  25
TORSDOF 6
ENDMDL
MODEL 8
REMARK VINA RESULT:      -8.2      1.251      1.277
REMARK  Name = 
REMARK  9 active torsions:
REMARK  status: ('A' for Active; 'I' for Inactive)
REMARK    1  A    between atoms: C_1  and  O_2
REMARK    2  A    between atoms: O_2  and  C_3
REMARK    3  A    between atoms: C_5  and  C_6
REMARK    4  A    between atoms: N_9  and  C_10
REMARK    5  A    between atoms: C_10  and  C_11
REMARK    6  A    between atoms: C_27  and  O_28
REMARK    7  A    between atoms: O_28  and  C_29
REMARK    8  A    between atoms: C_30  and  O_31
REMARK    9  A    between atoms: O_31  and  C_32
REMARK                            x       y       z     vdW  Elec       q    Type
REMARK                         _______ _______ _______ _____ _____    ______ ____
ROOT
ATOM      1  C   UNL     1       2.005   7.545  19.688  0.00  0.00    +0.000 A 
ATOM      2  N   UNL     1       1.922   8.528  18.789  0.00  0.00    +0.000 NA
ATOM      3  C   UNL     1       1.267   9.642  19.171  0.00  0.00    +0.000 A 
ATOM      4  N   UNL     1       1.459  10.680  18.281  0.00  0.00    +0.000 N 
ATOM      5  C   UNL     1       0.582   9.770  20.411  0.00  0.00    +0.000 A 
ATOM      6  C   UNL     1      -0.333  10.795  20.841  0.00  0.00    +0.000 A 
ATOM      7  C   UNL     1      -0.784  10.920  22.145  0.00  0.00    +0.000 A 
ATOM      8  C   UNL     1      -0.351   9.995  23.063  0.00  0.00    +0.000 A 
ATOM      9  C   UNL     1       0.441   8.915  22.637  0.00  0.00    +0.000 A 
ATOM     10  C   UNL     1       0.877   8.757  21.316  0.00  0.00    +0.000 A 
ATOM     11  N   UNL     1       1.564   7.659  20.960  0.00  0.00    +0.000 NA
ATOM     12  H   UNL     1       1.888  10.363  17.419  0.00  0.00    +0.000 HD
ENDROOT
BRANCH   1  15
ATOM     13  C   UNL     1       4.551   4.712  18.957  0.00  0.00    +0.000 A 
ATOM     14  C   UNL     1       4.010   5.971  19.347  0.00  0.00    +0.000 A 
ATOM     15  C   UNL     1       2.626   6.256  19.282  0.00  0.00    +0.000 A 
ATOM     16  C   UNL     1       1.815   5.241  18.766  0.00  0.00    +0.000 A 
ATOM     17  C   UNL     1       2.318   4.006  18.357  0.00  0.00    +0.000 A 
ATOM     18  C   UNL     1       3.693   3.716  18.443  0.00  0.00    +0.000 A 
BRANCH  13  20
ATOM     19  C   UNL     1       6.682   4.773  17.863  0.00  0.00    +0.000 C 
ATOM     20  O   UNL     1       5.898   4.439  19.007  0.00  0.00    +0.000 OA
ENDBRANCH  13  20
BRANCH  17  21
ATOM     21  O   UNL     1       1.337   3.209  17.818  0.00  0.00    +0.000 OA
ATOM     22  C   UNL     1       0.545   2.457  18.725  0.00  0.00    +0.000 C 
ENDBRANCH  17  21
BRANCH  18  23
ATOM     23  O   UNL     1       4.023   2.484  17.957  0.00  0.00    +0.000 OA
ATOM     24  C   UNL     1       3.984   1.293  18.716  0.00  0.00    +0.000 C 
ENDBRANCH  18  23
ENDBRANCH   1  15
BRANCH   4  25
ATOM     25  C   UNL     1       0.575  11.799  18.248  0.00  0.00    +0.000 C 
BRANCH  25  26
ATOM     26  C   UNL     1       1.296  13.082  18.477  0.00  0.00    +0.000 A 
ATOM     27  C   UNL     1       0.616  14.128  19.103  0.00  0.00    +0.000 A 
ATOM     28  C   UNL     1       1.289  15.309  19.383  0.00  0.00    +0.000 A 
ATOM     29  C   UNL     1       2.635  15.450  19.030  0.00  0.00    +0.000 A 
ATOM     30 CL   UNL     1       3.401  16.945  19.416  0.00  0.00    +0.000 Cl
ATOM     31  C   UNL     1       3.320  14.400  18.385  0.00  0.00    +0.000 A 
ATOM     32 CL   UNL     1       4.979  14.494  17.958  0.00  0.00    +0.000 Cl
ATOM     33  C   UNL     1       2.643  13.221  18.108  0.00  0.00    +0.000 A 
ENDBRANCH  25  26
ENDBRANCH   4  25
TORSDOF 6
ENDMDL
MODEL 9
REMARK VINA RESULT:      -8.2      4.662      8.787
REMARK  Name = 
REMARK  9 active torsions:
REMARK  status: ('A' for Active; 'I' for Inactive)
REMARK    1  A    between atoms: C_1  and  O_2
REMARK    2  A    between atoms: O_2  and  C_3
REMARK    3  A    between atoms: C_5  and  C_6
REMARK    4  A    between atoms: N_9  and  C_10
REMARK    5  A    between atoms: C_10  and  C_11
REMARK    6  A    between atoms: C_27  and  O_28
REMARK    7  A    between atoms: O_28  and  C_29
REMARK    8  A    between atoms: C_30  and  O_31
REMARK    9  A    between atoms: O_31  and  C_32
REMARK                            x       y       z     vdW  Elec       q    Type
REMARK                         _______ _______ _______ _____ _____    ______ ____
ROOT
ATOM      1  C   UNL     1       2.101   7.226  19.733  0.00  0.00    +0.000 A 
ATOM      2  N   UNL     1       2.919   7.003  18.702  0.00  0.00    +0.000 NA
ATOM      3  C   UNL     1       3.423   5.759  18.589  0.00  0.00    +0.000 A 
ATOM      4  N   UNL     1       4.037   5.564  17.367  0.00  0.00    +0.000 N 
ATOM      5  C   UNL     1       3.219   4.733  19.553  0.00  0.00    +0.000 A 
ATOM      6  C   UNL     1       3.875   3.456  19.672  0.00  0.00    +0.000 A 
ATOM      7  C   UNL     1       3.452   2.457  20.533  0.00  0.00    +0.000 A 
ATOM      8  C   UNL     1       2.367   2.719  21.333  0.00  0.00    +0.000 A 
ATOM      9  C   UNL     1       1.791   4.001  21.323  0.00  0.00    +0.000 A 
ATOM     10  C   UNL     1       2.229   5.031  20.481  0.00  0.00    +0.000 A 
ATOM     11  N   UNL     1       1.688   6.256  20.580  0.00  0.00    +0.000 NA
ATOM     12  H   UNL     1       4.167   6.436  16.868  0.00  0.00    +0.000 HD
ENDROOT
BRANCH   1  15
ATOM     13  C   UNL     1       1.059  10.930  19.254  0.00  0.00    +0.000 A 
ATOM     14  C   UNL     1       1.561   9.625  18.982  0.00  0.00    +0.000 A 
ATOM     15  C   UNL     1       1.601   8.607  19.964  0.00  0.00    +0.000 A 
ATOM     16  C   UNL     1       1.157   8.968  21.239  0.00  0.00    +0.000 A 
ATOM     17  C   UNL     1       0.679  10.243  21.541  0.00  0.00    +0.000 A 
ATOM     18  C   UNL     1       0.620  11.250  20.558  0.00  0.00    +0.000 A 
BRANCH  13  20
ATOM     19  C   UNL     1       2.229  12.676  18.103  0.00  0.00    +0.000 C 
ATOM     20  O   UNL     1       1.033  11.925  18.305  0.00  0.00    +0.000 OA
ENDBRANCH  13  20
BRANCH  17  21
ATOM     21  O   UNL     1       0.377  10.372  22.875  0.00  0.00    +0.000 OA
ATOM     22  C   UNL     1      -0.981  10.199  23.249  0.00  0.00    +0.000 C 
ENDBRANCH  17  21
BRANCH  18  23
ATOM     23  O   UNL     1       0.175  12.450  21.029  0.00  0.00    +0.000 OA
ATOM     24  C   UNL     1       1.019  13.520  21.403  0.00  0.00    +0.000 C 
ENDBRANCH  18  23
ENDBRANCH   1  15
BRANCH   4  25
ATOM     25  C   UNL     1       4.969   4.503  17.169  0.00  0.00    +0.000 C 
BRANCH  25  26
ATOM     26  C   UNL     1       5.573   4.540  15.808  0.00  0.00    +0.000 A 
ATOM     27  C   UNL     1       6.867   5.042  15.664  0.00  0.00    +0.000 A 
ATOM     28  C   UNL     1       7.470   5.026  14.415  0.00  0.00    +0.000 A 
ATOM     29  C   UNL     1       6.779   4.520  13.309  0.00  0.00    +0.000 A 
ATOM     30 CL   UNL     1       7.599   4.531  11.793  0.00  0.00    +0.000 Cl
ATOM     31  C   UNL     1       5.467   4.026  13.448  0.00  0.00    +0.000 A 
ATOM     32 CL   UNL     1       4.578   3.359  12.142  0.00  0.00    +0.000 Cl
ATOM     33  C   UNL     1       4.868   4.044  14.700  0.00  0.00    +0.000 A 
ENDBRANCH  25  26
ENDBRANCH   4  25
TORSDOF 6
ENDMDL
