MODEL 1
REMARK VINA RESULT:      -9.0      0.000      0.000
REMARK  Name = 
REMARK  9 active torsions:
REMARK  status: ('A' for Active; 'I' for Inactive)
REMARK    1  A    between atoms: C_1  and  C_2
REMARK    2  A    between atoms: C_2  and  N_3
REMARK    3  A    between atoms: C_2  and  C_28
REMARK    4  A    between atoms: N_3  and  C_4
REMARK    5  A    between atoms: C_5  and  N_6
REMARK    6  A    between atoms: N_12  and  C_13
REMARK    7  A    between atoms: C_28  and  C_29
REMARK    8  A    between atoms: C_28  and  C_30
REMARK    9  A    between atoms: C_28  and  C_31
REMARK                            x       y       z     vdW  Elec       q    Type
REMARK                         _______ _______ _______ _____ _____    ______ ____
ROOT
ATOM      1  N   UNL     1       3.486   8.053  17.462  0.00  0.00    +0.000 N 
ATOM      2  C   UNL     1       2.425   8.516  18.256  0.00  0.00    +0.000 A 
ATOM      3  C   UNL     1       2.183   8.042  19.527  0.00  0.00    +0.000 A 
ATOM      4  C   UNL     1       1.109   8.575  20.185  0.00  0.00    +0.000 A 
ATOM      5  N   UNL     1       0.321   9.511  19.649  0.00  0.00    +0.000 NA
ATOM      6  C   UNL     1       0.619   9.928  18.409  0.00  0.00    +0.000 A 
ATOM      7  N   UNL     1      -0.212  10.873  17.793  0.00  0.00    +0.000 N 
ATOM      8  N   UNL     1       1.665   9.477  17.700  0.00  0.00    +0.000 NA
ATOM      9  H   UNL     1       3.535   8.654  16.639  0.00  0.00    +0.000 HD
ATOM     10  H   UNL     1       0.082  10.933  16.825  0.00  0.00    +0.000 HD
ENDROOT
BRANCH   7  11
ATOM     11  C   UNL     1      -1.617  10.899  17.926  0.00  0.00    +0.000 A 
ATOM     12  C   UNL     1      -2.385   9.931  17.268  0.00  0.00    +0.000 A 
ATOM     13  C   UNL     1      -3.777   9.911  17.404  0.00  0.00    +0.000 A 
ATOM     14  C   UNL     1      -4.409  10.844  18.223  0.00  0.00    +0.000 A 
ATOM     15  C   UNL     1      -3.649  11.779  18.926  0.00  0.00    +0.000 A 
ATOM     16  C   UNL     1      -2.266  11.807  18.776  0.00  0.00    +0.000 A 
ATOM     17  O   UNL     1      -4.188  12.708  19.779  0.00  0.00    +0.000 OA
ATOM     18  C   UNL     1      -5.531  12.370  20.130  0.00  0.00    +0.000 C 
ATOM     19  C   UNL     1      -6.322  11.961  18.899  0.00  0.00    +0.000 C 
ATOM     20  O   UNL     1      -5.776  10.776  18.308  0.00  0.00    +0.000 OA
ENDBRANCH   7  11
BRANCH   1  22
ATOM     21  C   UNL     1       3.747   5.586  17.732  0.00  0.00    +0.000 C 
ATOM     22  C   UNL     1       4.085   6.883  17.431  0.00  0.00    +0.000 C 
ATOM     23  C   UNL     1       5.481   6.492  17.104  0.00  0.00    +0.000 C 
ATOM     24  O   UNL     1       6.514   6.974  16.704  0.00  0.00    +0.000 OA
ATOM     25  C   UNL     1       5.143   5.122  17.539  0.00  0.00    +0.000 C 
ATOM     26  O   UNL     1       5.776   4.095  17.611  0.00  0.00    +0.000 OA
BRANCH  21  27
ATOM     27  N   UNL     1       2.704   4.881  18.137  0.00  0.00    +0.000 N 
ATOM     28  H   UNL     1       1.947   5.408  18.571  0.00  0.00    +0.000 HD
BRANCH  27  30
ATOM     29  C   UNL     1       2.666   2.475  17.736  0.00  0.00    +0.000 C 
ATOM     30  C   UNL     1       2.854   3.562  18.801  0.00  0.00    +0.000 C 
BRANCH  30  31
ATOM     31  C   UNL     1       1.857   3.436  20.018  0.00  0.00    +0.000 C 
ATOM     32  C   UNL     1       0.628   2.583  19.626  0.00  0.00    +0.000 C 
ATOM     33  C   UNL     1       2.540   2.720  21.206  0.00  0.00    +0.000 C 
ATOM     34  C   UNL     1       1.347   4.807  20.506  0.00  0.00    +0.000 C 
ENDBRANCH  30  31
ENDBRANCH  27  30
ENDBRANCH  21  27
ENDBRANCH   1  22
TORSDOF 5
ENDMDL
MODEL 2
REMARK VINA RESULT:      -8.8      1.947      3.642
REMARK  Name = 
REMARK  9 active torsions:
REMARK  status: ('A' for Active; 'I' for Inactive)
REMARK    1  A    between atoms: C_1  and  C_2
REMARK    2  A    between atoms: C_2  and  N_3
REMARK    3  A    between atoms: C_2  and  C_28
REMARK    4  A    between atoms: N_3  and  C_4
REMARK    5  A    between atoms: C_5  and  N_6
REMARK    6  A    between atoms: N_12  and  C_13
REMARK    7  A    between atoms: C_28  and  C_29
REMARK    8  A    between atoms: C_28  and  C_30
REMARK    9  A    between atoms: C_28  and  C_31
REMARK                            x       y       z     vdW  Elec       q    Type
REMARK                         _______ _______ _______ _____ _____    ______ ____
ROOT
ATOM      1  N   UNL     1       2.899   6.001  17.841  0.00  0.00    +0.000 N 
ATOM      2  C   UNL     1       2.308   6.986  18.649  0.00  0.00    +0.000 A 
ATOM      3  C   UNL     1       2.245   6.884  20.022  0.00  0.00    +0.000 A 
ATOM      4  C   UNL     1       1.633   7.913  20.684  0.00  0.00    +0.000 A 
ATOM      5  N   UNL     1       1.116   8.973  20.059  0.00  0.00    +0.000 NA
ATOM      6  C   UNL     1       1.216   9.007  18.722  0.00  0.00    +0.000 A 
ATOM      7  N   UNL     1       0.644  10.079  18.024  0.00  0.00    +0.000 N 
ATOM      8  N   UNL     1       1.820   8.055  17.993  0.00  0.00    +0.000 NA
ATOM      9  H   UNL     1       2.945   6.374  16.893  0.00  0.00    +0.000 HD
ATOM     10  H   UNL     1       0.684   9.841  17.040  0.00  0.00    +0.000 HD
ENDROOT
BRANCH   7  11
ATOM     11  C   UNL     1      -0.579  10.690  18.376  0.00  0.00    +0.000 A 
ATOM     12  C   UNL     1      -0.569  11.790  19.243  0.00  0.00    +0.000 A 
ATOM     13  C   UNL     1      -1.761  12.436  19.588  0.00  0.00    +0.000 A 
ATOM     14  C   UNL     1      -2.969  12.004  19.045  0.00  0.00    +0.000 A 
ATOM     15  C   UNL     1      -2.983  10.944  18.137  0.00  0.00    +0.000 A 
ATOM     16  C   UNL     1      -1.798  10.292  17.809  0.00  0.00    +0.000 A 
ATOM     17  O   UNL     1      -4.122  10.480  17.531  0.00  0.00    +0.000 OA
ATOM     18  C   UNL     1      -5.193  11.419  17.652  0.00  0.00    +0.000 C 
ATOM     19  C   UNL     1      -5.284  11.948  19.073  0.00  0.00    +0.000 C 
ATOM     20  O   UNL     1      -4.101  12.675  19.428  0.00  0.00    +0.000 OA
ENDBRANCH   7  11
BRANCH   1  22
ATOM     21  C   UNL     1       3.970   3.749  17.759  0.00  0.00    +0.000 C 
ATOM     22  C   UNL     1       3.018   4.704  18.021  0.00  0.00    +0.000 C 
ATOM     23  C   UNL     1       2.075   3.687  18.552  0.00  0.00    +0.000 C 
ATOM     24  O   UNL     1       0.979   3.604  19.053  0.00  0.00    +0.000 OA
ATOM     25  C   UNL     1       3.054   2.653  18.161  0.00  0.00    +0.000 C 
ATOM     26  O   UNL     1       3.061   1.446  18.236  0.00  0.00    +0.000 OA
BRANCH  21  27
ATOM     27  N   UNL     1       5.192   3.647  17.265  0.00  0.00    +0.000 N 
ATOM     28  H   UNL     1       5.822   3.012  17.755  0.00  0.00    +0.000 HD
BRANCH  27  30
ATOM     29  C   UNL     1       6.632   4.425  15.457  0.00  0.00    +0.000 C 
ATOM     30  C   UNL     1       5.941   4.826  16.765  0.00  0.00    +0.000 C 
BRANCH  30  31
ATOM     31  C   UNL     1       6.936   5.361  17.868  0.00  0.00    +0.000 C 
ATOM     32  C   UNL     1       7.389   6.802  17.535  0.00  0.00    +0.000 C 
ATOM     33  C   UNL     1       6.238   5.418  19.246  0.00  0.00    +0.000 C 
ATOM     34  C   UNL     1       8.198   4.484  17.998  0.00  0.00    +0.000 C 
ENDBRANCH  30  31
ENDBRANCH  27  30
ENDBRANCH  21  27
ENDBRANCH   1  22
TORSDOF 5
ENDMDL
MODEL 3
REMARK VINA RESULT:      -8.7      2.020      3.777
REMARK  Name = 
REMARK  9 active torsions:
REMARK  status: ('A' for Active; 'I' for Inactive)
REMARK    1  A    between atoms: C_1  and  C_2
REMARK    2  A    between atoms: C_2  and  N_3
REMARK    3  A    between atoms: C_2  and  C_28
REMARK    4  A    between atoms: N_3  and  C_4
REMARK    5  A    between atoms: C_5  and  N_6
REMARK    6  A    between atoms: N_12  and  C_13
REMARK    7  A    between atoms: C_28  and  C_29
REMARK    8  A    between atoms: C_28  and  C_30
REMARK    9  A    between atoms: C_28  and  C_31
REMARK                            x       y       z     vdW  Elec       q    Type
REMARK                         _______ _______ _______ _____ _____    ______ ____
ROOT
ATOM      1  N   UNL     1       2.476   7.087  19.385  0.00  0.00    +0.000 N 
ATOM      2  C   UNL     1       1.664   8.034  20.032  0.00  0.00    +0.000 A 
ATOM      3  C   UNL     1       1.413   8.000  21.385  0.00  0.00    +0.000 A 
ATOM      4  C   UNL     1       0.597   8.979  21.882  0.00  0.00    +0.000 A 
ATOM      5  N   UNL     1       0.059   9.932  21.116  0.00  0.00    +0.000 NA
ATOM      6  C   UNL     1       0.350   9.906  19.807  0.00  0.00    +0.000 A 
ATOM      7  N   UNL     1      -0.232  10.859  18.961  0.00  0.00    +0.000 N 
ATOM      8  N   UNL     1       1.159   8.997  19.240  0.00  0.00    +0.000 NA
ATOM      9  H   UNL     1       2.618   7.411  18.429  0.00  0.00    +0.000 HD
ATOM     10  H   UNL     1      -0.021  10.576  18.013  0.00  0.00    +0.000 HD
ENDROOT
BRANCH   7  11
ATOM     11  C   UNL     1      -1.555  11.333  19.096  0.00  0.00    +0.000 A 
ATOM     12  C   UNL     1      -1.854  12.250  20.111  0.00  0.00    +0.000 A 
ATOM     13  C   UNL     1      -3.149  12.762  20.251  0.00  0.00    +0.000 A 
ATOM     14  C   UNL     1      -4.148  12.380  19.359  0.00  0.00    +0.000 A 
ATOM     15  C   UNL     1      -3.848  11.509  18.310  0.00  0.00    +0.000 A 
ATOM     16  C   UNL     1      -2.563  10.989  18.184  0.00  0.00    +0.000 A 
ATOM     17  O   UNL     1      -4.762  11.111  17.370  0.00  0.00    +0.000 OA
ATOM     18  C   UNL     1      -5.914  11.957  17.377  0.00  0.00    +0.000 C 
ATOM     19  C   UNL     1      -6.389  12.206  18.799  0.00  0.00    +0.000 C 
ATOM     20  O   UNL     1      -5.396  12.911  19.556  0.00  0.00    +0.000 OA
ENDBRANCH   7  11
BRANCH   1  22
ATOM     21  C   UNL     1       3.780   4.967  19.556  0.00  0.00    +0.000 C 
ATOM     22  C   UNL     1       2.716   5.827  19.672  0.00  0.00    +0.000 C 
ATOM     23  C   UNL     1       1.843   4.750  20.207  0.00  0.00    +0.000 C 
ATOM     24  O   UNL     1       0.724   4.580  20.629  0.00  0.00    +0.000 OA
ATOM     25  C   UNL     1       2.955   3.806  19.971  0.00  0.00    +0.000 C 
ATOM     26  O   UNL     1       3.081   2.615  20.138  0.00  0.00    +0.000 OA
BRANCH  21  27
ATOM     27  N   UNL     1       5.043   4.967  19.164  0.00  0.00    +0.000 N 
ATOM     28  H   UNL     1       5.742   4.897  19.904  0.00  0.00    +0.000 HD
BRANCH  27  30
ATOM     29  C   UNL     1       4.846   5.432  16.779  0.00  0.00    +0.000 C 
ATOM     30  C   UNL     1       5.533   5.856  18.082  0.00  0.00    +0.000 C 
BRANCH  30  31
ATOM     31  C   UNL     1       7.109   5.824  18.007  0.00  0.00    +0.000 C 
ATOM     32  C   UNL     1       7.647   7.123  17.362  0.00  0.00    +0.000 C 
ATOM     33  C   UNL     1       7.719   5.742  19.425  0.00  0.00    +0.000 C 
ATOM     34  C   UNL     1       7.635   4.631  17.182  0.00  0.00    +0.000 C 
ENDBRANCH  30  31
ENDBRANCH  27  30
ENDBRANCH  21  27
ENDBRANCH   1  22
TORSDOF 5
ENDMDL
MODEL 4
REMARK VINA RESULT:      -8.7      0.802      1.125
REMARK  Name = 
REMARK  9 active torsions:
REMARK  status: ('A' for Active; 'I' for Inactive)
REMARK    1  A    between atoms: C_1  and  C_2
REMARK    2  A    between atoms: C_2  and  N_3
REMARK    3  A    between atoms: C_2  and  C_28
REMARK    4  A    between atoms: N_3  and  C_4
REMARK    5  A    between atoms: C_5  and  N_6
REMARK    6  A    between atoms: N_12  and  C_13
REMARK    7  A    between atoms: C_28  and  C_29
REMARK    8  A    between atoms: C_28  and  C_30
REMARK    9  A    between atoms: C_28  and  C_31
REMARK                            x       y       z     vdW  Elec       q    Type
REMARK                         _______ _______ _______ _____ _____    ______ ____
ROOT
ATOM      1  N   UNL     1       3.768   7.756  17.255  0.00  0.00    +0.000 N 
ATOM      2  C   UNL     1       2.758   8.220  18.113  0.00  0.00    +0.000 A 
ATOM      3  C   UNL     1       2.478   7.627  19.325  0.00  0.00    +0.000 A 
ATOM      4  C   UNL     1       1.461   8.177  20.056  0.00  0.00    +0.000 A 
ATOM      5  N   UNL     1       0.761   9.237  19.642  0.00  0.00    +0.000 NA
ATOM      6  C   UNL     1       1.091   9.765  18.453  0.00  0.00    +0.000 A 
ATOM      7  N   UNL     1       0.349  10.847  17.961  0.00  0.00    +0.000 N 
ATOM      8  N   UNL     1       2.088   9.305  17.682  0.00  0.00    +0.000 NA
ATOM      9  H   UNL     1       3.869   8.440  16.506  0.00  0.00    +0.000 HD
ATOM     10  H   UNL     1       0.643  10.990  17.003  0.00  0.00    +0.000 HD
ENDROOT
BRANCH   7  11
ATOM     11  C   UNL     1      -1.047  10.986  18.118  0.00  0.00    +0.000 A 
ATOM     12  C   UNL     1      -1.903  10.125  17.421  0.00  0.00    +0.000 A 
ATOM     13  C   UNL     1      -3.290  10.217  17.577  0.00  0.00    +0.000 A 
ATOM     14  C   UNL     1      -3.830  11.155  18.454  0.00  0.00    +0.000 A 
ATOM     15  C   UNL     1      -2.984  11.982  19.195  0.00  0.00    +0.000 A 
ATOM     16  C   UNL     1      -1.606  11.899  19.024  0.00  0.00    +0.000 A 
ATOM     17  O   UNL     1      -3.431  12.906  20.104  0.00  0.00    +0.000 OA
ATOM     18  C   UNL     1      -4.795  12.665  20.458  0.00  0.00    +0.000 C 
ATOM     19  C   UNL     1      -5.632  12.394  19.219  0.00  0.00    +0.000 C 
ATOM     20  O   UNL     1      -5.196  11.200  18.557  0.00  0.00    +0.000 OA
ENDBRANCH   7  11
BRANCH   1  22
ATOM     21  C   UNL     1       4.168   5.339  17.731  0.00  0.00    +0.000 C 
ATOM     22  C   UNL     1       4.255   6.547  17.082  0.00  0.00    +0.000 C 
ATOM     23  C   UNL     1       5.213   5.998  16.088  0.00  0.00    +0.000 C 
ATOM     24  O   UNL     1       5.821   6.329  15.098  0.00  0.00    +0.000 OA
ATOM     25  C   UNL     1       5.205   4.736  16.857  0.00  0.00    +0.000 C 
ATOM     26  O   UNL     1       5.777   3.680  16.723  0.00  0.00    +0.000 OA
BRANCH  21  27
ATOM     27  N   UNL     1       3.558   4.789  18.767  0.00  0.00    +0.000 N 
ATOM     28  H   UNL     1       4.143   4.596  19.580  0.00  0.00    +0.000 HD
BRANCH  27  30
ATOM     29  C   UNL     1       1.484   4.229  17.614  0.00  0.00    +0.000 C 
ATOM     30  C   UNL     1       2.537   3.725  18.607  0.00  0.00    +0.000 C 
BRANCH  30  31
ATOM     31  C   UNL     1       1.939   3.313  20.009  0.00  0.00    +0.000 C 
ATOM     32  C   UNL     1       1.458   4.563  20.781  0.00  0.00    +0.000 C 
ATOM     33  C   UNL     1       0.707   2.397  19.824  0.00  0.00    +0.000 C 
ATOM     34  C   UNL     1       2.965   2.573  20.892  0.00  0.00    +0.000 C 
ENDBRANCH  30  31
ENDBRANCH  27  30
ENDBRANCH  21  27
ENDBRANCH   1  22
TORSDOF 5
ENDMDL
MODEL 5
REMARK VINA RESULT:      -8.7      1.874      3.449
REMARK  Name = 
REMARK  9 active torsions:
REMARK  status: ('A' for Active; 'I' for Inactive)
REMARK    1  A    between atoms: C_1  and  C_2
REMARK    2  A    between atoms: C_2  and  N_3
REMARK    3  A    between atoms: C_2  and  C_28
REMARK    4  A    between atoms: N_3  and  C_4
REMARK    5  A    between atoms: C_5  and  N_6
REMARK    6  A    between atoms: N_12  and  C_13
REMARK    7  A    between atoms: C_28  and  C_29
REMARK    8  A    between atoms: C_28  and  C_30
REMARK    9  A    between atoms: C_28  and  C_31
REMARK                            x       y       z     vdW  Elec       q    Type
REMARK                         _______ _______ _______ _____ _____    ______ ____
ROOT
ATOM      1  N   UNL     1       2.655   7.061  19.043  0.00  0.00    +0.000 N 
ATOM      2  C   UNL     1       1.757   7.995  19.585  0.00  0.00    +0.000 A 
ATOM      3  C   UNL     1       1.462   8.052  20.930  0.00  0.00    +0.000 A 
ATOM      4  C   UNL     1       0.562   9.005  21.320  0.00  0.00    +0.000 A 
ATOM      5  N   UNL     1      -0.014   9.853  20.463  0.00  0.00    +0.000 NA
ATOM      6  C   UNL     1       0.323   9.742  19.169  0.00  0.00    +0.000 A 
ATOM      7  N   UNL     1      -0.296  10.580  18.231  0.00  0.00    +0.000 N 
ATOM      8  N   UNL     1       1.213   8.852  18.702  0.00  0.00    +0.000 NA
ATOM      9  H   UNL     1       2.806   7.317  18.067  0.00  0.00    +0.000 HD
ATOM     10  H   UNL     1      -0.033  10.237  17.316  0.00  0.00    +0.000 HD
ENDROOT
BRANCH   7  11
ATOM     11  C   UNL     1      -1.653  10.965  18.288  0.00  0.00    +0.000 A 
ATOM     12  C   UNL     1      -2.583  10.317  17.467  0.00  0.00    +0.000 A 
ATOM     13  C   UNL     1      -3.940  10.655  17.521  0.00  0.00    +0.000 A 
ATOM     14  C   UNL     1      -4.379  11.626  18.417  0.00  0.00    +0.000 A 
ATOM     15  C   UNL     1      -3.468  12.240  19.279  0.00  0.00    +0.000 A 
ATOM     16  C   UNL     1      -2.117  11.913  19.211  0.00  0.00    +0.000 A 
ATOM     17  O   UNL     1      -3.822  13.178  20.214  0.00  0.00    +0.000 OA
ATOM     18  C   UNL     1      -5.233  13.175  20.442  0.00  0.00    +0.000 C 
ATOM     19  C   UNL     1      -5.991  13.132  19.125  0.00  0.00    +0.000 C 
ATOM     20  O   UNL     1      -5.719  11.916  18.416  0.00  0.00    +0.000 OA
ENDBRANCH   7  11
BRANCH   1  22
ATOM     21  C   UNL     1       4.028   4.989  19.259  0.00  0.00    +0.000 C 
ATOM     22  C   UNL     1       2.972   5.849  19.440  0.00  0.00    +0.000 C 
ATOM     23  C   UNL     1       2.227   4.841  20.238  0.00  0.00    +0.000 C 
ATOM     24  O   UNL     1       1.196   4.718  20.854  0.00  0.00    +0.000 OA
ATOM     25  C   UNL     1       3.312   3.883  19.942  0.00  0.00    +0.000 C 
ATOM     26  O   UNL     1       3.497   2.724  20.232  0.00  0.00    +0.000 OA
BRANCH  21  27
ATOM     27  N   UNL     1       5.211   4.950  18.670  0.00  0.00    +0.000 N 
ATOM     28  H   UNL     1       5.998   5.289  19.222  0.00  0.00    +0.000 HD
BRANCH  27  30
ATOM     29  C   UNL     1       4.656   4.271  16.394  0.00  0.00    +0.000 C 
ATOM     30  C   UNL     1       5.394   5.312  17.243  0.00  0.00    +0.000 C 
BRANCH  30  31
ATOM     31  C   UNL     1       6.928   5.441  16.894  0.00  0.00    +0.000 C 
ATOM     32  C   UNL     1       7.411   6.895  17.106  0.00  0.00    +0.000 C 
ATOM     33  C   UNL     1       7.774   4.547  17.829  0.00  0.00    +0.000 C 
ATOM     34  C   UNL     1       7.235   5.046  15.435  0.00  0.00    +0.000 C 
ENDBRANCH  30  31
ENDBRANCH  27  30
ENDBRANCH  21  27
ENDBRANCH   1  22
TORSDOF 5
ENDMDL
MODEL 6
REMARK VINA RESULT:      -8.6      1.950      3.695
REMARK  Name = 
REMARK  9 active torsions:
REMARK  status: ('A' for Active; 'I' for Inactive)
REMARK    1  A    between atoms: C_1  and  C_2
REMARK    2  A    between atoms: C_2  and  N_3
REMARK    3  A    between atoms: C_2  and  C_28
REMARK    4  A    between atoms: N_3  and  C_4
REMARK    5  A    between atoms: C_5  and  N_6
REMARK    6  A    between atoms: N_12  and  C_13
REMARK    7  A    between atoms: C_28  and  C_29
REMARK    8  A    between atoms: C_28  and  C_30
REMARK    9  A    between atoms: C_28  and  C_31
REMARK                            x       y       z     vdW  Elec       q    Type
REMARK                         _______ _______ _______ _____ _____    ______ ____
ROOT
ATOM      1  N   UNL     1       2.540   7.228  19.239  0.00  0.00    +0.000 N 
ATOM      2  C   UNL     1       1.720   8.149  19.911  0.00  0.00    +0.000 A 
ATOM      3  C   UNL     1       1.503   8.100  21.270  0.00  0.00    +0.000 A 
ATOM      4  C   UNL     1       0.673   9.055  21.792  0.00  0.00    +0.000 A 
ATOM      5  N   UNL     1       0.092   9.998  21.046  0.00  0.00    +0.000 NA
ATOM      6  C   UNL     1       0.351   9.987  19.730  0.00  0.00    +0.000 A 
ATOM      7  N   UNL     1      -0.276  10.930  18.906  0.00  0.00    +0.000 N 
ATOM      8  N   UNL     1       1.170   9.103  19.138  0.00  0.00    +0.000 NA
ATOM      9  H   UNL     1       2.650   7.561  18.282  0.00  0.00    +0.000 HD
ATOM     10  H   UNL     1      -0.081  10.657  17.950  0.00  0.00    +0.000 HD
ENDROOT
BRANCH   7  11
ATOM     11  C   UNL     1      -1.608  11.368  19.075  0.00  0.00    +0.000 A 
ATOM     12  C   UNL     1      -1.899  12.299  20.079  0.00  0.00    +0.000 A 
ATOM     13  C   UNL     1      -3.203  12.775  20.253  0.00  0.00    +0.000 A 
ATOM     14  C   UNL     1      -4.220  12.344  19.405  0.00  0.00    +0.000 A 
ATOM     15  C   UNL     1      -3.930  11.458  18.366  0.00  0.00    +0.000 A 
ATOM     16  C   UNL     1      -2.635  10.973  18.206  0.00  0.00    +0.000 A 
ATOM     17  O   UNL     1      -4.863  11.012  17.467  0.00  0.00    +0.000 OA
ATOM     18  C   UNL     1      -6.039  11.824  17.495  0.00  0.00    +0.000 C 
ATOM     19  C   UNL     1      -6.472  12.092  18.927  0.00  0.00    +0.000 C 
ATOM     20  O   UNL     1      -5.477  12.842  19.633  0.00  0.00    +0.000 OA
ENDBRANCH   7  11
BRANCH   1  22
ATOM     21  C   UNL     1       3.871   5.118  19.287  0.00  0.00    +0.000 C 
ATOM     22  C   UNL     1       2.819   5.973  19.512  0.00  0.00    +0.000 C 
ATOM     23  C   UNL     1       2.020   4.897  20.153  0.00  0.00    +0.000 C 
ATOM     24  O   UNL     1       0.957   4.726  20.700  0.00  0.00    +0.000 OA
ATOM     25  C   UNL     1       3.105   3.957  19.805  0.00  0.00    +0.000 C 
ATOM     26  O   UNL     1       3.258   2.769  19.971  0.00  0.00    +0.000 OA
BRANCH  21  27
ATOM     27  N   UNL     1       5.082   5.121  18.757  0.00  0.00    +0.000 N 
ATOM     28  H   UNL     1       5.809   5.582  19.303  0.00  0.00    +0.000 HD
BRANCH  27  30
ATOM     29  C   UNL     1       4.672   4.187  16.542  0.00  0.00    +0.000 C 
ATOM     30  C   UNL     1       5.308   5.352  17.309  0.00  0.00    +0.000 C 
BRANCH  30  31
ATOM     31  C   UNL     1       6.846   5.543  17.009  0.00  0.00    +0.000 C 
ATOM     32  C   UNL     1       7.690   4.582  17.878  0.00  0.00    +0.000 C 
ATOM     33  C   UNL     1       7.157   5.204  15.533  0.00  0.00    +0.000 C 
ATOM     34  C   UNL     1       7.326   6.982  17.288  0.00  0.00    +0.000 C 
ENDBRANCH  30  31
ENDBRANCH  27  30
ENDBRANCH  21  27
ENDBRANCH   1  22
TORSDOF 5
ENDMDL
MODEL 7
REMARK VINA RESULT:      -8.6      1.767      3.236
REMARK  Name = 
REMARK  9 active torsions:
REMARK  status: ('A' for Active; 'I' for Inactive)
REMARK    1  A    between atoms: C_1  and  C_2
REMARK    2  A    between atoms: C_2  and  N_3
REMARK    3  A    between atoms: C_2  and  C_28
REMARK    4  A    between atoms: N_3  and  C_4
REMARK    5  A    between atoms: C_5  and  N_6
REMARK    6  A    between atoms: N_12  and  C_13
REMARK    7  A    between atoms: C_28  and  C_29
REMARK    8  A    between atoms: C_28  and  C_30
REMARK    9  A    between atoms: C_28  and  C_31
REMARK                            x       y       z     vdW  Elec       q    Type
REMARK                         _______ _______ _______ _____ _____    ______ ____
ROOT
ATOM      1  N   UNL     1       2.864   7.248  18.866  0.00  0.00    +0.000 N 
ATOM      2  C   UNL     1       1.882   8.115  19.371  0.00  0.00    +0.000 A 
ATOM      3  C   UNL     1       1.511   8.129  20.698  0.00  0.00    +0.000 A 
ATOM      4  C   UNL     1       0.534   9.019  21.051  0.00  0.00    +0.000 A 
ATOM      5  N   UNL     1      -0.046   9.845  20.176  0.00  0.00    +0.000 NA
ATOM      6  C   UNL     1       0.368   9.779  18.902  0.00  0.00    +0.000 A 
ATOM      7  N   UNL     1      -0.249  10.594  17.943  0.00  0.00    +0.000 N 
ATOM      8  N   UNL     1       1.335   8.954  18.472  0.00  0.00    +0.000 NA
ATOM      9  H   UNL     1       3.053   7.530  17.905  0.00  0.00    +0.000 HD
ATOM     10  H   UNL     1       0.085  10.285  17.039  0.00  0.00    +0.000 HD
ENDROOT
BRANCH   7  11
ATOM     11  C   UNL     1      -1.628  10.895  17.930  0.00  0.00    +0.000 A 
ATOM     12  C   UNL     1      -2.453  10.280  16.981  0.00  0.00    +0.000 A 
ATOM     13  C   UNL     1      -3.829  10.534  16.960  0.00  0.00    +0.000 A 
ATOM     14  C   UNL     1      -4.393  11.386  17.907  0.00  0.00    +0.000 A 
ATOM     15  C   UNL     1      -3.588  11.962  18.891  0.00  0.00    +0.000 A 
ATOM     16  C   UNL     1      -2.218  11.720  18.899  0.00  0.00    +0.000 A 
ATOM     17  O   UNL     1      -4.068  12.782  19.879  0.00  0.00    +0.000 OA
ATOM     18  C   UNL     1      -5.488  12.677  19.995  0.00  0.00    +0.000 C 
ATOM     19  C   UNL     1      -6.144  12.721  18.625  0.00  0.00    +0.000 C 
ATOM     20  O   UNL     1      -5.745  11.599  17.828  0.00  0.00    +0.000 OA
ENDBRANCH   7  11
BRANCH   1  22
ATOM     21  C   UNL     1       4.400   5.323  19.275  0.00  0.00    +0.000 C 
ATOM     22  C   UNL     1       3.234   6.050  19.263  0.00  0.00    +0.000 C 
ATOM     23  C   UNL     1       2.463   4.911  19.826  0.00  0.00    +0.000 C 
ATOM     24  O   UNL     1       1.347   4.633  20.194  0.00  0.00    +0.000 OA
ATOM     25  C   UNL     1       3.694   4.100  19.729  0.00  0.00    +0.000 C 
ATOM     26  O   UNL     1       3.951   2.949  19.994  0.00  0.00    +0.000 OA
BRANCH  21  27
ATOM     27  N   UNL     1       5.677   5.455  18.959  0.00  0.00    +0.000 N 
ATOM     28  H   UNL     1       6.023   6.411  18.879  0.00  0.00    +0.000 HD
BRANCH  27  30
ATOM     29  C   UNL     1       7.849   4.711  18.137  0.00  0.00    +0.000 C 
ATOM     30  C   UNL     1       6.333   4.588  17.949  0.00  0.00    +0.000 C 
BRANCH  30  31
ATOM     31  C   UNL     1       5.842   4.959  16.495  0.00  0.00    +0.000 C 
ATOM     32  C   UNL     1       5.522   6.469  16.400  0.00  0.00    +0.000 C 
ATOM     33  C   UNL     1       6.953   4.670  15.458  0.00  0.00    +0.000 C 
ATOM     34  C   UNL     1       4.578   4.178  16.083  0.00  0.00    +0.000 C 
ENDBRANCH  30  31
ENDBRANCH  27  30
ENDBRANCH  21  27
ENDBRANCH   1  22
TORSDOF 5
ENDMDL
MODEL 8
REMARK VINA RESULT:      -8.6      0.656      1.319
REMARK  Name = 
REMARK  9 active torsions:
REMARK  status: ('A' for Active; 'I' for Inactive)
REMARK    1  A    between atoms: C_1  and  C_2
REMARK    2  A    between atoms: C_2  and  N_3
REMARK    3  A    between atoms: C_2  and  C_28
REMARK    4  A    between atoms: N_3  and  C_4
REMARK    5  A    between atoms: C_5  and  N_6
REMARK    6  A    between atoms: N_12  and  C_13
REMARK    7  A    between atoms: C_28  and  C_29
REMARK    8  A    between atoms: C_28  and  C_30
REMARK    9  A    between atoms: C_28  and  C_31
REMARK                            x       y       z     vdW  Elec       q    Type
REMARK                         _______ _______ _______ _____ _____    ______ ____
ROOT
ATOM      1  N   UNL     1       3.457   8.071  17.437  0.00  0.00    +0.000 N 
ATOM      2  C   UNL     1       2.412   8.537  18.253  0.00  0.00    +0.000 A 
ATOM      3  C   UNL     1       2.166   8.031  19.510  0.00  0.00    +0.000 A 
ATOM      4  C   UNL     1       1.109   8.571  20.191  0.00  0.00    +0.000 A 
ATOM      5  N   UNL     1       0.342   9.542  19.688  0.00  0.00    +0.000 NA
ATOM      6  C   UNL     1       0.643   9.989  18.460  0.00  0.00    +0.000 A 
ATOM      7  N   UNL     1      -0.167  10.973  17.877  0.00  0.00    +0.000 N 
ATOM      8  N   UNL     1       1.674   9.533  17.731  0.00  0.00    +0.000 NA
ATOM      9  H   UNL     1       3.516   8.695  16.633  0.00  0.00    +0.000 HD
ATOM     10  H   UNL     1       0.123  11.054  16.910  0.00  0.00    +0.000 HD
ENDROOT
BRANCH   7  11
ATOM     11  C   UNL     1      -1.570  11.030  18.021  0.00  0.00    +0.000 A 
ATOM     12  C   UNL     1      -2.366  10.100  17.341  0.00  0.00    +0.000 A 
ATOM     13  C   UNL     1      -3.758  10.112  17.485  0.00  0.00    +0.000 A 
ATOM     14  C   UNL     1      -4.361  11.037  18.334  0.00  0.00    +0.000 A 
ATOM     15  C   UNL     1      -3.573  11.933  19.059  0.00  0.00    +0.000 A 
ATOM     16  C   UNL     1      -2.191  11.930  18.900  0.00  0.00    +0.000 A 
ATOM     17  O   UNL     1      -4.083  12.850  19.940  0.00  0.00    +0.000 OA
ATOM     18  C   UNL     1      -5.433  12.536  20.291  0.00  0.00    +0.000 C 
ATOM     19  C   UNL     1      -6.241  12.182  19.054  0.00  0.00    +0.000 C 
ATOM     20  O   UNL     1      -5.728  11.001  18.426  0.00  0.00    +0.000 OA
ENDBRANCH   7  11
BRANCH   1  22
ATOM     21  C   UNL     1       4.048   5.750  18.138  0.00  0.00    +0.000 C 
ATOM     22  C   UNL     1       4.025   6.888  17.368  0.00  0.00    +0.000 C 
ATOM     23  C   UNL     1       4.988   6.307  16.397  0.00  0.00    +0.000 C 
ATOM     24  O   UNL     1       5.538   6.575  15.356  0.00  0.00    +0.000 OA
ATOM     25  C   UNL     1       5.097   5.134  17.289  0.00  0.00    +0.000 C 
ATOM     26  O   UNL     1       5.740   4.111  17.239  0.00  0.00    +0.000 OA
BRANCH  21  27
ATOM     27  N   UNL     1       3.513   5.269  19.247  0.00  0.00    +0.000 N 
ATOM     28  H   UNL     1       4.166   4.875  19.925  0.00  0.00    +0.000 HD
BRANCH  27  30
ATOM     29  C   UNL     1       1.467   4.851  20.507  0.00  0.00    +0.000 C 
ATOM     30  C   UNL     1       2.251   4.489  19.240  0.00  0.00    +0.000 C 
BRANCH  30  31
ATOM     31  C   UNL     1       2.552   2.945  19.101  0.00  0.00    +0.000 C 
ATOM     32  C   UNL     1       3.899   2.593  19.773  0.00  0.00    +0.000 C 
ATOM     33  C   UNL     1       1.463   2.114  19.818  0.00  0.00    +0.000 C 
ATOM     34  C   UNL     1       2.621   2.489  17.629  0.00  0.00    +0.000 C 
ENDBRANCH  30  31
ENDBRANCH  27  30
ENDBRANCH  21  27
ENDBRANCH   1  22
TORSDOF 5
ENDMDL
MODEL 9
REMARK VINA RESULT:      -8.6      1.891      3.706
REMARK  Name = 
REMARK  9 active torsions:
REMARK  status: ('A' for Active; 'I' for Inactive)
REMARK    1  A    between atoms: C_1  and  C_2
REMARK    2  A    between atoms: C_2  and  N_3
REMARK    3  A    between atoms: C_2  and  C_28
REMARK    4  A    between atoms: N_3  and  C_4
REMARK    5  A    between atoms: C_5  and  N_6
REMARK    6  A    between atoms: N_12  and  C_13
REMARK    7  A    between atoms: C_28  and  C_29
REMARK    8  A    between atoms: C_28  and  C_30
REMARK    9  A    between atoms: C_28  and  C_31
REMARK                            x       y       z     vdW  Elec       q    Type
REMARK                         _______ _______ _______ _____ _____    ______ ____
ROOT
ATOM      1  N   UNL     1       2.776   6.129  17.990  0.00  0.00    +0.000 N 
ATOM      2  C   UNL     1       2.185   7.137  18.769  0.00  0.00    +0.000 A 
ATOM      3  C   UNL     1       2.159   7.098  20.145  0.00  0.00    +0.000 A 
ATOM      4  C   UNL     1       1.541   8.143  20.776  0.00  0.00    +0.000 A 
ATOM      5  N   UNL     1       0.987   9.163  20.117  0.00  0.00    +0.000 NA
ATOM      6  C   UNL     1       1.053   9.137  18.777  0.00  0.00    +0.000 A 
ATOM      7  N   UNL     1       0.441  10.164  18.047  0.00  0.00    +0.000 N 
ATOM      8  N   UNL     1       1.659   8.165  18.078  0.00  0.00    +0.000 NA
ATOM      9  H   UNL     1       2.791   6.459  17.026  0.00  0.00    +0.000 HD
ATOM     10  H   UNL     1       0.461   9.883  17.074  0.00  0.00    +0.000 HD
ENDROOT
BRANCH   7  11
ATOM     11  C   UNL     1      -0.785  10.767  18.402  0.00  0.00    +0.000 A 
ATOM     12  C   UNL     1      -0.788  11.824  19.320  0.00  0.00    +0.000 A 
ATOM     13  C   UNL     1      -1.983  12.462  19.671  0.00  0.00    +0.000 A 
ATOM     14  C   UNL     1      -3.181  12.063  19.084  0.00  0.00    +0.000 A 
ATOM     15  C   UNL     1      -3.183  11.047  18.127  0.00  0.00    +0.000 A 
ATOM     16  C   UNL     1      -1.995  10.404  17.793  0.00  0.00    +0.000 A 
ATOM     17  O   UNL     1      -4.312  10.619  17.477  0.00  0.00    +0.000 OA
ATOM     18  C   UNL     1      -5.379  11.558  17.621  0.00  0.00    +0.000 C 
ATOM     19  C   UNL     1      -5.497  12.022  19.063  0.00  0.00    +0.000 C 
ATOM     20  O   UNL     1      -4.317  12.723  19.475  0.00  0.00    +0.000 OA
ENDBRANCH   7  11
BRANCH   1  22
ATOM     21  C   UNL     1       3.855   3.880  17.914  0.00  0.00    +0.000 C 
ATOM     22  C   UNL     1       2.928   4.844  18.226  0.00  0.00    +0.000 C 
ATOM     23  C   UNL     1       2.057   3.853  18.909  0.00  0.00    +0.000 C 
ATOM     24  O   UNL     1       1.023   3.793  19.530  0.00  0.00    +0.000 OA
ATOM     25  C   UNL     1       3.000   2.803  18.472  0.00  0.00    +0.000 C 
ATOM     26  O   UNL     1       3.026   1.602  18.610  0.00  0.00    +0.000 OA
BRANCH  21  27
ATOM     27  N   UNL     1       5.018   3.757  17.298  0.00  0.00    +0.000 N 
ATOM     28  H   UNL     1       5.291   2.808  17.041  0.00  0.00    +0.000 HD
BRANCH  27  30
ATOM     29  C   UNL     1       5.930   5.151  19.078  0.00  0.00    +0.000 C 
ATOM     30  C   UNL     1       6.211   4.541  17.700  0.00  0.00    +0.000 C 
BRANCH  30  31
ATOM     31  C   UNL     1       6.574   5.609  16.597  0.00  0.00    +0.000 C 
ATOM     32  C   UNL     1       7.432   6.744  17.202  0.00  0.00    +0.000 C 
ATOM     33  C   UNL     1       7.414   4.963  15.471  0.00  0.00    +0.000 C 
ATOM     34  C   UNL     1       5.321   6.248  15.962  0.00  0.00    +0.000 C 
ENDBRANCH  30  31
ENDBRANCH  27  30
ENDBRANCH  21  27
ENDBRANCH   1  22
TORSDOF 5
ENDMDL
