MODEL 1
REMARK VINA RESULT:      -7.5      0.000      0.000
REMARK  Name = 
REMARK  9 active torsions:
REMARK  status: ('A' for Active; 'I' for Inactive)
REMARK    1  A    between atoms: C_1  and  C_2
REMARK    2  A    between atoms: C_2  and  C_3
REMARK    3  A    between atoms: C_3  and  N_4
REMARK    4  A    between atoms: N_4  and  C_5
REMARK    5  A    between atoms: N_4  and  C_8
REMARK    6  A    between atoms: C_5  and  C_6
REMARK    7  A    between atoms: C_6  and  C_7
REMARK    8  A    between atoms: C_11  and  O_12
REMARK    9  A    between atoms: C_18  and  C_19
REMARK                            x       y       z     vdW  Elec       q    Type
REMARK                         _______ _______ _______ _____ _____    ______ ____
ROOT
ATOM      1  C   UNL     1       4.363   5.565  17.439  0.00  0.00    +0.000 C 
ATOM      2  C   UNL     1       4.759   4.424  18.457  0.00  0.00    +0.000 C 
ATOM      3  C   UNL     1       3.720   3.977  19.456  0.00  0.00    +0.000 A 
ATOM      4  C   UNL     1       3.868   2.803  20.214  0.00  0.00    +0.000 A 
ATOM      5  C   UNL     1       2.888   2.384  21.113  0.00  0.00    +0.000 A 
ATOM      6  C   UNL     1       1.737   3.142  21.287  0.00  0.00    +0.000 A 
ATOM      7  C   UNL     1       1.581   4.322  20.567  0.00  0.00    +0.000 A 
ATOM      8  C   UNL     1       2.572   4.753  19.667  0.00  0.00    +0.000 A 
ATOM      9  C   UNL     1       2.343   6.016  18.902  0.00  0.00    +0.000 C 
ATOM     10  C   UNL     1       3.617   6.660  18.299  0.00  0.00    +0.000 C 
ATOM     11  C   UNL     1       3.096   7.941  17.636  0.00  0.00    +0.000 C 
ENDROOT
BRANCH   4  12
ATOM     12  O   UNL     1       4.964   1.992  20.126  0.00  0.00    +0.000 OA
ATOM     13  H   UNL     1       5.264   1.960  19.205  0.00  0.00    +0.000 HD
ENDBRANCH   4  12
BRANCH   1  14
ATOM     14  N   UNL     1       5.590   5.932  16.635  0.00  0.00    +0.000 NA
BRANCH  14  15
ATOM     15  C   UNL     1       6.844   5.498  17.310  0.00  0.00    +0.000 C 
BRANCH  15  17
ATOM     16  C   UNL     1       7.598   7.938  17.511  0.00  0.00    +0.000 C 
ATOM     17  C   UNL     1       7.622   6.547  18.128  0.00  0.00    +0.000 C 
ENDBRANCH  15  17
ENDBRANCH  14  15
BRANCH  14  18
ATOM     18  C   UNL     1       5.588   5.496  15.228  0.00  0.00    +0.000 C 
BRANCH  18  19
ATOM     19  C   UNL     1       6.151   4.096  14.940  0.00  0.00    +0.000 C 
ATOM     20  C   UNL     1       6.112   3.772  13.451  0.00  0.00    +0.000 C 
ENDBRANCH  18  19
ENDBRANCH  14  18
ENDBRANCH   1  14
TORSDOF 6
ENDMDL
MODEL 2
REMARK VINA RESULT:      -7.5      1.532      1.551
REMARK  Name = 
REMARK  9 active torsions:
REMARK  status: ('A' for Active; 'I' for Inactive)
REMARK    1  A    between atoms: C_1  and  C_2
REMARK    2  A    between atoms: C_2  and  C_3
REMARK    3  A    between atoms: C_3  and  N_4
REMARK    4  A    between atoms: N_4  and  C_5
REMARK    5  A    between atoms: N_4  and  C_8
REMARK    6  A    between atoms: C_5  and  C_6
REMARK    7  A    between atoms: C_6  and  C_7
REMARK    8  A    between atoms: C_11  and  O_12
REMARK    9  A    between atoms: C_18  and  C_19
REMARK                            x       y       z     vdW  Elec       q    Type
REMARK                         _______ _______ _______ _____ _____    ______ ____
ROOT
ATOM      1  C   UNL     1       4.974   5.043  16.929  0.00  0.00    +0.000 C 
ATOM      2  C   UNL     1       4.831   3.630  17.619  0.00  0.00    +0.000 C 
ATOM      3  C   UNL     1       3.458   3.204  18.077  0.00  0.00    +0.000 A 
ATOM      4  C   UNL     1       3.171   1.879  18.449  0.00  0.00    +0.000 A 
ATOM      5  C   UNL     1       1.891   1.491  18.842  0.00  0.00    +0.000 A 
ATOM      6  C   UNL     1       0.866   2.427  18.889  0.00  0.00    +0.000 A 
ATOM      7  C   UNL     1       1.132   3.749  18.552  0.00  0.00    +0.000 A 
ATOM      8  C   UNL     1       2.424   4.147  18.164  0.00  0.00    +0.000 A 
ATOM      9  C   UNL     1       2.651   5.576  17.789  0.00  0.00    +0.000 C 
ATOM     10  C   UNL     1       4.130   6.037  17.819  0.00  0.00    +0.000 C 
ATOM     11  C   UNL     1       4.052   7.525  17.456  0.00  0.00    +0.000 C 
ENDROOT
BRANCH   4  12
ATOM     12  O   UNL     1       4.108   0.884  18.447  0.00  0.00    +0.000 OA
ATOM     13  H   UNL     1       4.620   0.928  19.269  0.00  0.00    +0.000 HD
ENDBRANCH   4  12
BRANCH   1  14
ATOM     14  N   UNL     1       6.444   5.303  16.678  0.00  0.00    +0.000 NA
BRANCH  14  15
ATOM     15  C   UNL     1       7.240   5.229  17.934  0.00  0.00    +0.000 C 
BRANCH  15  17
ATOM     16  C   UNL     1       7.709   7.718  17.555  0.00  0.00    +0.000 C 
ATOM     17  C   UNL     1       7.784   6.545  18.521  0.00  0.00    +0.000 C 
ENDBRANCH  15  17
ENDBRANCH  14  15
BRANCH  14  18
ATOM     18  C   UNL     1       7.068   4.485  15.625  0.00  0.00    +0.000 C 
BRANCH  18  19
ATOM     19  C   UNL     1       6.740   4.865  14.172  0.00  0.00    +0.000 C 
ATOM     20  C   UNL     1       5.944   3.769  13.473  0.00  0.00    +0.000 C 
ENDBRANCH  18  19
ENDBRANCH  14  18
ENDBRANCH   1  14
TORSDOF 6
ENDMDL
MODEL 3
REMARK VINA RESULT:      -7.2      0.567      2.516
REMARK  Name = 
REMARK  9 active torsions:
REMARK  status: ('A' for Active; 'I' for Inactive)
REMARK    1  A    between atoms: C_1  and  C_2
REMARK    2  A    between atoms: C_2  and  C_3
REMARK    3  A    between atoms: C_3  and  N_4
REMARK    4  A    between atoms: N_4  and  C_5
REMARK    5  A    between atoms: N_4  and  C_8
REMARK    6  A    between atoms: C_5  and  C_6
REMARK    7  A    between atoms: C_6  and  C_7
REMARK    8  A    between atoms: C_11  and  O_12
REMARK    9  A    between atoms: C_18  and  C_19
REMARK                            x       y       z     vdW  Elec       q    Type
REMARK                         _______ _______ _______ _____ _____    ______ ____
ROOT
ATOM      1  C   UNL     1       4.331   5.405  17.602  0.00  0.00    +0.000 C 
ATOM      2  C   UNL     1       4.668   4.318  18.697  0.00  0.00    +0.000 C 
ATOM      3  C   UNL     1       3.562   3.890  19.631  0.00  0.00    +0.000 A 
ATOM      4  C   UNL     1       3.673   2.753  20.450  0.00  0.00    +0.000 A 
ATOM      5  C   UNL     1       2.633   2.351  21.287  0.00  0.00    +0.000 A 
ATOM      6  C   UNL     1       1.458   3.089  21.337  0.00  0.00    +0.000 A 
ATOM      7  C   UNL     1       1.336   4.233  20.556  0.00  0.00    +0.000 A 
ATOM      8  C   UNL     1       2.386   4.647  19.718  0.00  0.00    +0.000 A 
ATOM      9  C   UNL     1       2.194   5.871  18.881  0.00  0.00    +0.000 C 
ATOM     10  C   UNL     1       3.498   6.518  18.351  0.00  0.00    +0.000 C 
ATOM     11  C   UNL     1       3.006   7.757  17.593  0.00  0.00    +0.000 C 
ENDROOT
BRANCH   4  12
ATOM     12  O   UNL     1       4.788   1.964  20.484  0.00  0.00    +0.000 OA
ATOM     13  H   UNL     1       4.541   1.076  20.781  0.00  0.00    +0.000 HD
ENDBRANCH   4  12
BRANCH   1  14
ATOM     14  N   UNL     1       5.611   5.765  16.880  0.00  0.00    +0.000 NA
BRANCH  14  15
ATOM     15  C   UNL     1       5.471   5.625  15.405  0.00  0.00    +0.000 C 
BRANCH  15  17
ATOM     16  C   UNL     1       6.047   3.838  13.663  0.00  0.00    +0.000 C 
ATOM     17  C   UNL     1       6.580   4.874  14.643  0.00  0.00    +0.000 C 
ENDBRANCH  15  17
ENDBRANCH  14  15
BRANCH  14  18
ATOM     18  C   UNL     1       6.190   7.076  17.220  0.00  0.00    +0.000 C 
BRANCH  18  19
ATOM     19  C   UNL     1       7.638   7.076  17.735  0.00  0.00    +0.000 C 
ATOM     20  C   UNL     1       7.819   6.104  18.895  0.00  0.00    +0.000 C 
ENDBRANCH  18  19
ENDBRANCH  14  18
ENDBRANCH   1  14
TORSDOF 6
ENDMDL
MODEL 4
REMARK VINA RESULT:      -7.2      0.921      2.728
REMARK  Name = 
REMARK  9 active torsions:
REMARK  status: ('A' for Active; 'I' for Inactive)
REMARK    1  A    between atoms: C_1  and  C_2
REMARK    2  A    between atoms: C_2  and  C_3
REMARK    3  A    between atoms: C_3  and  N_4
REMARK    4  A    between atoms: N_4  and  C_5
REMARK    5  A    between atoms: N_4  and  C_8
REMARK    6  A    between atoms: C_5  and  C_6
REMARK    7  A    between atoms: C_6  and  C_7
REMARK    8  A    between atoms: C_11  and  O_12
REMARK    9  A    between atoms: C_18  and  C_19
REMARK                            x       y       z     vdW  Elec       q    Type
REMARK                         _______ _______ _______ _____ _____    ______ ____
ROOT
ATOM      1  C   UNL     1       5.073   4.704  17.843  0.00  0.00    +0.000 C 
ATOM      2  C   UNL     1       4.983   3.848  19.167  0.00  0.00    +0.000 C 
ATOM      3  C   UNL     1       3.621   3.646  19.784  0.00  0.00    +0.000 A 
ATOM      4  C   UNL     1       3.390   2.692  20.791  0.00  0.00    +0.000 A 
ATOM      5  C   UNL     1       2.122   2.493  21.334  0.00  0.00    +0.000 A 
ATOM      6  C   UNL     1       1.051   3.259  20.892  0.00  0.00    +0.000 A 
ATOM      7  C   UNL     1       1.260   4.227  19.916  0.00  0.00    +0.000 A 
ATOM      8  C   UNL     1       2.540   4.437  19.373  0.00  0.00    +0.000 A 
ATOM      9  C   UNL     1       2.705   5.475  18.310  0.00  0.00    +0.000 C 
ATOM     10  C   UNL     1       4.157   5.967  18.091  0.00  0.00    +0.000 C 
ATOM     11  C   UNL     1       4.016   7.043  17.008  0.00  0.00    +0.000 C 
ENDROOT
BRANCH   4  12
ATOM     12  O   UNL     1       4.375   1.895  21.303  0.00  0.00    +0.000 OA
ATOM     13  H   UNL     1       5.236   2.308  21.139  0.00  0.00    +0.000 HD
ENDBRANCH   4  12
BRANCH   1  14
ATOM     14  N   UNL     1       6.534   4.878  17.488  0.00  0.00    +0.000 NA
BRANCH  14  15
ATOM     15  C   UNL     1       6.740   4.951  16.016  0.00  0.00    +0.000 C 
BRANCH  15  17
ATOM     16  C   UNL     1       6.255   3.943  13.711  0.00  0.00    +0.000 C 
ATOM     17  C   UNL     1       5.726   4.226  15.109  0.00  0.00    +0.000 C 
ENDBRANCH  15  17
ENDBRANCH  14  15
BRANCH  14  18
ATOM     18  C   UNL     1       7.228   5.991  18.159  0.00  0.00    +0.000 C 
BRANCH  18  19
ATOM     19  C   UNL     1       7.482   7.251  17.318  0.00  0.00    +0.000 C 
ATOM     20  C   UNL     1       8.201   8.327  18.124  0.00  0.00    +0.000 C 
ENDBRANCH  18  19
ENDBRANCH  14  18
ENDBRANCH   1  14
TORSDOF 6
ENDMDL
MODEL 5
REMARK VINA RESULT:      -7.0      1.624      3.120
REMARK  Name = 
REMARK  9 active torsions:
REMARK  status: ('A' for Active; 'I' for Inactive)
REMARK    1  A    between atoms: C_1  and  C_2
REMARK    2  A    between atoms: C_2  and  C_3
REMARK    3  A    between atoms: C_3  and  N_4
REMARK    4  A    between atoms: N_4  and  C_5
REMARK    5  A    between atoms: N_4  and  C_8
REMARK    6  A    between atoms: C_5  and  C_6
REMARK    7  A    between atoms: C_6  and  C_7
REMARK    8  A    between atoms: C_11  and  O_12
REMARK    9  A    between atoms: C_18  and  C_19
REMARK                            x       y       z     vdW  Elec       q    Type
REMARK                         _______ _______ _______ _____ _____    ______ ____
ROOT
ATOM      1  C   UNL     1       4.849   4.589  16.534  0.00  0.00    +0.000 C 
ATOM      2  C   UNL     1       4.605   3.263  17.358  0.00  0.00    +0.000 C 
ATOM      3  C   UNL     1       3.309   3.134  18.120  0.00  0.00    +0.000 A 
ATOM      4  C   UNL     1       2.875   1.908  18.655  0.00  0.00    +0.000 A 
ATOM      5  C   UNL     1       1.662   1.794  19.331  0.00  0.00    +0.000 A 
ATOM      6  C   UNL     1       0.856   2.913  19.504  0.00  0.00    +0.000 A 
ATOM      7  C   UNL     1       1.278   4.141  19.008  0.00  0.00    +0.000 A 
ATOM      8  C   UNL     1       2.505   4.262  18.333  0.00  0.00    +0.000 A 
ATOM      9  C   UNL     1       2.900   5.601  17.799  0.00  0.00    +0.000 C 
ATOM     10  C   UNL     1       4.409   5.768  17.489  0.00  0.00    +0.000 C 
ATOM     11  C   UNL     1       4.524   7.224  17.021  0.00  0.00    +0.000 C 
ENDROOT
BRANCH   4  12
ATOM     12  O   UNL     1       3.595   0.752  18.549  0.00  0.00    +0.000 OA
ATOM     13  H   UNL     1       4.482   0.894  18.912  0.00  0.00    +0.000 HD
ENDBRANCH   4  12
BRANCH   1  14
ATOM     14  N   UNL     1       6.252   4.546  15.969  0.00  0.00    +0.000 NA
BRANCH  14  15
ATOM     15  C   UNL     1       6.271   4.860  14.514  0.00  0.00    +0.000 C 
BRANCH  15  17
ATOM     16  C   UNL     1       6.489   3.591  12.300  0.00  0.00    +0.000 C 
ATOM     17  C   UNL     1       5.650   3.833  13.547  0.00  0.00    +0.000 C 
ENDBRANCH  15  17
ENDBRANCH  14  15
BRANCH  14  18
ATOM     18  C   UNL     1       7.254   5.357  16.683  0.00  0.00    +0.000 C 
BRANCH  18  19
ATOM     19  C   UNL     1       7.811   4.769  17.989  0.00  0.00    +0.000 C 
ATOM     20  C   UNL     1       7.785   5.793  19.118  0.00  0.00    +0.000 C 
ENDBRANCH  18  19
ENDBRANCH  14  18
ENDBRANCH   1  14
TORSDOF 6
ENDMDL
MODEL 6
REMARK VINA RESULT:      -6.7      2.488      3.853
REMARK  Name = 
REMARK  9 active torsions:
REMARK  status: ('A' for Active; 'I' for Inactive)
REMARK    1  A    between atoms: C_1  and  C_2
REMARK    2  A    between atoms: C_2  and  C_3
REMARK    3  A    between atoms: C_3  and  N_4
REMARK    4  A    between atoms: N_4  and  C_5
REMARK    5  A    between atoms: N_4  and  C_8
REMARK    6  A    between atoms: C_5  and  C_6
REMARK    7  A    between atoms: C_6  and  C_7
REMARK    8  A    between atoms: C_11  and  O_12
REMARK    9  A    between atoms: C_18  and  C_19
REMARK                            x       y       z     vdW  Elec       q    Type
REMARK                         _______ _______ _______ _____ _____    ______ ____
ROOT
ATOM      1  C   UNL     1       4.633   6.165  17.897  0.00  0.00    +0.000 C 
ATOM      2  C   UNL     1       3.644   7.328  17.493  0.00  0.00    +0.000 C 
ATOM      3  C   UNL     1       2.646   7.796  18.523  0.00  0.00    +0.000 A 
ATOM      4  C   UNL     1       1.914   8.987  18.370  0.00  0.00    +0.000 A 
ATOM      5  C   UNL     1       1.016   9.423  19.342  0.00  0.00    +0.000 A 
ATOM      6  C   UNL     1       0.815   8.668  20.490  0.00  0.00    +0.000 A 
ATOM      7  C   UNL     1       1.507   7.472  20.651  0.00  0.00    +0.000 A 
ATOM      8  C   UNL     1       2.407   7.023  19.668  0.00  0.00    +0.000 A 
ATOM      9  C   UNL     1       3.143   5.744  19.902  0.00  0.00    +0.000 C 
ATOM     10  C   UNL     1       3.743   5.088  18.633  0.00  0.00    +0.000 C 
ATOM     11  C   UNL     1       4.373   3.792  19.159  0.00  0.00    +0.000 C 
ENDROOT
BRANCH   4  12
ATOM     12  O   UNL     1       2.030   9.797  17.276  0.00  0.00    +0.000 OA
ATOM     13  H   UNL     1       1.520  10.607  17.424  0.00  0.00    +0.000 HD
ENDBRANCH   4  12
BRANCH   1  14
ATOM     14  N   UNL     1       5.441   5.782  16.676  0.00  0.00    +0.000 NA
BRANCH  14  15
ATOM     15  C   UNL     1       6.891   5.657  16.990  0.00  0.00    +0.000 C 
BRANCH  15  17
ATOM     16  C   UNL     1       7.768   7.980  17.616  0.00  0.00    +0.000 C 
ATOM     17  C   UNL     1       7.471   6.565  18.091  0.00  0.00    +0.000 C 
ENDBRANCH  15  17
ENDBRANCH  14  15
BRANCH  14  18
ATOM     18  C   UNL     1       4.969   4.594  15.943  0.00  0.00    +0.000 C 
BRANCH  18  19
ATOM     19  C   UNL     1       6.041   3.756  15.229  0.00  0.00    +0.000 C 
ATOM     20  C   UNL     1       6.082   4.056  13.735  0.00  0.00    +0.000 C 
ENDBRANCH  18  19
ENDBRANCH  14  18
ENDBRANCH   1  14
TORSDOF 6
ENDMDL
MODEL 7
REMARK VINA RESULT:      -6.5      2.231      4.318
REMARK  Name = 
REMARK  9 active torsions:
REMARK  status: ('A' for Active; 'I' for Inactive)
REMARK    1  A    between atoms: C_1  and  C_2
REMARK    2  A    between atoms: C_2  and  C_3
REMARK    3  A    between atoms: C_3  and  N_4
REMARK    4  A    between atoms: N_4  and  C_5
REMARK    5  A    between atoms: N_4  and  C_8
REMARK    6  A    between atoms: C_5  and  C_6
REMARK    7  A    between atoms: C_6  and  C_7
REMARK    8  A    between atoms: C_11  and  O_12
REMARK    9  A    between atoms: C_18  and  C_19
REMARK                            x       y       z     vdW  Elec       q    Type
REMARK                         _______ _______ _______ _____ _____    ______ ____
ROOT
ATOM      1  C   UNL     1       4.709   5.179  18.318  0.00  0.00    +0.000 C 
ATOM      2  C   UNL     1       3.888   6.401  17.745  0.00  0.00    +0.000 C 
ATOM      3  C   UNL     1       2.877   7.059  18.652  0.00  0.00    +0.000 A 
ATOM      4  C   UNL     1       2.296   8.302  18.347  0.00  0.00    +0.000 A 
ATOM      5  C   UNL     1       1.385   8.915  19.206  0.00  0.00    +0.000 A 
ATOM      6  C   UNL     1       1.020   8.287  20.391  0.00  0.00    +0.000 A 
ATOM      7  C   UNL     1       1.561   7.044  20.701  0.00  0.00    +0.000 A 
ATOM      8  C   UNL     1       2.472   6.419  19.832  0.00  0.00    +0.000 A 
ATOM      9  C   UNL     1       3.042   5.094  20.224  0.00  0.00    +0.000 C 
ATOM     10  C   UNL     1       3.654   4.271  19.063  0.00  0.00    +0.000 C 
ATOM     11  C   UNL     1       4.096   2.967  19.738  0.00  0.00    +0.000 C 
ENDROOT
BRANCH   4  12
ATOM     12  O   UNL     1       2.579   8.997  17.205  0.00  0.00    +0.000 OA
ATOM     13  H   UNL     1       2.472   9.945  17.374  0.00  0.00    +0.000 HD
ENDBRANCH   4  12
BRANCH   1  14
ATOM     14  N   UNL     1       5.553   4.608  17.200  0.00  0.00    +0.000 NA
BRANCH  14  15
ATOM     15  C   UNL     1       5.148   5.146  15.872  0.00  0.00    +0.000 C 
BRANCH  15  17
ATOM     16  C   UNL     1       6.045   3.903  13.819  0.00  0.00    +0.000 C 
ATOM     17  C   UNL     1       6.186   5.112  14.733  0.00  0.00    +0.000 C 
ENDBRANCH  15  17
ENDBRANCH  14  15
BRANCH  14  18
ATOM     18  C   UNL     1       7.011   4.721  17.377  0.00  0.00    +0.000 C 
BRANCH  18  19
ATOM     19  C   UNL     1       7.502   5.744  18.413  0.00  0.00    +0.000 C 
ATOM     20  C   UNL     1       7.693   7.123  17.791  0.00  0.00    +0.000 C 
ENDBRANCH  18  19
ENDBRANCH  14  18
ENDBRANCH   1  14
TORSDOF 6
ENDMDL
MODEL 8
REMARK VINA RESULT:      -6.5      2.952      5.035
REMARK  Name = 
REMARK  9 active torsions:
REMARK  status: ('A' for Active; 'I' for Inactive)
REMARK    1  A    between atoms: C_1  and  C_2
REMARK    2  A    between atoms: C_2  and  C_3
REMARK    3  A    between atoms: C_3  and  N_4
REMARK    4  A    between atoms: N_4  and  C_5
REMARK    5  A    between atoms: N_4  and  C_8
REMARK    6  A    between atoms: C_5  and  C_6
REMARK    7  A    between atoms: C_6  and  C_7
REMARK    8  A    between atoms: C_11  and  O_12
REMARK    9  A    between atoms: C_18  and  C_19
REMARK                            x       y       z     vdW  Elec       q    Type
REMARK                         _______ _______ _______ _____ _____    ______ ____
ROOT
ATOM      1  C   UNL     1       3.239   5.607  19.189  0.00  0.00    +0.000 C 
ATOM      2  C   UNL     1       2.727   6.839  18.344  0.00  0.00    +0.000 C 
ATOM      3  C   UNL     1       1.978   7.929  19.069  0.00  0.00    +0.000 A 
ATOM      4  C   UNL     1       1.719   9.179  18.479  0.00  0.00    +0.000 A 
ATOM      5  C   UNL     1       1.052  10.190  19.169  0.00  0.00    +0.000 A 
ATOM      6  C   UNL     1       0.610   9.968  20.467  0.00  0.00    +0.000 A 
ATOM      7  C   UNL     1       0.830   8.731  21.062  0.00  0.00    +0.000 A 
ATOM      8  C   UNL     1       1.494   7.706  20.366  0.00  0.00    +0.000 A 
ATOM      9  C   UNL     1       1.726   6.402  21.060  0.00  0.00    +0.000 C 
ATOM     10  C   UNL     1       2.033   5.205  20.126  0.00  0.00    +0.000 C 
ATOM     11  C   UNL     1       2.165   4.019  21.090  0.00  0.00    +0.000 C 
ENDROOT
BRANCH   4  12
ATOM     12  O   UNL     1       2.102   9.496  17.206  0.00  0.00    +0.000 OA
ATOM     13  H   UNL     1       3.009   9.835  17.221  0.00  0.00    +0.000 HD
ENDBRANCH   4  12
BRANCH   1  14
ATOM     14  N   UNL     1       3.838   4.593  18.238  0.00  0.00    +0.000 NA
BRANCH  14  15
ATOM     15  C   UNL     1       2.802   3.977  17.365  0.00  0.00    +0.000 C 
BRANCH  15  17
ATOM     16  C   UNL     1       3.450   1.715  18.376  0.00  0.00    +0.000 C 
ATOM     17  C   UNL     1       2.378   2.526  17.662  0.00  0.00    +0.000 C 
ENDBRANCH  15  17
ENDBRANCH  14  15
BRANCH  14  18
ATOM     18  C   UNL     1       4.976   5.067  17.432  0.00  0.00    +0.000 C 
BRANCH  18  19
ATOM     19  C   UNL     1       5.335   4.233  16.192  0.00  0.00    +0.000 C 
ATOM     20  C   UNL     1       5.611   5.119  14.983  0.00  0.00    +0.000 C 
ENDBRANCH  18  19
ENDBRANCH  14  18
ENDBRANCH   1  14
TORSDOF 6
ENDMDL
MODEL 9
REMARK VINA RESULT:      -6.4      2.999      5.212
REMARK  Name = 
REMARK  9 active torsions:
REMARK  status: ('A' for Active; 'I' for Inactive)
REMARK    1  A    between atoms: C_1  and  C_2
REMARK    2  A    between atoms: C_2  and  C_3
REMARK    3  A    between atoms: C_3  and  N_4
REMARK    4  A    between atoms: N_4  and  C_5
REMARK    5  A    between atoms: N_4  and  C_8
REMARK    6  A    between atoms: C_5  and  C_6
REMARK    7  A    between atoms: C_6  and  C_7
REMARK    8  A    between atoms: C_11  and  O_12
REMARK    9  A    between atoms: C_18  and  C_19
REMARK                            x       y       z     vdW  Elec       q    Type
REMARK                         _______ _______ _______ _____ _____    ______ ____
ROOT
ATOM      1  C   UNL     1       3.244   5.752  19.284  0.00  0.00    +0.000 C 
ATOM      2  C   UNL     1       2.736   6.966  18.411  0.00  0.00    +0.000 C 
ATOM      3  C   UNL     1       1.952   8.054  19.103  0.00  0.00    +0.000 A 
ATOM      4  C   UNL     1       1.691   9.293  18.491  0.00  0.00    +0.000 A 
ATOM      5  C   UNL     1       0.991  10.301  19.152  0.00  0.00    +0.000 A 
ATOM      6  C   UNL     1       0.519  10.088  20.441  0.00  0.00    +0.000 A 
ATOM      7  C   UNL     1       0.742   8.861  21.056  0.00  0.00    +0.000 A 
ATOM      8  C   UNL     1       1.439   7.838  20.390  0.00  0.00    +0.000 A 
ATOM      9  C   UNL     1       1.671   6.547  21.105  0.00  0.00    +0.000 C 
ATOM     10  C   UNL     1       2.019   5.343  20.195  0.00  0.00    +0.000 C 
ATOM     11  C   UNL     1       2.143   4.170  21.175  0.00  0.00    +0.000 C 
ENDROOT
BRANCH   4  12
ATOM     12  O   UNL     1       2.102   9.600  17.225  0.00  0.00    +0.000 OA
ATOM     13  H   UNL     1       3.061   9.743  17.227  0.00  0.00    +0.000 HD
ENDBRANCH   4  12
BRANCH   1  14
ATOM     14  N   UNL     1       3.882   4.736  18.362  0.00  0.00    +0.000 NA
BRANCH  14  15
ATOM     15  C   UNL     1       2.901   4.180  17.390  0.00  0.00    +0.000 C 
BRANCH  15  17
ATOM     16  C   UNL     1       3.487   1.873  18.337  0.00  0.00    +0.000 C 
ATOM     17  C   UNL     1       2.483   2.706  17.552  0.00  0.00    +0.000 C 
ENDBRANCH  15  17
ENDBRANCH  14  15
BRANCH  14  18
ATOM     18  C   UNL     1       5.100   5.182  17.664  0.00  0.00    +0.000 C 
BRANCH  18  19
ATOM     19  C   UNL     1       6.389   5.243  18.498  0.00  0.00    +0.000 C 
ATOM     20  C   UNL     1       7.578   4.675  17.733  0.00  0.00    +0.000 C 
ENDBRANCH  18  19
ENDBRANCH  14  18
ENDBRANCH   1  14
TORSDOF 6
ENDMDL
