MODEL 1
REMARK VINA RESULT:      -9.2      0.000      0.000
REMARK  Name = 
REMARK  10 active torsions:
REMARK  status: ('A' for Active; 'I' for Inactive)
REMARK    1  A    between atoms: C_1  and  O_2
REMARK    2  A    between atoms: O_2  and  C_3
REMARK    3  A    between atoms: C_3  and  C_4
REMARK    4  A    between atoms: C_4  and  C_5
REMARK    5  A    between atoms: C_5  and  N_6
REMARK    6  A    between atoms: C_5  and  C_20
REMARK    7  A    between atoms: N_6  and  C_7
REMARK    8  A    between atoms: C_12  and  C_13
REMARK    9  A    between atoms: C_24  and  N_25
REMARK   10  A    between atoms: C_26  and  C_28
REMARK                            x       y       z     vdW  Elec       q    Type
REMARK                         _______ _______ _______ _____ _____    ______ ____
ROOT
ATOM      1  C   UNL     1       5.897   5.811  15.953  0.00  0.00    +0.000 C 
ENDROOT
BRANCH   1   2
ATOM      2  C   UNL     1       6.670   6.326  17.186  0.00  0.00    +0.000 C 
ATOM      3  C   UNL     1       6.998   5.542  18.232  0.00  0.00    +0.000 C 
ATOM      4  C   UNL     1       7.786   6.038  19.404  0.00  0.00    +0.000 C 
ATOM      5  C   UNL     1       8.621   7.291  19.112  0.00  0.00    +0.000 C 
ATOM      6  C   UNL     1       8.042   8.196  18.044  0.00  0.00    +0.000 C 
ATOM      7  C   UNL     1       7.102   7.728  17.196  0.00  0.00    +0.000 C 
BRANCH   6   8
ATOM      8  N   UNL     1       8.510   9.498  17.915  0.00  0.00    +0.000 N 
ATOM      9  C   UNL     1       9.131  10.266  18.894  0.00  0.00    +0.000 C 
ATOM     10  O   UNL     1       9.354   9.897  20.045  0.00  0.00    +0.000 OA
ATOM     11  H   UNL     1       8.419   9.918  16.995  0.00  0.00    +0.000 HD
BRANCH   9  12
ATOM     12  C   UNL     1       9.573  11.643  18.522  0.00  0.00    +0.000 A 
ATOM     13  C   UNL     1       8.624  12.522  17.967  0.00  0.00    +0.000 A 
ATOM     14  C   UNL     1       8.977  13.831  17.627  0.00  0.00    +0.000 A 
ATOM     15  C   UNL     1      10.280  14.263  17.840  0.00  0.00    +0.000 A 
ATOM     16  F   UNL     1      10.618  15.519  17.523  0.00  0.00    +0.000 F 
ATOM     17  C   UNL     1      11.236  13.412  18.379  0.00  0.00    +0.000 A 
ATOM     18  C   UNL     1      10.877  12.108  18.717  0.00  0.00    +0.000 A 
ATOM     19  F   UNL     1      11.822  11.312  19.239  0.00  0.00    +0.000 F 
ENDBRANCH   9  12
ENDBRANCH   6   8
ENDBRANCH   1   2
BRANCH   1  20
ATOM     20  N   UNL     1       4.452   5.810  16.286  0.00  0.00    +0.000 N 
ATOM     21  H   UNL     1       3.895   5.791  15.435  0.00  0.00    +0.000 HD
BRANCH  20  22
ATOM     22  C   UNL     1       3.939   4.805  17.136  0.00  0.00    +0.000 A 
ATOM     23  N   UNL     1       4.166   3.523  16.822  0.00  0.00    +0.000 NA
ATOM     24  C   UNL     1       3.684   2.610  17.666  0.00  0.00    +0.000 A 
ATOM     25  N   UNL     1       3.048   2.847  18.820  0.00  0.00    +0.000 NA
ATOM     26  C   UNL     1       2.815   4.133  19.164  0.00  0.00    +0.000 A 
ATOM     27  C   UNL     1       2.178   4.483  20.379  0.00  0.00    +0.000 A 
ATOM     28  C   UNL     1       1.880   5.822  20.689  0.00  0.00    +0.000 A 
ATOM     29  C   UNL     1       2.216   6.836  19.809  0.00  0.00    +0.000 A 
ATOM     30  C   UNL     1       2.889   6.517  18.634  0.00  0.00    +0.000 A 
ATOM     31  C   UNL     1       3.212   5.177  18.300  0.00  0.00    +0.000 A 
BRANCH  27  32
ATOM     32  C   UNL     1       1.795   3.487  21.429  0.00  0.00    +0.000 C 
ATOM     33  N   UNL     1       0.777   2.615  21.165  0.00  0.00    +0.000 N 
ATOM     34  O   UNL     1       2.391   3.420  22.501  0.00  0.00    +0.000 OA
ATOM     35  H   UNL     1       0.270   2.660  20.293  0.00  0.00    +0.000 HD
ATOM     36  H   UNL     1       0.541   1.920  21.859  0.00  0.00    +0.000 HD
ENDBRANCH  27  32
ENDBRANCH  20  22
ENDBRANCH   1  20
BRANCH   1  37
ATOM     37  C   UNL     1       6.393   4.391  15.579  0.00  0.00    +0.000 C 
BRANCH  37  38
ATOM     38  C   UNL     1       6.801   4.295  14.102  0.00  0.00    +0.000 C 
BRANCH  38  40
ATOM     39  C   UNL     1       6.289   3.379  12.001  0.00  0.00    +0.000 C 
ATOM     40  O   UNL     1       5.996   3.349  13.398  0.00  0.00    +0.000 OA
ENDBRANCH  38  40
ENDBRANCH  37  38
ENDBRANCH   1  37
TORSDOF 9
ENDMDL
MODEL 2
REMARK VINA RESULT:      -8.8      1.545      2.263
REMARK  Name = 
REMARK  10 active torsions:
REMARK  status: ('A' for Active; 'I' for Inactive)
REMARK    1  A    between atoms: C_1  and  O_2
REMARK    2  A    between atoms: O_2  and  C_3
REMARK    3  A    between atoms: C_3  and  C_4
REMARK    4  A    between atoms: C_4  and  C_5
REMARK    5  A    between atoms: C_5  and  N_6
REMARK    6  A    between atoms: C_5  and  C_20
REMARK    7  A    between atoms: N_6  and  C_7
REMARK    8  A    between atoms: C_12  and  C_13
REMARK    9  A    between atoms: C_24  and  N_25
REMARK   10  A    between atoms: C_26  and  C_28
REMARK                            x       y       z     vdW  Elec       q    Type
REMARK                         _______ _______ _______ _____ _____    ______ ____
ROOT
ATOM      1  C   UNL     1       6.166   5.800  15.682  0.00  0.00    +0.000 C 
ENDROOT
BRANCH   1   2
ATOM      2  C   UNL     1       6.690   5.900  17.131  0.00  0.00    +0.000 C 
ATOM      3  C   UNL     1       6.577   4.901  18.028  0.00  0.00    +0.000 C 
ATOM      4  C   UNL     1       7.126   4.989  19.417  0.00  0.00    +0.000 C 
ATOM      5  C   UNL     1       8.243   6.027  19.583  0.00  0.00    +0.000 C 
ATOM      6  C   UNL     1       8.149   7.208  18.640  0.00  0.00    +0.000 C 
ATOM      7  C   UNL     1       7.380   7.131  17.533  0.00  0.00    +0.000 C 
BRANCH   6   8
ATOM      8  N   UNL     1       8.887   8.357  18.895  0.00  0.00    +0.000 N 
ATOM      9  C   UNL     1       8.647   9.634  18.400  0.00  0.00    +0.000 C 
ATOM     10  O   UNL     1       7.730   9.936  17.640  0.00  0.00    +0.000 OA
ATOM     11  H   UNL     1       9.663   8.257  19.542  0.00  0.00    +0.000 HD
BRANCH   9  12
ATOM     12  C   UNL     1       9.565  10.731  18.830  0.00  0.00    +0.000 A 
ATOM     13  C   UNL     1      10.227  11.476  17.835  0.00  0.00    +0.000 A 
ATOM     14  C   UNL     1      11.074  12.531  18.181  0.00  0.00    +0.000 A 
ATOM     15  C   UNL     1      11.262  12.845  19.521  0.00  0.00    +0.000 A 
ATOM     16  F   UNL     1      12.068  13.861  19.853  0.00  0.00    +0.000 F 
ATOM     17  C   UNL     1      10.627  12.120  20.521  0.00  0.00    +0.000 A 
ATOM     18  C   UNL     1       9.782  11.069  20.168  0.00  0.00    +0.000 A 
ATOM     19  F   UNL     1       9.178  10.390  21.157  0.00  0.00    +0.000 F 
ENDBRANCH   9  12
ENDBRANCH   6   8
ENDBRANCH   1   2
BRANCH   1  20
ATOM     20  N   UNL     1       4.756   5.344  15.735  0.00  0.00    +0.000 N 
ATOM     21  H   UNL     1       4.691   4.367  15.457  0.00  0.00    +0.000 HD
BRANCH  20  22
ATOM     22  C   UNL     1       4.030   5.479  16.939  0.00  0.00    +0.000 A 
ATOM     23  N   UNL     1       3.776   6.710  17.400  0.00  0.00    +0.000 NA
ATOM     24  C   UNL     1       3.067   6.789  18.526  0.00  0.00    +0.000 A 
ATOM     25  N   UNL     1       2.537   5.767  19.210  0.00  0.00    +0.000 NA
ATOM     26  C   UNL     1       2.771   4.515  18.760  0.00  0.00    +0.000 A 
ATOM     27  C   UNL     1       2.229   3.373  19.397  0.00  0.00    +0.000 A 
ATOM     28  C   UNL     1       2.539   2.074  18.958  0.00  0.00    +0.000 A 
ATOM     29  C   UNL     1       3.382   1.882  17.878  0.00  0.00    +0.000 A 
ATOM     30  C   UNL     1       3.884   2.991  17.206  0.00  0.00    +0.000 A 
ATOM     31  C   UNL     1       3.580   4.314  17.619  0.00  0.00    +0.000 A 
BRANCH  27  32
ATOM     32  C   UNL     1       1.278   3.443  20.551  0.00  0.00    +0.000 C 
ATOM     33  N   UNL     1       0.394   4.484  20.610  0.00  0.00    +0.000 N 
ATOM     34  O   UNL     1       1.257   2.578  21.422  0.00  0.00    +0.000 OA
ATOM     35  H   UNL     1       0.401   5.209  19.907  0.00  0.00    +0.000 HD
ATOM     36  H   UNL     1      -0.271   4.514  21.369  0.00  0.00    +0.000 HD
ENDBRANCH  27  32
ENDBRANCH  20  22
ENDBRANCH   1  20
BRANCH   1  37
ATOM     37  C   UNL     1       7.049   4.814  14.873  0.00  0.00    +0.000 C 
BRANCH  37  38
ATOM     38  C   UNL     1       6.272   3.558  14.456  0.00  0.00    +0.000 C 
BRANCH  38  40
ATOM     39  C   UNL     1       6.625   3.937  12.165  0.00  0.00    +0.000 C 
ATOM     40  O   UNL     1       5.646   3.729  13.184  0.00  0.00    +0.000 OA
ENDBRANCH  38  40
ENDBRANCH  37  38
ENDBRANCH   1  37
TORSDOF 9
ENDMDL
MODEL 3
REMARK VINA RESULT:      -8.7      2.197      2.854
REMARK  Name = 
REMARK  10 active torsions:
REMARK  status: ('A' for Active; 'I' for Inactive)
REMARK    1  A    between atoms: C_1  and  O_2
REMARK    2  A    between atoms: O_2  and  C_3
REMARK    3  A    between atoms: C_3  and  C_4
REMARK    4  A    between atoms: C_4  and  C_5
REMARK    5  A    between atoms: C_5  and  N_6
REMARK    6  A    between atoms: C_5  and  C_20
REMARK    7  A    between atoms: N_6  and  C_7
REMARK    8  A    between atoms: C_12  and  C_13
REMARK    9  A    between atoms: C_24  and  N_25
REMARK   10  A    between atoms: C_26  and  C_28
REMARK                            x       y       z     vdW  Elec       q    Type
REMARK                         _______ _______ _______ _____ _____    ______ ____
ROOT
ATOM      1  C   UNL     1       4.662   6.117  16.755  0.00  0.00    +0.000 C 
ENDROOT
BRANCH   1   2
ATOM      2  C   UNL     1       5.853   6.375  17.702  0.00  0.00    +0.000 C 
ATOM      3  C   UNL     1       6.292   5.471  18.600  0.00  0.00    +0.000 C 
ATOM      4  C   UNL     1       7.474   5.711  19.485  0.00  0.00    +0.000 C 
ATOM      5  C   UNL     1       8.441   6.779  18.960  0.00  0.00    +0.000 C 
ATOM      6  C   UNL     1       7.790   7.856  18.116  0.00  0.00    +0.000 C 
ATOM      7  C   UNL     1       6.565   7.653  17.587  0.00  0.00    +0.000 C 
BRANCH   6   8
ATOM      8  N   UNL     1       8.473   9.038  17.857  0.00  0.00    +0.000 N 
ATOM      9  C   UNL     1       8.923   9.966  18.790  0.00  0.00    +0.000 C 
ATOM     10  O   UNL     1       8.771   9.877  20.006  0.00  0.00    +0.000 OA
ATOM     11  H   UNL     1       8.697   9.223  16.884  0.00  0.00    +0.000 HD
BRANCH   9  12
ATOM     12  C   UNL     1       9.659  11.163  18.281  0.00  0.00    +0.000 A 
ATOM     13  C   UNL     1      11.066  11.143  18.311  0.00  0.00    +0.000 A 
ATOM     14  C   UNL     1      11.805  12.223  17.822  0.00  0.00    +0.000 A 
ATOM     15  C   UNL     1      11.139  13.325  17.302  0.00  0.00    +0.000 A 
ATOM     16  F   UNL     1      11.845  14.358  16.824  0.00  0.00    +0.000 F 
ATOM     17  C   UNL     1       9.751  13.372  17.268  0.00  0.00    +0.000 A 
ATOM     18  C   UNL     1       9.021  12.290  17.757  0.00  0.00    +0.000 A 
ATOM     19  F   UNL     1       7.682  12.362  17.707  0.00  0.00    +0.000 F 
ENDBRANCH   9  12
ENDBRANCH   6   8
ENDBRANCH   1   2
BRANCH   1  20
ATOM     20  N   UNL     1       3.756   5.144  17.411  0.00  0.00    +0.000 N 
ATOM     21  H   UNL     1       4.262   4.291  17.639  0.00  0.00    +0.000 HD
BRANCH  20  22
ATOM     22  C   UNL     1       3.053   5.528  18.574  0.00  0.00    +0.000 A 
ATOM     23  N   UNL     1       2.961   4.656  19.586  0.00  0.00    +0.000 NA
ATOM     24  C   UNL     1       2.309   5.071  20.672  0.00  0.00    +0.000 A 
ATOM     25  N   UNL     1       1.788   6.288  20.874  0.00  0.00    +0.000 NA
ATOM     26  C   UNL     1       1.876   7.189  19.872  0.00  0.00    +0.000 A 
ATOM     27  C   UNL     1       1.382   8.510  20.002  0.00  0.00    +0.000 A 
ATOM     28  C   UNL     1       1.418   9.414  18.926  0.00  0.00    +0.000 A 
ATOM     29  C   UNL     1       1.950   9.032  17.707  0.00  0.00    +0.000 A 
ATOM     30  C   UNL     1       2.488   7.756  17.574  0.00  0.00    +0.000 A 
ATOM     31  C   UNL     1       2.475   6.825  18.646  0.00  0.00    +0.000 A 
BRANCH  27  32
ATOM     32  C   UNL     1       0.813   9.059  21.274  0.00  0.00    +0.000 C 
ATOM     33  N   UNL     1      -0.419   8.630  21.681  0.00  0.00    +0.000 N 
ATOM     34  O   UNL     1       1.439   9.856  21.968  0.00  0.00    +0.000 OA
ATOM     35  H   UNL     1      -0.952   7.980  21.120  0.00  0.00    +0.000 HD
ATOM     36  H   UNL     1      -0.787   8.972  22.556  0.00  0.00    +0.000 HD
ENDBRANCH  27  32
ENDBRANCH  20  22
ENDBRANCH   1  20
BRANCH   1  37
ATOM     37  C   UNL     1       5.179   5.581  15.395  0.00  0.00    +0.000 C 
BRANCH  37  38
ATOM     38  C   UNL     1       6.657   5.172  15.465  0.00  0.00    +0.000 C 
BRANCH  38  40
ATOM     39  C   UNL     1       6.352   3.988  13.459  0.00  0.00    +0.000 C 
ATOM     40  O   UNL     1       7.187   4.907  14.165  0.00  0.00    +0.000 OA
ENDBRANCH  38  40
ENDBRANCH  37  38
ENDBRANCH   1  37
TORSDOF 9
ENDMDL
MODEL 4
REMARK VINA RESULT:      -8.7      1.643      2.315
REMARK  Name = 
REMARK  10 active torsions:
REMARK  status: ('A' for Active; 'I' for Inactive)
REMARK    1  A    between atoms: C_1  and  O_2
REMARK    2  A    between atoms: O_2  and  C_3
REMARK    3  A    between atoms: C_3  and  C_4
REMARK    4  A    between atoms: C_4  and  C_5
REMARK    5  A    between atoms: C_5  and  N_6
REMARK    6  A    between atoms: C_5  and  C_20
REMARK    7  A    between atoms: N_6  and  C_7
REMARK    8  A    between atoms: C_12  and  C_13
REMARK    9  A    between atoms: C_24  and  N_25
REMARK   10  A    between atoms: C_26  and  C_28
REMARK                            x       y       z     vdW  Elec       q    Type
REMARK                         _______ _______ _______ _____ _____    ______ ____
ROOT
ATOM      1  C   UNL     1       6.327   5.842  15.685  0.00  0.00    +0.000 C 
ENDROOT
BRANCH   1   2
ATOM      2  C   UNL     1       6.850   5.877  17.137  0.00  0.00    +0.000 C 
ATOM      3  C   UNL     1       6.827   4.806  17.956  0.00  0.00    +0.000 C 
ATOM      4  C   UNL     1       7.375   4.835  19.348  0.00  0.00    +0.000 C 
ATOM      5  C   UNL     1       8.403   5.947  19.592  0.00  0.00    +0.000 C 
ATOM      6  C   UNL     1       8.205   7.184  18.741  0.00  0.00    +0.000 C 
ATOM      7  C   UNL     1       7.437   7.127  17.632  0.00  0.00    +0.000 C 
BRANCH   6   8
ATOM      8  N   UNL     1       8.846   8.368  19.083  0.00  0.00    +0.000 N 
ATOM      9  C   UNL     1       8.650   9.622  18.513  0.00  0.00    +0.000 C 
ATOM     10  O   UNL     1       7.868   9.867  17.597  0.00  0.00    +0.000 OA
ATOM     11  H   UNL     1       9.501   8.316  19.857  0.00  0.00    +0.000 HD
BRANCH   9  12
ATOM     12  C   UNL     1       9.440  10.766  19.059  0.00  0.00    +0.000 A 
ATOM     13  C   UNL     1       9.203  11.166  20.388  0.00  0.00    +0.000 A 
ATOM     14  C   UNL     1       9.933  12.212  20.958  0.00  0.00    +0.000 A 
ATOM     15  C   UNL     1      10.901  12.860  20.202  0.00  0.00    +0.000 A 
ATOM     16  F   UNL     1      11.608  13.857  20.749  0.00  0.00    +0.000 F 
ATOM     17  C   UNL     1      11.148  12.489  18.887  0.00  0.00    +0.000 A 
ATOM     18  C   UNL     1      10.416  11.444  18.324  0.00  0.00    +0.000 A 
ATOM     19  F   UNL     1      10.680  11.105  17.053  0.00  0.00    +0.000 F 
ENDBRANCH   9  12
ENDBRANCH   6   8
ENDBRANCH   1   2
BRANCH   1  20
ATOM     20  N   UNL     1       4.868   5.579  15.729  0.00  0.00    +0.000 N 
ATOM     21  H   UNL     1       4.667   4.650  15.367  0.00  0.00    +0.000 HD
BRANCH  20  22
ATOM     22  C   UNL     1       4.180   5.701  16.957  0.00  0.00    +0.000 A 
ATOM     23  N   UNL     1       3.930   6.927  17.432  0.00  0.00    +0.000 NA
ATOM     24  C   UNL     1       3.257   6.994  18.581  0.00  0.00    +0.000 A 
ATOM     25  N   UNL     1       2.758   5.963  19.275  0.00  0.00    +0.000 NA
ATOM     26  C   UNL     1       2.989   4.715  18.811  0.00  0.00    +0.000 A 
ATOM     27  C   UNL     1       2.477   3.565  19.458  0.00  0.00    +0.000 A 
ATOM     28  C   UNL     1       2.785   2.271  19.002  0.00  0.00    +0.000 A 
ATOM     29  C   UNL     1       3.595   2.092  17.894  0.00  0.00    +0.000 A 
ATOM     30  C   UNL     1       4.065   3.211  17.214  0.00  0.00    +0.000 A 
ATOM     31  C   UNL     1       3.762   4.528  17.644  0.00  0.00    +0.000 A 
BRANCH  27  32
ATOM     32  C   UNL     1       1.563   3.620  20.643  0.00  0.00    +0.000 C 
ATOM     33  N   UNL     1       2.031   3.190  21.853  0.00  0.00    +0.000 N 
ATOM     34  O   UNL     1       0.423   4.068  20.556  0.00  0.00    +0.000 OA
ATOM     35  H   UNL     1       2.963   2.811  21.942  0.00  0.00    +0.000 HD
ATOM     36  H   UNL     1       1.427   3.260  22.659  0.00  0.00    +0.000 HD
ENDBRANCH  27  32
ENDBRANCH  20  22
ENDBRANCH   1  20
BRANCH   1  37
ATOM     37  C   UNL     1       7.076   4.746  14.884  0.00  0.00    +0.000 C 
BRANCH  37  38
ATOM     38  C   UNL     1       6.118   3.904  14.030  0.00  0.00    +0.000 C 
BRANCH  38  40
ATOM     39  C   UNL     1       5.736   2.929  11.928  0.00  0.00    +0.000 C 
ATOM     40  O   UNL     1       6.563   3.820  12.676  0.00  0.00    +0.000 OA
ENDBRANCH  38  40
ENDBRANCH  37  38
ENDBRANCH   1  37
TORSDOF 9
ENDMDL
MODEL 5
REMARK VINA RESULT:      -8.6      7.054     10.357
REMARK  Name = 
REMARK  10 active torsions:
REMARK  status: ('A' for Active; 'I' for Inactive)
REMARK    1  A    between atoms: C_1  and  O_2
REMARK    2  A    between atoms: O_2  and  C_3
REMARK    3  A    between atoms: C_3  and  C_4
REMARK    4  A    between atoms: C_4  and  C_5
REMARK    5  A    between atoms: C_5  and  N_6
REMARK    6  A    between atoms: C_5  and  C_20
REMARK    7  A    between atoms: N_6  and  C_7
REMARK    8  A    between atoms: C_12  and  C_13
REMARK    9  A    between atoms: C_24  and  N_25
REMARK   10  A    between atoms: C_26  and  C_28
REMARK                            x       y       z     vdW  Elec       q    Type
REMARK                         _______ _______ _______ _____ _____    ______ ____
ROOT
ATOM      1  C   UNL     1       0.484  12.650  20.666  0.00  0.00    +0.000 C 
ENDROOT
BRANCH   1   2
ATOM      2  C   UNL     1       0.391  11.228  21.262  0.00  0.00    +0.000 C 
ATOM      3  C   UNL     1      -0.416  10.911  22.294  0.00  0.00    +0.000 C 
ATOM      4  C   UNL     1      -0.532   9.522  22.838  0.00  0.00    +0.000 C 
ATOM      5  C   UNL     1      -0.105   8.426  21.852  0.00  0.00    +0.000 C 
ATOM      6  C   UNL     1       0.956   8.855  20.859  0.00  0.00    +0.000 C 
ATOM      7  C   UNL     1       1.193  10.166  20.645  0.00  0.00    +0.000 C 
BRANCH   6   8
ATOM      8  N   UNL     1       1.657   7.894  20.141  0.00  0.00    +0.000 N 
ATOM      9  C   UNL     1       1.893   7.879  18.770  0.00  0.00    +0.000 C 
ATOM     10  O   UNL     1       1.498   8.730  17.977  0.00  0.00    +0.000 OA
ATOM     11  H   UNL     1       2.072   7.142  20.683  0.00  0.00    +0.000 HD
BRANCH   9  12
ATOM     12  C   UNL     1       2.697   6.750  18.214  0.00  0.00    +0.000 A 
ATOM     13  C   UNL     1       2.153   5.453  18.269  0.00  0.00    +0.000 A 
ATOM     14  C   UNL     1       2.850   4.364  17.738  0.00  0.00    +0.000 A 
ATOM     15  C   UNL     1       4.093   4.571  17.153  0.00  0.00    +0.000 A 
ATOM     16  F   UNL     1       4.759   3.530  16.636  0.00  0.00    +0.000 F 
ATOM     17  C   UNL     1       4.654   5.839  17.093  0.00  0.00    +0.000 A 
ATOM     18  C   UNL     1       3.952   6.921  17.624  0.00  0.00    +0.000 A 
ATOM     19  F   UNL     1       4.518   8.135  17.548  0.00  0.00    +0.000 F 
ENDBRANCH   9  12
ENDBRANCH   6   8
ENDBRANCH   1   2
BRANCH   1  20
ATOM     20  N   UNL     1      -0.386  12.701  19.466  0.00  0.00    +0.000 N 
ATOM     21  H   UNL     1      -0.156  11.939  18.832  0.00  0.00    +0.000 HD
BRANCH  20  22
ATOM     22  C   UNL     1      -1.789  12.693  19.627  0.00  0.00    +0.000 A 
ATOM     23  N   UNL     1      -2.340  13.552  20.494  0.00  0.00    +0.000 NA
ATOM     24  C   UNL     1      -3.668  13.526  20.595  0.00  0.00    +0.000 A 
ATOM     25  N   UNL     1      -4.509  12.769  19.878  0.00  0.00    +0.000 NA
ATOM     26  C   UNL     1      -3.978  11.901  18.990  0.00  0.00    +0.000 A 
ATOM     27  C   UNL     1      -4.786  11.081  18.165  0.00  0.00    +0.000 A 
ATOM     28  C   UNL     1      -4.219  10.133  17.296  0.00  0.00    +0.000 A 
ATOM     29  C   UNL     1      -2.845   9.985  17.220  0.00  0.00    +0.000 A 
ATOM     30  C   UNL     1      -2.033  10.817  17.984  0.00  0.00    +0.000 A 
ATOM     31  C   UNL     1      -2.577  11.790  18.862  0.00  0.00    +0.000 A 
BRANCH  27  32
ATOM     32  C   UNL     1      -6.281  11.166  18.125  0.00  0.00    +0.000 C 
ATOM     33  N   UNL     1      -7.009  10.232  18.806  0.00  0.00    +0.000 N 
ATOM     34  O   UNL     1      -6.859  12.066  17.523  0.00  0.00    +0.000 OA
ATOM     35  H   UNL     1      -6.552   9.479  19.301  0.00  0.00    +0.000 HD
ATOM     36  H   UNL     1      -8.016  10.308  18.809  0.00  0.00    +0.000 HD
ENDBRANCH  27  32
ENDBRANCH  20  22
ENDBRANCH   1  20
BRANCH   1  37
ATOM     37  C   UNL     1       1.957  12.975  20.312  0.00  0.00    +0.000 C 
BRANCH  37  38
ATOM     38  C   UNL     1       2.510  14.131  21.156  0.00  0.00    +0.000 C 
BRANCH  38  40
ATOM     39  C   UNL     1       4.267  14.876  22.524  0.00  0.00    +0.000 C 
ATOM     40  O   UNL     1       3.722  13.763  21.816  0.00  0.00    +0.000 OA
ENDBRANCH  38  40
ENDBRANCH  37  38
ENDBRANCH   1  37
TORSDOF 9
ENDMDL
MODEL 6
REMARK VINA RESULT:      -8.5      5.133      8.390
REMARK  Name = 
REMARK  10 active torsions:
REMARK  status: ('A' for Active; 'I' for Inactive)
REMARK    1  A    between atoms: C_1  and  O_2
REMARK    2  A    between atoms: O_2  and  C_3
REMARK    3  A    between atoms: C_3  and  C_4
REMARK    4  A    between atoms: C_4  and  C_5
REMARK    5  A    between atoms: C_5  and  N_6
REMARK    6  A    between atoms: C_5  and  C_20
REMARK    7  A    between atoms: N_6  and  C_7
REMARK    8  A    between atoms: C_12  and  C_13
REMARK    9  A    between atoms: C_24  and  N_25
REMARK   10  A    between atoms: C_26  and  C_28
REMARK                            x       y       z     vdW  Elec       q    Type
REMARK                         _______ _______ _______ _____ _____    ______ ____
ROOT
ATOM      1  C   UNL     1       2.552   5.585  20.319  0.00  0.00    +0.000 C 
ENDROOT
BRANCH   1   2
ATOM      2  C   UNL     1       2.393   6.918  19.557  0.00  0.00    +0.000 C 
ATOM      3  C   UNL     1       2.721   7.071  18.259  0.00  0.00    +0.000 C 
ATOM      4  C   UNL     1       2.523   8.354  17.515  0.00  0.00    +0.000 C 
ATOM      5  C   UNL     1       1.475   9.283  18.140  0.00  0.00    +0.000 C 
ATOM      6  C   UNL     1       1.335   9.152  19.642  0.00  0.00    +0.000 C 
ATOM      7  C   UNL     1       1.816   8.061  20.274  0.00  0.00    +0.000 C 
BRANCH   6   8
ATOM      8  N   UNL     1       0.677  10.140  20.364  0.00  0.00    +0.000 N 
ATOM      9  C   UNL     1      -0.621  10.600  20.163  0.00  0.00    +0.000 C 
ATOM     10  O   UNL     1      -1.387  10.194  19.293  0.00  0.00    +0.000 OA
ATOM     11  H   UNL     1       1.188  10.543  21.143  0.00  0.00    +0.000 HD
BRANCH   9  12
ATOM     12  C   UNL     1      -1.132  11.661  21.081  0.00  0.00    +0.000 A 
ATOM     13  C   UNL     1      -1.528  12.892  20.523  0.00  0.00    +0.000 A 
ATOM     14  C   UNL     1      -2.041  13.910  21.332  0.00  0.00    +0.000 A 
ATOM     15  C   UNL     1      -2.158  13.700  22.699  0.00  0.00    +0.000 A 
ATOM     16  F   UNL     1      -2.657  14.671  23.475  0.00  0.00    +0.000 F 
ATOM     17  C   UNL     1      -1.767  12.498  23.275  0.00  0.00    +0.000 A 
ATOM     18  C   UNL     1      -1.257  11.486  22.462  0.00  0.00    +0.000 A 
ATOM     19  F   UNL     1      -0.893  10.335  23.046  0.00  0.00    +0.000 F 
ENDBRANCH   9  12
ENDBRANCH   6   8
ENDBRANCH   1   2
BRANCH   1  20
ATOM     20  N   UNL     1       3.947   5.116  20.134  0.00  0.00    +0.000 N 
ATOM     21  H   UNL     1       4.189   4.440  20.854  0.00  0.00    +0.000 HD
BRANCH  20  22
ATOM     22  C   UNL     1       4.328   4.553  18.896  0.00  0.00    +0.000 A 
ATOM     23  N   UNL     1       3.644   3.499  18.432  0.00  0.00    +0.000 NA
ATOM     24  C   UNL     1       4.024   3.017  17.249  0.00  0.00    +0.000 A 
ATOM     25  N   UNL     1       4.980   3.513  16.454  0.00  0.00    +0.000 NA
ATOM     26  C   UNL     1       5.679   4.583  16.895  0.00  0.00    +0.000 A 
ATOM     27  C   UNL     1       6.687   5.197  16.113  0.00  0.00    +0.000 A 
ATOM     28  C   UNL     1       7.453   6.264  16.614  0.00  0.00    +0.000 A 
ATOM     29  C   UNL     1       7.228   6.749  17.891  0.00  0.00    +0.000 A 
ATOM     30  C   UNL     1       6.207   6.194  18.655  0.00  0.00    +0.000 A 
ATOM     31  C   UNL     1       5.412   5.123  18.172  0.00  0.00    +0.000 A 
BRANCH  27  32
ATOM     32  C   UNL     1       7.005   4.792  14.707  0.00  0.00    +0.000 C 
ATOM     33  N   UNL     1       6.359   3.712  14.174  0.00  0.00    +0.000 N 
ATOM     34  O   UNL     1       7.805   5.422  14.020  0.00  0.00    +0.000 OA
ATOM     35  H   UNL     1       5.704   3.177  14.726  0.00  0.00    +0.000 HD
ATOM     36  H   UNL     1       6.547   3.460  13.214  0.00  0.00    +0.000 HD
ENDBRANCH  27  32
ENDBRANCH  20  22
ENDBRANCH   1  20
BRANCH   1  37
ATOM     37  C   UNL     1       1.531   4.549  19.783  0.00  0.00    +0.000 C 
BRANCH  37  38
ATOM     38  C   UNL     1       1.223   3.458  20.818  0.00  0.00    +0.000 C 
BRANCH  38  40
ATOM     39  C   UNL     1       0.616   2.453  18.784  0.00  0.00    +0.000 C 
ATOM     40  O   UNL     1       0.756   2.263  20.192  0.00  0.00    +0.000 OA
ENDBRANCH  38  40
ENDBRANCH  37  38
ENDBRANCH   1  37
TORSDOF 9
ENDMDL
MODEL 7
REMARK VINA RESULT:      -8.5      5.096      8.503
REMARK  Name = 
REMARK  10 active torsions:
REMARK  status: ('A' for Active; 'I' for Inactive)
REMARK    1  A    between atoms: C_1  and  O_2
REMARK    2  A    between atoms: O_2  and  C_3
REMARK    3  A    between atoms: C_3  and  C_4
REMARK    4  A    between atoms: C_4  and  C_5
REMARK    5  A    between atoms: C_5  and  N_6
REMARK    6  A    between atoms: C_5  and  C_20
REMARK    7  A    between atoms: N_6  and  C_7
REMARK    8  A    between atoms: C_12  and  C_13
REMARK    9  A    between atoms: C_24  and  N_25
REMARK   10  A    between atoms: C_26  and  C_28
REMARK                            x       y       z     vdW  Elec       q    Type
REMARK                         _______ _______ _______ _____ _____    ______ ____
ROOT
ATOM      1  C   UNL     1       2.421   5.650  20.094  0.00  0.00    +0.000 C 
ENDROOT
BRANCH   1   2
ATOM      2  C   UNL     1       2.306   7.032  19.415  0.00  0.00    +0.000 C 
ATOM      3  C   UNL     1       2.680   7.262  18.141  0.00  0.00    +0.000 C 
ATOM      4  C   UNL     1       2.525   8.593  17.475  0.00  0.00    +0.000 C 
ATOM      5  C   UNL     1       1.469   9.497  18.124  0.00  0.00    +0.000 C 
ATOM      6  C   UNL     1       1.277   9.272  19.609  0.00  0.00    +0.000 C 
ATOM      7  C   UNL     1       1.721   8.135  20.185  0.00  0.00    +0.000 C 
BRANCH   6   8
ATOM      8  N   UNL     1       0.607  10.222  20.370  0.00  0.00    +0.000 N 
ATOM      9  C   UNL     1      -0.663  10.738  20.138  0.00  0.00    +0.000 C 
ATOM     10  O   UNL     1      -1.391  10.427  19.199  0.00  0.00    +0.000 OA
ATOM     11  H   UNL     1       1.085  10.546  21.206  0.00  0.00    +0.000 HD
BRANCH   9  12
ATOM     12  C   UNL     1      -1.195  11.742  21.109  0.00  0.00    +0.000 A 
ATOM     13  C   UNL     1      -1.283  11.376  22.465  0.00  0.00    +0.000 A 
ATOM     14  C   UNL     1      -1.747  12.285  23.420  0.00  0.00    +0.000 A 
ATOM     15  C   UNL     1      -2.123  13.561  23.020  0.00  0.00    +0.000 A 
ATOM     16  F   UNL     1      -2.559  14.436  23.935  0.00  0.00    +0.000 F 
ATOM     17  C   UNL     1      -2.052  13.943  21.687  0.00  0.00    +0.000 A 
ATOM     18  C   UNL     1      -1.588  13.031  20.740  0.00  0.00    +0.000 A 
ATOM     19  F   UNL     1      -1.527  13.431  19.461  0.00  0.00    +0.000 F 
ENDBRANCH   9  12
ENDBRANCH   6   8
ENDBRANCH   1   2
BRANCH   1  20
ATOM     20  N   UNL     1       3.829   5.198  19.977  0.00  0.00    +0.000 N 
ATOM     21  H   UNL     1       4.056   4.555  20.732  0.00  0.00    +0.000 HD
BRANCH  20  22
ATOM     22  C   UNL     1       4.264   4.595  18.777  0.00  0.00    +0.000 A 
ATOM     23  N   UNL     1       3.643   3.486  18.355  0.00  0.00    +0.000 NA
ATOM     24  C   UNL     1       4.071   2.965  17.205  0.00  0.00    +0.000 A 
ATOM     25  N   UNL     1       5.018   3.469  16.403  0.00  0.00    +0.000 NA
ATOM     26  C   UNL     1       5.654   4.593  16.803  0.00  0.00    +0.000 A 
ATOM     27  C   UNL     1       6.647   5.217  16.010  0.00  0.00    +0.000 A 
ATOM     28  C   UNL     1       7.348   6.345  16.470  0.00  0.00    +0.000 A 
ATOM     29  C   UNL     1       7.073   6.881  17.717  0.00  0.00    +0.000 A 
ATOM     30  C   UNL     1       6.065   6.313  18.489  0.00  0.00    +0.000 A 
ATOM     31  C   UNL     1       5.333   5.181  18.046  0.00  0.00    +0.000 A 
BRANCH  27  32
ATOM     32  C   UNL     1       7.015   4.759  14.632  0.00  0.00    +0.000 C 
ATOM     33  N   UNL     1       6.391   3.656  14.120  0.00  0.00    +0.000 N 
ATOM     34  O   UNL     1       7.836   5.365  13.949  0.00  0.00    +0.000 OA
ATOM     35  H   UNL     1       5.719   3.140  14.669  0.00  0.00    +0.000 HD
ATOM     36  H   UNL     1       6.612   3.368  13.178  0.00  0.00    +0.000 HD
ENDBRANCH  27  32
ENDBRANCH  20  22
ENDBRANCH   1  20
BRANCH   1  37
ATOM     37  C   UNL     1       1.448   4.651  19.418  0.00  0.00    +0.000 C 
BRANCH  37  38
ATOM     38  C   UNL     1       0.757   3.741  20.442  0.00  0.00    +0.000 C 
BRANCH  38  40
ATOM     39  C   UNL     1       2.223   2.485  21.780  0.00  0.00    +0.000 C 
ATOM     40  O   UNL     1       1.444   2.497  20.583  0.00  0.00    +0.000 OA
ENDBRANCH  38  40
ENDBRANCH  37  38
ENDBRANCH   1  37
TORSDOF 9
ENDMDL
MODEL 8
REMARK VINA RESULT:      -8.5      5.398      8.647
REMARK  Name = 
REMARK  10 active torsions:
REMARK  status: ('A' for Active; 'I' for Inactive)
REMARK    1  A    between atoms: C_1  and  O_2
REMARK    2  A    between atoms: O_2  and  C_3
REMARK    3  A    between atoms: C_3  and  C_4
REMARK    4  A    between atoms: C_4  and  C_5
REMARK    5  A    between atoms: C_5  and  N_6
REMARK    6  A    between atoms: C_5  and  C_20
REMARK    7  A    between atoms: N_6  and  C_7
REMARK    8  A    between atoms: C_12  and  C_13
REMARK    9  A    between atoms: C_24  and  N_25
REMARK   10  A    between atoms: C_26  and  C_28
REMARK                            x       y       z     vdW  Elec       q    Type
REMARK                         _______ _______ _______ _____ _____    ______ ____
ROOT
ATOM      1  C   UNL     1       2.438   5.814  20.159  0.00  0.00    +0.000 C 
ENDROOT
BRANCH   1   2
ATOM      2  C   UNL     1       2.197   7.227  19.586  0.00  0.00    +0.000 C 
ATOM      3  C   UNL     1       2.628   7.614  18.369  0.00  0.00    +0.000 C 
ATOM      4  C   UNL     1       2.353   8.971  17.803  0.00  0.00    +0.000 C 
ATOM      5  C   UNL     1       1.149   9.681  18.435  0.00  0.00    +0.000 C 
ATOM      6  C   UNL     1       0.883   9.302  19.877  0.00  0.00    +0.000 C 
ATOM      7  C   UNL     1       1.425   8.179  20.393  0.00  0.00    +0.000 C 
BRANCH   6   8
ATOM      8  N   UNL     1       0.048  10.093  20.656  0.00  0.00    +0.000 N 
ATOM      9  C   UNL     1      -0.060  11.479  20.628  0.00  0.00    +0.000 C 
ATOM     10  O   UNL     1       0.590  12.223  19.897  0.00  0.00    +0.000 OA
ATOM     11  H   UNL     1      -0.576   9.600  21.288  0.00  0.00    +0.000 HD
BRANCH   9  12
ATOM     12  C   UNL     1      -1.048  12.120  21.546  0.00  0.00    +0.000 A 
ATOM     13  C   UNL     1      -1.541  13.395  21.212  0.00  0.00    +0.000 A 
ATOM     14  C   UNL     1      -2.488  14.029  22.021  0.00  0.00    +0.000 A 
ATOM     15  C   UNL     1      -2.944  13.388  23.166  0.00  0.00    +0.000 A 
ATOM     16  F   UNL     1      -3.858  13.990  23.938  0.00  0.00    +0.000 F 
ATOM     17  C   UNL     1      -2.468  12.133  23.521  0.00  0.00    +0.000 A 
ATOM     18  C   UNL     1      -1.523  11.507  22.709  0.00  0.00    +0.000 A 
ATOM     19  F   UNL     1      -1.086  10.293  23.076  0.00  0.00    +0.000 F 
ENDBRANCH   9  12
ENDBRANCH   6   8
ENDBRANCH   1   2
BRANCH   1  20
ATOM     20  N   UNL     1       3.862   5.465  19.934  0.00  0.00    +0.000 N 
ATOM     21  H   UNL     1       4.205   4.882  20.694  0.00  0.00    +0.000 HD
BRANCH  20  22
ATOM     22  C   UNL     1       4.237   4.834  18.728  0.00  0.00    +0.000 A 
ATOM     23  N   UNL     1       3.523   3.783  18.305  0.00  0.00    +0.000 NA
ATOM     24  C   UNL     1       3.899   3.234  17.150  0.00  0.00    +0.000 A 
ATOM     25  N   UNL     1       4.880   3.662  16.344  0.00  0.00    +0.000 NA
ATOM     26  C   UNL     1       5.609   4.727  16.745  0.00  0.00    +0.000 A 
ATOM     27  C   UNL     1       6.646   5.271  15.948  0.00  0.00    +0.000 A 
ATOM     28  C   UNL     1       7.441   6.334  16.409  0.00  0.00    +0.000 A 
ATOM     29  C   UNL     1       7.220   6.884  17.660  0.00  0.00    +0.000 A 
ATOM     30  C   UNL     1       6.173   6.398  18.436  0.00  0.00    +0.000 A 
ATOM     31  C   UNL     1       5.347   5.333  17.993  0.00  0.00    +0.000 A 
BRANCH  27  32
ATOM     32  C   UNL     1       6.965   4.791  14.566  0.00  0.00    +0.000 C 
ATOM     33  N   UNL     1       6.300   3.701  14.080  0.00  0.00    +0.000 N 
ATOM     34  O   UNL     1       7.783   5.370  13.856  0.00  0.00    +0.000 OA
ATOM     35  H   UNL     1       5.629   3.207  14.652  0.00  0.00    +0.000 HD
ATOM     36  H   UNL     1       6.489   3.398  13.135  0.00  0.00    +0.000 HD
ENDBRANCH  27  32
ENDBRANCH  20  22
ENDBRANCH   1  20
BRANCH   1  37
ATOM     37  C   UNL     1       1.491   4.800  19.467  0.00  0.00    +0.000 C 
BRANCH  37  38
ATOM     38  C   UNL     1       1.001   3.717  20.438  0.00  0.00    +0.000 C 
BRANCH  38  40
ATOM     39  C   UNL     1       2.680   2.516  21.558  0.00  0.00    +0.000 C 
ATOM     40  O   UNL     1       1.819   3.654  21.607  0.00  0.00    +0.000 OA
ENDBRANCH  38  40
ENDBRANCH  37  38
ENDBRANCH   1  37
TORSDOF 9
ENDMDL
MODEL 9
REMARK VINA RESULT:      -8.4      5.302      8.747
REMARK  Name = 
REMARK  10 active torsions:
REMARK  status: ('A' for Active; 'I' for Inactive)
REMARK    1  A    between atoms: C_1  and  O_2
REMARK    2  A    between atoms: O_2  and  C_3
REMARK    3  A    between atoms: C_3  and  C_4
REMARK    4  A    between atoms: C_4  and  C_5
REMARK    5  A    between atoms: C_5  and  N_6
REMARK    6  A    between atoms: C_5  and  C_20
REMARK    7  A    between atoms: N_6  and  C_7
REMARK    8  A    between atoms: C_12  and  C_13
REMARK    9  A    between atoms: C_24  and  N_25
REMARK   10  A    between atoms: C_26  and  C_28
REMARK                            x       y       z     vdW  Elec       q    Type
REMARK                         _______ _______ _______ _____ _____    ______ ____
ROOT
ATOM      1  C   UNL     1       2.234   5.762  20.427  0.00  0.00    +0.000 C 
ENDROOT
BRANCH   1   2
ATOM      2  C   UNL     1       2.071   7.141  19.752  0.00  0.00    +0.000 C 
ATOM      3  C   UNL     1       2.696   7.480  18.607  0.00  0.00    +0.000 C 
ATOM      4  C   UNL     1       2.499   8.803  17.935  0.00  0.00    +0.000 C 
ATOM      5  C   UNL     1       1.194   9.512  18.319  0.00  0.00    +0.000 C 
ATOM      6  C   UNL     1       0.694   9.194  19.712  0.00  0.00    +0.000 C 
ATOM      7  C   UNL     1       1.159   8.110  20.368  0.00  0.00    +0.000 C 
BRANCH   6   8
ATOM      8  N   UNL     1      -0.274  10.000  20.299  0.00  0.00    +0.000 N 
ATOM      9  C   UNL     1      -0.060  11.121  21.094  0.00  0.00    +0.000 C 
ATOM     10  O   UNL     1       1.042  11.567  21.406  0.00  0.00    +0.000 OA
ATOM     11  H   UNL     1      -1.240   9.764  20.094  0.00  0.00    +0.000 HD
BRANCH   9  12
ATOM     12  C   UNL     1      -1.259  11.853  21.602  0.00  0.00    +0.000 A 
ATOM     13  C   UNL     1      -1.657  11.637  22.936  0.00  0.00    +0.000 A 
ATOM     14  C   UNL     1      -2.755  12.316  23.471  0.00  0.00    +0.000 A 
ATOM     15  C   UNL     1      -3.457  13.212  22.675  0.00  0.00    +0.000 A 
ATOM     16  F   UNL     1      -4.504  13.870  23.189  0.00  0.00    +0.000 F 
ATOM     17  C   UNL     1      -3.089  13.436  21.355  0.00  0.00    +0.000 A 
ATOM     18  C   UNL     1      -1.992  12.755  20.828  0.00  0.00    +0.000 A 
ATOM     19  F   UNL     1      -1.658  12.997  19.551  0.00  0.00    +0.000 F 
ENDBRANCH   9  12
ENDBRANCH   6   8
ENDBRANCH   1   2
BRANCH   1  20
ATOM     20  N   UNL     1       3.608   5.277  20.153  0.00  0.00    +0.000 N 
ATOM     21  H   UNL     1       3.878   4.576  20.840  0.00  0.00    +0.000 HD
BRANCH  20  22
ATOM     22  C   UNL     1       3.913   4.745  18.881  0.00  0.00    +0.000 A 
ATOM     23  N   UNL     1       3.020   3.939  18.292  0.00  0.00    +0.000 NA
ATOM     24  C   UNL     1       3.340   3.481  17.082  0.00  0.00    +0.000 A 
ATOM     25  N   UNL     1       4.435   3.788  16.375  0.00  0.00    +0.000 NA
ATOM     26  C   UNL     1       5.347   4.607  16.944  0.00  0.00    +0.000 A 
ATOM     27  C   UNL     1       6.521   5.013  16.264  0.00  0.00    +0.000 A 
ATOM     28  C   UNL     1       7.494   5.808  16.895  0.00  0.00    +0.000 A 
ATOM     29  C   UNL     1       7.319   6.222  18.204  0.00  0.00    +0.000 A 
ATOM     30  C   UNL     1       6.149   5.877  18.872  0.00  0.00    +0.000 A 
ATOM     31  C   UNL     1       5.145   5.085  18.257  0.00  0.00    +0.000 A 
BRANCH  27  32
ATOM     32  C   UNL     1       6.814   4.664  14.838  0.00  0.00    +0.000 C 
ATOM     33  N   UNL     1       7.636   5.483  14.117  0.00  0.00    +0.000 N 
ATOM     34  O   UNL     1       6.357   3.650  14.316  0.00  0.00    +0.000 OA
ATOM     35  H   UNL     1       8.015   6.326  14.526  0.00  0.00    +0.000 HD
ATOM     36  H   UNL     1       7.862   5.230  13.166  0.00  0.00    +0.000 HD
ENDBRANCH  27  32
ENDBRANCH  20  22
ENDBRANCH   1  20
BRANCH   1  37
ATOM     37  C   UNL     1       1.167   4.780  19.878  0.00  0.00    +0.000 C 
BRANCH  37  38
ATOM     38  C   UNL     1       1.055   3.514  20.738  0.00  0.00    +0.000 C 
BRANCH  38  40
ATOM     39  C   UNL     1       2.807   2.253  21.665  0.00  0.00    +0.000 C 
ATOM     40  O   UNL     1       2.069   3.473  21.743  0.00  0.00    +0.000 OA
ENDBRANCH  38  40
ENDBRANCH  37  38
ENDBRANCH   1  37
TORSDOF 9
ENDMDL
