MODEL 1
REMARK VINA RESULT:      -6.3      0.000      0.000
REMARK  Name = 
REMARK  8 active torsions:
REMARK  status: ('A' for Active; 'I' for Inactive)
REMARK    1  A    between atoms: C_2  and  C_20
REMARK    2  A    between atoms: N_3  and  C_4
REMARK    3  A    between atoms: N_10  and  C_11
REMARK    4  A    between atoms: C_11  and  C_12
REMARK    5  A    between atoms: C_12  and  N_13
REMARK    6  A    between atoms: N_13  and  C_14
REMARK    7  A    between atoms: C_14  and  C_15
REMARK    8  A    between atoms: C_15  and  O_16
REMARK                            x       y       z     vdW  Elec       q    Type
REMARK                         _______ _______ _______ _____ _____    ______ ____
ROOT
ATOM      1  C   UNL     1       1.679   9.513  17.954  0.00  0.00    +0.000 A 
ATOM      2  C   UNL     1       2.482  10.644  18.074  0.00  0.00    +0.000 A 
ATOM      3  C   UNL     1       1.934  11.872  18.459  0.00  0.00    +0.000 A 
ATOM      4  C   UNL     1       0.570  11.978  18.774  0.00  0.00    +0.000 A 
ATOM      5  C   UNL     1      -0.270  10.854  18.638  0.00  0.00    +0.000 A 
ATOM      6  C   UNL     1       0.304   9.662  18.159  0.00  0.00    +0.000 A 
ATOM      7  N   UNL     1      -1.619  10.830  19.024  0.00  0.00    +0.000 N 
ATOM      8  C   UNL     1      -2.048  11.855  19.976  0.00  0.00    +0.000 C 
ATOM      9  C   UNL     1      -1.791  13.260  19.453  0.00  0.00    +0.000 C 
ATOM     10  S   UNL     1      -0.007  13.589  19.313  0.00  0.00    +0.000 S 
ENDROOT
BRANCH   1  13
ATOM     11  N   UNL     1       2.300   7.467  19.840  0.00  0.00    +0.000 N 
ATOM     12  C   UNL     1       2.522   7.351  18.482  0.00  0.00    +0.000 C 
ATOM     13  N   UNL     1       2.267   8.285  17.606  0.00  0.00    +0.000 NA
ATOM     14  H   UNL     1       2.333   8.409  20.205  0.00  0.00    +0.000 HD
ATOM     15  H   UNL     1       2.792   6.793  20.415  0.00  0.00    +0.000 HD
BRANCH  12  16
ATOM     16  C   UNL     1       3.102   6.117  17.936  0.00  0.00    +0.000 A 
ATOM     17  C   UNL     1       2.568   4.842  17.913  0.00  0.00    +0.000 A 
ATOM     18  C   UNL     1       3.434   3.897  17.294  0.00  0.00    +0.000 A 
ATOM     19  C   UNL     1       4.607   4.476  16.864  0.00  0.00    +0.000 A 
ATOM     20  S   UNL     1       4.651   6.150  17.195  0.00  0.00    +0.000 S 
ENDBRANCH  12  16
ENDBRANCH   1  13
BRANCH   7  21
ATOM     21  C   UNL     1      -2.597  10.343  18.034  0.00  0.00    +0.000 C 
BRANCH  21  22
ATOM     22  C   UNL     1      -3.373  11.524  17.409  0.00  0.00    +0.000 C 
BRANCH  22  23
ATOM     23  N   UNL     1      -3.168  11.604  15.951  0.00  0.00    +0.000 NA
ATOM     24  H   UNL     1      -2.409  12.266  15.777  0.00  0.00    +0.000 HD
BRANCH  23  25
ATOM     25  C   UNL     1      -2.756  10.292  15.421  0.00  0.00    +0.000 C 
BRANCH  25  26
ATOM     26  C   UNL     1      -3.419   9.995  14.071  0.00  0.00    +0.000 C 
BRANCH  26  27
ATOM     27  O   UNL     1      -2.437   9.784  13.061  0.00  0.00    +0.000 OA
ATOM     28  H   UNL     1      -2.007   8.937  13.280  0.00  0.00    +0.000 HD
ENDBRANCH  26  27
ENDBRANCH  25  26
ENDBRANCH  23  25
ENDBRANCH  22  23
ENDBRANCH  21  22
ENDBRANCH   7  21
TORSDOF 8
ENDMDL
MODEL 2
REMARK VINA RESULT:      -6.2      3.667      8.403
REMARK  Name = 
REMARK  8 active torsions:
REMARK  status: ('A' for Active; 'I' for Inactive)
REMARK    1  A    between atoms: C_2  and  C_20
REMARK    2  A    between atoms: N_3  and  C_4
REMARK    3  A    between atoms: N_10  and  C_11
REMARK    4  A    between atoms: C_11  and  C_12
REMARK    5  A    between atoms: C_12  and  N_13
REMARK    6  A    between atoms: N_13  and  C_14
REMARK    7  A    between atoms: C_14  and  C_15
REMARK    8  A    between atoms: C_15  and  O_16
REMARK                            x       y       z     vdW  Elec       q    Type
REMARK                         _______ _______ _______ _____ _____    ______ ____
ROOT
ATOM      1  C   UNL     1       2.017   7.589  19.831  0.00  0.00    +0.000 A 
ATOM      2  C   UNL     1       1.298   6.730  20.658  0.00  0.00    +0.000 A 
ATOM      3  C   UNL     1       1.624   5.371  20.734  0.00  0.00    +0.000 A 
ATOM      4  C   UNL     1       2.710   4.856  20.008  0.00  0.00    +0.000 A 
ATOM      5  C   UNL     1       3.440   5.699  19.146  0.00  0.00    +0.000 A 
ATOM      6  C   UNL     1       3.021   7.037  19.030  0.00  0.00    +0.000 A 
ATOM      7  N   UNL     1       4.600   5.307  18.461  0.00  0.00    +0.000 N 
ATOM      8  C   UNL     1       5.306   4.136  18.981  0.00  0.00    +0.000 C 
ATOM      9  C   UNL     1       4.413   2.905  19.021  0.00  0.00    +0.000 C 
ATOM     10  S   UNL     1       3.069   3.112  20.232  0.00  0.00    +0.000 S 
ENDROOT
BRANCH   1  13
ATOM     11  N   UNL     1       1.315   9.009  17.460  0.00  0.00    +0.000 N 
ATOM     12  C   UNL     1       1.349   9.582  18.715  0.00  0.00    +0.000 C 
ATOM     13  N   UNL     1       1.691   8.955  19.809  0.00  0.00    +0.000 NA
ATOM     14  H   UNL     1       1.947   8.231  17.321  0.00  0.00    +0.000 HD
ATOM     15  H   UNL     1       1.306   9.664  16.687  0.00  0.00    +0.000 HD
BRANCH  12  16
ATOM     16  C   UNL     1       1.004  11.000  18.884  0.00  0.00    +0.000 A 
ATOM     17  C   UNL     1      -0.136  11.557  19.434  0.00  0.00    +0.000 A 
ATOM     18  C   UNL     1      -0.109  12.980  19.422  0.00  0.00    +0.000 A 
ATOM     19  C   UNL     1       1.049  13.471  18.860  0.00  0.00    +0.000 A 
ATOM     20  S   UNL     1       2.098  12.218  18.366  0.00  0.00    +0.000 S 
ENDBRANCH  12  16
ENDBRANCH   1  13
BRANCH   7  21
ATOM     21  C   UNL     1       4.648   5.564  17.010  0.00  0.00    +0.000 C 
BRANCH  21  22
ATOM     22  C   UNL     1       5.727   6.619  16.678  0.00  0.00    +0.000 C 
BRANCH  22  23
ATOM     23  N   UNL     1       7.033   5.997  16.394  0.00  0.00    +0.000 NA
ATOM     24  H   UNL     1       7.484   5.794  17.288  0.00  0.00    +0.000 HD
BRANCH  23  25
ATOM     25  C   UNL     1       6.846   4.720  15.681  0.00  0.00    +0.000 C 
BRANCH  25  26
ATOM     26  C   UNL     1       6.996   4.894  14.165  0.00  0.00    +0.000 C 
BRANCH  26  27
ATOM     27  O   UNL     1       8.148   5.674  13.858  0.00  0.00    +0.000 OA
ATOM     28  H   UNL     1       8.098   5.858  12.901  0.00  0.00    +0.000 HD
ENDBRANCH  26  27
ENDBRANCH  25  26
ENDBRANCH  23  25
ENDBRANCH  22  23
ENDBRANCH  21  22
ENDBRANCH   7  21
TORSDOF 8
ENDMDL
MODEL 3
REMARK VINA RESULT:      -6.2      4.433      9.056
REMARK  Name = 
REMARK  8 active torsions:
REMARK  status: ('A' for Active; 'I' for Inactive)
REMARK    1  A    between atoms: C_2  and  C_20
REMARK    2  A    between atoms: N_3  and  C_4
REMARK    3  A    between atoms: N_10  and  C_11
REMARK    4  A    between atoms: C_11  and  C_12
REMARK    5  A    between atoms: C_12  and  N_13
REMARK    6  A    between atoms: N_13  and  C_14
REMARK    7  A    between atoms: C_14  and  C_15
REMARK    8  A    between atoms: C_15  and  O_16
REMARK                            x       y       z     vdW  Elec       q    Type
REMARK                         _______ _______ _______ _____ _____    ______ ____
ROOT
ATOM      1  C   UNL     1       2.974   6.455  18.889  0.00  0.00    +0.000 A 
ATOM      2  C   UNL     1       2.362   5.393  18.228  0.00  0.00    +0.000 A 
ATOM      3  C   UNL     1       3.088   4.586  17.346  0.00  0.00    +0.000 A 
ATOM      4  C   UNL     1       4.460   4.806  17.141  0.00  0.00    +0.000 A 
ATOM      5  C   UNL     1       5.099   5.888  17.780  0.00  0.00    +0.000 A 
ATOM      6  C   UNL     1       4.311   6.729  18.587  0.00  0.00    +0.000 A 
ATOM      7  N   UNL     1       6.479   6.130  17.723  0.00  0.00    +0.000 N 
ATOM      8  C   UNL     1       7.329   4.999  17.347  0.00  0.00    +0.000 C 
ATOM      9  C   UNL     1       6.951   4.431  15.987  0.00  0.00    +0.000 C 
ATOM     10  S   UNL     1       5.298   3.670  16.033  0.00  0.00    +0.000 S 
ENDROOT
BRANCH   1  13
ATOM     11  N   UNL     1       1.866   9.009  18.274  0.00  0.00    +0.000 N 
ATOM     12  C   UNL     1       1.708   8.377  19.492  0.00  0.00    +0.000 C 
ATOM     13  N   UNL     1       2.228   7.220  19.801  0.00  0.00    +0.000 NA
ATOM     14  H   UNL     1       2.714   8.779  17.774  0.00  0.00    +0.000 HD
ATOM     15  H   UNL     1       1.650   9.999  18.271  0.00  0.00    +0.000 HD
BRANCH  12  16
ATOM     16  C   UNL     1       0.926   9.020  20.556  0.00  0.00    +0.000 A 
ATOM     17  C   UNL     1       0.356   8.451  21.680  0.00  0.00    +0.000 A 
ATOM     18  C   UNL     1      -0.333   9.402  22.484  0.00  0.00    +0.000 A 
ATOM     19  C   UNL     1      -0.274  10.671  21.950  0.00  0.00    +0.000 A 
ATOM     20  S   UNL     1       0.620  10.709  20.497  0.00  0.00    +0.000 S 
ENDBRANCH  12  16
ENDBRANCH   1  13
BRANCH   7  21
ATOM     21  C   UNL     1       6.914   7.486  17.342  0.00  0.00    +0.000 C 
BRANCH  21  22
ATOM     22  C   UNL     1       8.117   7.934  18.202  0.00  0.00    +0.000 C 
BRANCH  22  23
ATOM     23  N   UNL     1       8.440   9.358  17.994  0.00  0.00    +0.000 NA
ATOM     24  H   UNL     1       7.562   9.860  17.849  0.00  0.00    +0.000 HD
BRANCH  23  25
ATOM     25  C   UNL     1       9.087   9.915  19.196  0.00  0.00    +0.000 C 
BRANCH  25  26
ATOM     26  C   UNL     1       9.917  11.160  18.864  0.00  0.00    +0.000 C 
BRANCH  26  27
ATOM     27  O   UNL     1       9.079  12.305  18.732  0.00  0.00    +0.000 OA
ATOM     28  H   UNL     1       8.776  12.309  17.805  0.00  0.00    +0.000 HD
ENDBRANCH  26  27
ENDBRANCH  25  26
ENDBRANCH  23  25
ENDBRANCH  22  23
ENDBRANCH  21  22
ENDBRANCH   7  21
TORSDOF 8
ENDMDL
MODEL 4
REMARK VINA RESULT:      -6.1      3.708      8.475
REMARK  Name = 
REMARK  8 active torsions:
REMARK  status: ('A' for Active; 'I' for Inactive)
REMARK    1  A    between atoms: C_2  and  C_20
REMARK    2  A    between atoms: N_3  and  C_4
REMARK    3  A    between atoms: N_10  and  C_11
REMARK    4  A    between atoms: C_11  and  C_12
REMARK    5  A    between atoms: C_12  and  N_13
REMARK    6  A    between atoms: N_13  and  C_14
REMARK    7  A    between atoms: C_14  and  C_15
REMARK    8  A    between atoms: C_15  and  O_16
REMARK                            x       y       z     vdW  Elec       q    Type
REMARK                         _______ _______ _______ _____ _____    ______ ____
ROOT
ATOM      1  C   UNL     1       1.901   7.491  20.076  0.00  0.00    +0.000 A 
ATOM      2  C   UNL     1       1.191   6.484  20.723  0.00  0.00    +0.000 A 
ATOM      3  C   UNL     1       1.612   5.152  20.650  0.00  0.00    +0.000 A 
ATOM      4  C   UNL     1       2.785   4.810  19.957  0.00  0.00    +0.000 A 
ATOM      5  C   UNL     1       3.510   5.807  19.274  0.00  0.00    +0.000 A 
ATOM      6  C   UNL     1       3.001   7.119  19.297  0.00  0.00    +0.000 A 
ATOM      7  N   UNL     1       4.744   5.588  18.643  0.00  0.00    +0.000 N 
ATOM      8  C   UNL     1       5.496   4.406  19.066  0.00  0.00    +0.000 C 
ATOM      9  C   UNL     1       4.698   3.125  18.872  0.00  0.00    +0.000 C 
ATOM     10  S   UNL     1       3.257   3.080  19.984  0.00  0.00    +0.000 S 
ENDROOT
BRANCH   1  13
ATOM     11  N   UNL     1       1.208   9.147  17.860  0.00  0.00    +0.000 N 
ATOM     12  C   UNL     1       1.140   9.559  19.176  0.00  0.00    +0.000 C 
ATOM     13  N   UNL     1       1.476   8.825  20.203  0.00  0.00    +0.000 NA
ATOM     14  H   UNL     1       1.902   8.439  17.664  0.00  0.00    +0.000 HD
ATOM     15  H   UNL     1       1.186   9.893  17.174  0.00  0.00    +0.000 HD
BRANCH  12  16
ATOM     16  C   UNL     1       0.682  10.917  19.498  0.00  0.00    +0.000 A 
ATOM     17  C   UNL     1       0.840  12.082  18.770  0.00  0.00    +0.000 A 
ATOM     18  C   UNL     1       0.255  13.211  19.412  0.00  0.00    +0.000 A 
ATOM     19  C   UNL     1      -0.328  12.877  20.614  0.00  0.00    +0.000 A 
ATOM     20  S   UNL     1      -0.182  11.210  20.953  0.00  0.00    +0.000 S 
ENDBRANCH  12  16
ENDBRANCH   1  13
BRANCH   7  21
ATOM     21  C   UNL     1       4.879   6.039  17.246  0.00  0.00    +0.000 C 
BRANCH  21  22
ATOM     22  C   UNL     1       6.248   6.722  17.024  0.00  0.00    +0.000 C 
BRANCH  22  23
ATOM     23  N   UNL     1       7.129   5.915  16.160  0.00  0.00    +0.000 NA
ATOM     24  H   UNL     1       7.841   5.484  16.753  0.00  0.00    +0.000 HD
BRANCH  23  25
ATOM     25  C   UNL     1       6.361   4.833  15.517  0.00  0.00    +0.000 C 
BRANCH  25  26
ATOM     26  C   UNL     1       6.792   4.624  14.060  0.00  0.00    +0.000 C 
BRANCH  26  27
ATOM     27  O   UNL     1       6.359   3.353  13.583  0.00  0.00    +0.000 OA
ATOM     28  H   UNL     1       6.085   3.496  12.658  0.00  0.00    +0.000 HD
ENDBRANCH  26  27
ENDBRANCH  25  26
ENDBRANCH  23  25
ENDBRANCH  22  23
ENDBRANCH  21  22
ENDBRANCH   7  21
TORSDOF 8
ENDMDL
MODEL 5
REMARK VINA RESULT:      -6.1      3.898      8.515
REMARK  Name = 
REMARK  8 active torsions:
REMARK  status: ('A' for Active; 'I' for Inactive)
REMARK    1  A    between atoms: C_2  and  C_20
REMARK    2  A    between atoms: N_3  and  C_4
REMARK    3  A    between atoms: N_10  and  C_11
REMARK    4  A    between atoms: C_11  and  C_12
REMARK    5  A    between atoms: C_12  and  N_13
REMARK    6  A    between atoms: N_13  and  C_14
REMARK    7  A    between atoms: C_14  and  C_15
REMARK    8  A    between atoms: C_15  and  O_16
REMARK                            x       y       z     vdW  Elec       q    Type
REMARK                         _______ _______ _______ _____ _____    ______ ____
ROOT
ATOM      1  C   UNL     1       1.917   7.445  19.986  0.00  0.00    +0.000 A 
ATOM      2  C   UNL     1       1.261   6.538  20.815  0.00  0.00    +0.000 A 
ATOM      3  C   UNL     1       1.634   5.190  20.835  0.00  0.00    +0.000 A 
ATOM      4  C   UNL     1       2.705   4.733  20.050  0.00  0.00    +0.000 A 
ATOM      5  C   UNL     1       3.370   5.625  19.185  0.00  0.00    +0.000 A 
ATOM      6  C   UNL     1       2.904   6.952  19.128  0.00  0.00    +0.000 A 
ATOM      7  N   UNL     1       4.512   5.293  18.442  0.00  0.00    +0.000 N 
ATOM      8  C   UNL     1       5.277   4.131  18.896  0.00  0.00    +0.000 C 
ATOM      9  C   UNL     1       4.427   2.870  18.934  0.00  0.00    +0.000 C 
ATOM     10  S   UNL     1       3.129   2.996  20.204  0.00  0.00    +0.000 S 
ENDROOT
BRANCH   1  13
ATOM     11  N   UNL     1       1.353   8.988  17.656  0.00  0.00    +0.000 N 
ATOM     12  C   UNL     1       1.269   9.483  18.942  0.00  0.00    +0.000 C 
ATOM     13  N   UNL     1       1.547   8.800  20.020  0.00  0.00    +0.000 NA
ATOM     14  H   UNL     1       2.020   8.241  17.522  0.00  0.00    +0.000 HD
ATOM     15  H   UNL     1       1.380   9.690  16.925  0.00  0.00    +0.000 HD
BRANCH  12  16
ATOM     16  C   UNL     1       0.863  10.877  19.168  0.00  0.00    +0.000 A 
ATOM     17  C   UNL     1      -0.259  11.360  19.815  0.00  0.00    +0.000 A 
ATOM     18  C   UNL     1      -0.310  12.783  19.832  0.00  0.00    +0.000 A 
ATOM     19  C   UNL     1       0.773  13.346  19.194  0.00  0.00    +0.000 A 
ATOM     20  S   UNL     1       1.847  12.162  18.594  0.00  0.00    +0.000 S 
ENDBRANCH  12  16
ENDBRANCH   1  13
BRANCH   7  21
ATOM     21  C   UNL     1       4.492   5.595  16.999  0.00  0.00    +0.000 C 
BRANCH  21  22
ATOM     22  C   UNL     1       5.928   5.763  16.456  0.00  0.00    +0.000 C 
BRANCH  22  23
ATOM     23  N   UNL     1       6.425   7.140  16.637  0.00  0.00    +0.000 NA
ATOM     24  H   UNL     1       5.666   7.697  17.036  0.00  0.00    +0.000 HD
BRANCH  23  25
ATOM     25  C   UNL     1       7.548   7.155  17.592  0.00  0.00    +0.000 C 
BRANCH  25  26
ATOM     26  C   UNL     1       8.068   8.578  17.830  0.00  0.00    +0.000 C 
BRANCH  26  27
ATOM     27  O   UNL     1       8.832   8.643  19.030  0.00  0.00    +0.000 OA
ATOM     28  H   UNL     1       9.282   9.508  19.013  0.00  0.00    +0.000 HD
ENDBRANCH  26  27
ENDBRANCH  25  26
ENDBRANCH  23  25
ENDBRANCH  22  23
ENDBRANCH  21  22
ENDBRANCH   7  21
TORSDOF 8
ENDMDL
MODEL 6
REMARK VINA RESULT:      -6.1      3.927      8.659
REMARK  Name = 
REMARK  8 active torsions:
REMARK  status: ('A' for Active; 'I' for Inactive)
REMARK    1  A    between atoms: C_2  and  C_20
REMARK    2  A    between atoms: N_3  and  C_4
REMARK    3  A    between atoms: N_10  and  C_11
REMARK    4  A    between atoms: C_11  and  C_12
REMARK    5  A    between atoms: C_12  and  N_13
REMARK    6  A    between atoms: N_13  and  C_14
REMARK    7  A    between atoms: C_14  and  C_15
REMARK    8  A    between atoms: C_15  and  O_16
REMARK                            x       y       z     vdW  Elec       q    Type
REMARK                         _______ _______ _______ _____ _____    ______ ____
ROOT
ATOM      1  C   UNL     1       2.106   7.431  19.824  0.00  0.00    +0.000 A 
ATOM      2  C   UNL     1       1.314   6.594  20.605  0.00  0.00    +0.000 A 
ATOM      3  C   UNL     1       1.577   5.222  20.675  0.00  0.00    +0.000 A 
ATOM      4  C   UNL     1       2.672   4.668  19.991  0.00  0.00    +0.000 A 
ATOM      5  C   UNL     1       3.475   5.489  19.174  0.00  0.00    +0.000 A 
ATOM      6  C   UNL     1       3.121   6.846  19.060  0.00  0.00    +0.000 A 
ATOM      7  N   UNL     1       4.647   5.056  18.536  0.00  0.00    +0.000 N 
ATOM      8  C   UNL     1       5.277   3.848  19.070  0.00  0.00    +0.000 C 
ATOM      9  C   UNL     1       4.330   2.657  19.051  0.00  0.00    +0.000 C 
ATOM     10  S   UNL     1       2.944   2.908  20.204  0.00  0.00    +0.000 S 
ENDROOT
BRANCH   1  13
ATOM     11  N   UNL     1       1.133   8.828  17.536  0.00  0.00    +0.000 N 
ATOM     12  C   UNL     1       1.374   9.428  18.756  0.00  0.00    +0.000 C 
ATOM     13  N   UNL     1       1.842   8.811  19.808  0.00  0.00    +0.000 NA
ATOM     14  H   UNL     1       1.704   8.018  17.332  0.00  0.00    +0.000 HD
ATOM     15  H   UNL     1       1.041   9.465  16.754  0.00  0.00    +0.000 HD
BRANCH  12  16
ATOM     16  C   UNL     1       1.119  10.864  18.930  0.00  0.00    +0.000 A 
ATOM     17  C   UNL     1       1.896  11.938  18.537  0.00  0.00    +0.000 A 
ATOM     18  C   UNL     1       1.315  13.190  18.885  0.00  0.00    +0.000 A 
ATOM     19  C   UNL     1       0.112  13.037  19.539  0.00  0.00    +0.000 A 
ATOM     20  S   UNL     1      -0.314  11.393  19.714  0.00  0.00    +0.000 S 
ENDBRANCH  12  16
ENDBRANCH   1  13
BRANCH   7  21
ATOM     21  C   UNL     1       4.771   5.329  17.093  0.00  0.00    +0.000 C 
BRANCH  21  22
ATOM     22  C   UNL     1       6.138   4.842  16.562  0.00  0.00    +0.000 C 
BRANCH  22  23
ATOM     23  N   UNL     1       7.057   5.966  16.302  0.00  0.00    +0.000 NA
ATOM     24  H   UNL     1       6.766   6.414  15.431  0.00  0.00    +0.000 HD
BRANCH  23  25
ATOM     25  C   UNL     1       6.958   6.965  17.381  0.00  0.00    +0.000 C 
BRANCH  25  26
ATOM     26  C   UNL     1       7.894   6.630  18.548  0.00  0.00    +0.000 C 
BRANCH  26  27
ATOM     27  O   UNL     1       8.668   7.767  18.918  0.00  0.00    +0.000 OA
ATOM     28  H   UNL     1       8.347   8.032  19.800  0.00  0.00    +0.000 HD
ENDBRANCH  26  27
ENDBRANCH  25  26
ENDBRANCH  23  25
ENDBRANCH  22  23
ENDBRANCH  21  22
ENDBRANCH   7  21
TORSDOF 8
ENDMDL
MODEL 7
REMARK VINA RESULT:      -6.0      4.085      8.661
REMARK  Name = 
REMARK  8 active torsions:
REMARK  status: ('A' for Active; 'I' for Inactive)
REMARK    1  A    between atoms: C_2  and  C_20
REMARK    2  A    between atoms: N_3  and  C_4
REMARK    3  A    between atoms: N_10  and  C_11
REMARK    4  A    between atoms: C_11  and  C_12
REMARK    5  A    between atoms: C_12  and  N_13
REMARK    6  A    between atoms: N_13  and  C_14
REMARK    7  A    between atoms: C_14  and  C_15
REMARK    8  A    between atoms: C_15  and  O_16
REMARK                            x       y       z     vdW  Elec       q    Type
REMARK                         _______ _______ _______ _____ _____    ______ ____
ROOT
ATOM      1  C   UNL     1       1.909   7.358  20.058  0.00  0.00    +0.000 A 
ATOM      2  C   UNL     1       1.140   6.438  20.766  0.00  0.00    +0.000 A 
ATOM      3  C   UNL     1       1.395   5.066  20.667  0.00  0.00    +0.000 A 
ATOM      4  C   UNL     1       2.461   4.592  19.884  0.00  0.00    +0.000 A 
ATOM      5  C   UNL     1       3.241   5.500  19.139  0.00  0.00    +0.000 A 
ATOM      6  C   UNL     1       2.892   6.862  19.196  0.00  0.00    +0.000 A 
ATOM      7  N   UNL     1       4.385   5.140  18.413  0.00  0.00    +0.000 N 
ATOM      8  C   UNL     1       5.026   3.877  18.780  0.00  0.00    +0.000 C 
ATOM      9  C   UNL     1       4.070   2.699  18.658  0.00  0.00    +0.000 C 
ATOM     10  S   UNL     1       2.728   2.818  19.882  0.00  0.00    +0.000 S 
ENDROOT
BRANCH   1  13
ATOM     11  N   UNL     1       1.026   9.048  17.939  0.00  0.00    +0.000 N 
ATOM     12  C   UNL     1       1.227   9.483  19.234  0.00  0.00    +0.000 C 
ATOM     13  N   UNL     1       1.655   8.731  20.212  0.00  0.00    +0.000 NA
ATOM     14  H   UNL     1       1.598   8.265  17.652  0.00  0.00    +0.000 HD
ATOM     15  H   UNL     1       0.965   9.782  17.243  0.00  0.00    +0.000 HD
BRANCH  12  16
ATOM     16  C   UNL     1       0.976  10.888  19.584  0.00  0.00    +0.000 A 
ATOM     17  C   UNL     1       0.166  11.404  20.578  0.00  0.00    +0.000 A 
ATOM     18  C   UNL     1       0.178  12.827  20.609  0.00  0.00    +0.000 A 
ATOM     19  C   UNL     1       0.994  13.358  19.635  0.00  0.00    +0.000 A 
ATOM     20  S   UNL     1       1.749  12.143  18.703  0.00  0.00    +0.000 S 
ENDBRANCH  12  16
ENDBRANCH   1  13
BRANCH   7  21
ATOM     21  C   UNL     1       4.460   5.579  17.007  0.00  0.00    +0.000 C 
BRANCH  21  22
ATOM     22  C   UNL     1       5.513   6.697  16.840  0.00  0.00    +0.000 C 
BRANCH  22  23
ATOM     23  N   UNL     1       6.889   6.174  16.933  0.00  0.00    +0.000 NA
ATOM     24  H   UNL     1       7.417   6.541  16.139  0.00  0.00    +0.000 HD
BRANCH  23  25
ATOM     25  C   UNL     1       7.534   6.652  18.168  0.00  0.00    +0.000 C 
BRANCH  25  26
ATOM     26  C   UNL     1       8.131   5.494  18.978  0.00  0.00    +0.000 C 
BRANCH  26  27
ATOM     27  O   UNL     1       7.774   5.603  20.353  0.00  0.00    +0.000 OA
ATOM     28  H   UNL     1       7.984   6.520  20.611  0.00  0.00    +0.000 HD
ENDBRANCH  26  27
ENDBRANCH  25  26
ENDBRANCH  23  25
ENDBRANCH  22  23
ENDBRANCH  21  22
ENDBRANCH   7  21
TORSDOF 8
ENDMDL
MODEL 8
REMARK VINA RESULT:      -6.0      4.447      8.626
REMARK  Name = 
REMARK  8 active torsions:
REMARK  status: ('A' for Active; 'I' for Inactive)
REMARK    1  A    between atoms: C_2  and  C_20
REMARK    2  A    between atoms: N_3  and  C_4
REMARK    3  A    between atoms: N_10  and  C_11
REMARK    4  A    between atoms: C_11  and  C_12
REMARK    5  A    between atoms: C_12  and  N_13
REMARK    6  A    between atoms: N_13  and  C_14
REMARK    7  A    between atoms: C_14  and  C_15
REMARK    8  A    between atoms: C_15  and  O_16
REMARK                            x       y       z     vdW  Elec       q    Type
REMARK                         _______ _______ _______ _____ _____    ______ ____
ROOT
ATOM      1  C   UNL     1       1.555   6.201  20.441  0.00  0.00    +0.000 A 
ATOM      2  C   UNL     1       0.863   4.993  20.477  0.00  0.00    +0.000 A 
ATOM      3  C   UNL     1       1.388   3.850  19.864  0.00  0.00    +0.000 A 
ATOM      4  C   UNL     1       2.643   3.888  19.236  0.00  0.00    +0.000 A 
ATOM      5  C   UNL     1       3.354   5.104  19.166  0.00  0.00    +0.000 A 
ATOM      6  C   UNL     1       2.749   6.249  19.715  0.00  0.00    +0.000 A 
ATOM      7  N   UNL     1       4.655   5.224  18.655  0.00  0.00    +0.000 N 
ATOM      8  C   UNL     1       5.450   3.997  18.587  0.00  0.00    +0.000 C 
ATOM      9  C   UNL     1       4.772   2.926  17.745  0.00  0.00    +0.000 C 
ATOM     10  S   UNL     1       3.239   2.347  18.538  0.00  0.00    +0.000 S 
ENDROOT
BRANCH   1  13
ATOM     11  N   UNL     1       1.477   8.816  19.310  0.00  0.00    +0.000 N 
ATOM     12  C   UNL     1       0.973   8.505  20.557  0.00  0.00    +0.000 C 
ATOM     13  N   UNL     1       1.022   7.319  21.103  0.00  0.00    +0.000 NA
ATOM     14  H   UNL     1       2.244   8.238  18.996  0.00  0.00    +0.000 HD
ATOM     15  H   UNL     1       1.619   9.805  19.137  0.00  0.00    +0.000 HD
BRANCH  12  16
ATOM     16  C   UNL     1       0.346   9.550  21.378  0.00  0.00    +0.000 A 
ATOM     17  C   UNL     1      -0.319   9.425  22.583  0.00  0.00    +0.000 A 
ATOM     18  C   UNL     1      -0.794  10.673  23.077  0.00  0.00    +0.000 A 
ATOM     19  C   UNL     1      -0.481  11.716  22.233  0.00  0.00    +0.000 A 
ATOM     20  S   UNL     1       0.392  11.188  20.864  0.00  0.00    +0.000 S 
ENDBRANCH  12  16
ENDBRANCH   1  13
BRANCH   7  21
ATOM     21  C   UNL     1       4.890   6.265  17.638  0.00  0.00    +0.000 C 
BRANCH  21  22
ATOM     22  C   UNL     1       6.402   6.538  17.475  0.00  0.00    +0.000 C 
BRANCH  22  23
ATOM     23  N   UNL     1       6.821   6.476  16.062  0.00  0.00    +0.000 NA
ATOM     24  H   UNL     1       7.753   6.056  16.031  0.00  0.00    +0.000 HD
BRANCH  23  25
ATOM     25  C   UNL     1       5.908   5.608  15.297  0.00  0.00    +0.000 C 
BRANCH  25  26
ATOM     26  C   UNL     1       6.676   4.592  14.444  0.00  0.00    +0.000 C 
BRANCH  26  27
ATOM     27  O   UNL     1       7.827   5.194  13.857  0.00  0.00    +0.000 OA
ATOM     28  H   UNL     1       8.573   4.971  14.445  0.00  0.00    +0.000 HD
ENDBRANCH  26  27
ENDBRANCH  25  26
ENDBRANCH  23  25
ENDBRANCH  22  23
ENDBRANCH  21  22
ENDBRANCH   7  21
TORSDOF 8
ENDMDL
MODEL 9
REMARK VINA RESULT:      -6.0      4.231      8.538
REMARK  Name = 
REMARK  8 active torsions:
REMARK  status: ('A' for Active; 'I' for Inactive)
REMARK    1  A    between atoms: C_2  and  C_20
REMARK    2  A    between atoms: N_3  and  C_4
REMARK    3  A    between atoms: N_10  and  C_11
REMARK    4  A    between atoms: C_11  and  C_12
REMARK    5  A    between atoms: C_12  and  N_13
REMARK    6  A    between atoms: N_13  and  C_14
REMARK    7  A    between atoms: C_14  and  C_15
REMARK    8  A    between atoms: C_15  and  O_16
REMARK                            x       y       z     vdW  Elec       q    Type
REMARK                         _______ _______ _______ _____ _____    ______ ____
ROOT
ATOM      1  C   UNL     1       1.745   6.697  20.427  0.00  0.00    +0.000 A 
ATOM      2  C   UNL     1       1.116   5.467  20.606  0.00  0.00    +0.000 A 
ATOM      3  C   UNL     1       1.651   4.303  20.046  0.00  0.00    +0.000 A 
ATOM      4  C   UNL     1       2.857   4.344  19.327  0.00  0.00    +0.000 A 
ATOM      5  C   UNL     1       3.502   5.579  19.112  0.00  0.00    +0.000 A 
ATOM      6  C   UNL     1       2.882   6.738  19.614  0.00  0.00    +0.000 A 
ATOM      7  N   UNL     1       4.757   5.713  18.500  0.00  0.00    +0.000 N 
ATOM      8  C   UNL     1       5.604   4.520  18.468  0.00  0.00    +0.000 C 
ATOM      9  C   UNL     1       4.921   3.357  17.763  0.00  0.00    +0.000 C 
ATOM     10  S   UNL     1       3.477   2.778  18.707  0.00  0.00    +0.000 S 
ENDROOT
BRANCH   1  13
ATOM     11  N   UNL     1       1.158   9.108  19.025  0.00  0.00    +0.000 N 
ATOM     12  C   UNL     1       0.921   8.928  20.373  0.00  0.00    +0.000 C 
ATOM     13  N   UNL     1       1.206   7.841  21.038  0.00  0.00    +0.000 NA
ATOM     14  H   UNL     1       1.922   8.567  18.643  0.00  0.00    +0.000 HD
ATOM     15  H   UNL     1       1.148  10.072  18.711  0.00  0.00    +0.000 HD
BRANCH  12  16
ATOM     16  C   UNL     1       0.327  10.013  21.165  0.00  0.00    +0.000 A 
ATOM     17  C   UNL     1       0.322  11.372  20.911  0.00  0.00    +0.000 A 
ATOM     18  C   UNL     1      -0.359  12.114  21.918  0.00  0.00    +0.000 A 
ATOM     19  C   UNL     1      -0.851  11.301  22.914  0.00  0.00    +0.000 A 
ATOM     20  S   UNL     1      -0.505   9.655  22.624  0.00  0.00    +0.000 S 
ENDBRANCH  12  16
ENDBRANCH   1  13
BRANCH   7  21
ATOM     21  C   UNL     1       4.870   6.679  17.391  0.00  0.00    +0.000 C 
BRANCH  21  22
ATOM     22  C   UNL     1       6.105   6.364  16.518  0.00  0.00    +0.000 C 
BRANCH  22  23
ATOM     23  N   UNL     1       5.732   6.094  15.117  0.00  0.00    +0.000 NA
ATOM     24  H   UNL     1       5.881   6.953  14.583  0.00  0.00    +0.000 HD
BRANCH  23  25
ATOM     25  C   UNL     1       6.603   5.050  14.549  0.00  0.00    +0.000 C 
BRANCH  25  26
ATOM     26  C   UNL     1       5.801   3.815  14.124  0.00  0.00    +0.000 C 
BRANCH  26  27
ATOM     27  O   UNL     1       6.438   3.147  13.039  0.00  0.00    +0.000 OA
ATOM     28  H   UNL     1       5.809   2.465  12.739  0.00  0.00    +0.000 HD
ENDBRANCH  26  27
ENDBRANCH  25  26
ENDBRANCH  23  25
ENDBRANCH  22  23
ENDBRANCH  21  22
ENDBRANCH   7  21
TORSDOF 8
ENDMDL
