MODEL 1
REMARK VINA RESULT:      -9.5      0.000      0.000
REMARK  Name = 
REMARK  8 active torsions:
REMARK  status: ('A' for Active; 'I' for Inactive)
REMARK    1  A    between atoms: C_1  and  C_2
REMARK    2  A    between atoms: C_2  and  N_3
REMARK    3  A    between atoms: C_12  and  C_13
REMARK    4  A    between atoms: C_17  and  C_18
REMARK    5  A    between atoms: N_26  and  C_27
REMARK    6  A    between atoms: C_27  and  C_28
REMARK    7  A    between atoms: C_28  and  O_29
REMARK    8  A    between atoms: O_29  and  C_30
REMARK                            x       y       z     vdW  Elec       q    Type
REMARK                         _______ _______ _______ _____ _____    ______ ____
ROOT
ATOM      1  C   UNL     1       2.463   7.406  19.213  0.00  0.00    +0.000 A 
ATOM      2  N   UNL     1       3.101   7.726  18.100  0.00  0.00    +0.000 NA
ATOM      3  C   UNL     1       3.745   6.598  17.675  0.00  0.00    +0.000 A 
ATOM      4  C   UNL     1       4.578   6.430  16.557  0.00  0.00    +0.000 A 
ATOM      5  C   UNL     1       5.147   5.173  16.296  0.00  0.00    +0.000 A 
ATOM      6  C   UNL     1       4.865   4.109  17.163  0.00  0.00    +0.000 A 
ATOM      7  C   UNL     1       4.028   4.255  18.283  0.00  0.00    +0.000 A 
ATOM      8  C   UNL     1       3.481   5.526  18.515  0.00  0.00    +0.000 A 
ATOM      9  N   UNL     1       2.638   6.047  19.477  0.00  0.00    +0.000 N 
ENDROOT
BRANCH   1  19
ATOM     10  N   UNL     1      -0.803  11.198  21.800  0.00  0.00    +0.000 N 
ATOM     11  C   UNL     1      -0.792  12.243  20.899  0.00  0.00    +0.000 A 
ATOM     12  C   UNL     1      -1.419  13.500  20.940  0.00  0.00    +0.000 A 
ATOM     13  C   UNL     1      -1.188  14.388  19.887  0.00  0.00    +0.000 A 
ATOM     14  C   UNL     1      -0.365  14.033  18.823  0.00  0.00    +0.000 A 
ATOM     15  C   UNL     1       0.240  12.772  18.782  0.00  0.00    +0.000 A 
ATOM     16  C   UNL     1       0.027  11.855  19.837  0.00  0.00    +0.000 A 
ATOM     17  C   UNL     1       0.497  10.530  20.107  0.00  0.00    +0.000 A 
ATOM     18  C   UNL     1       1.335   9.620  19.420  0.00  0.00    +0.000 A 
ATOM     19  C   UNL     1       1.639   8.362  19.980  0.00  0.00    +0.000 A 
ATOM     20  C   UNL     1       1.128   8.056  21.244  0.00  0.00    +0.000 A 
ATOM     21  C   UNL     1       0.247   8.906  21.916  0.00  0.00    +0.000 A 
ATOM     22  C   UNL     1      -0.038  10.148  21.338  0.00  0.00    +0.000 A 
BRANCH  10  24
ATOM     23  C   UNL     1      -2.756  12.012  23.082  0.00  0.00    +0.000 C 
ATOM     24  C   UNL     1      -1.452  11.237  23.102  0.00  0.00    +0.000 C 
ENDBRANCH  10  24
ENDBRANCH   1  19
BRANCH   5  25
ATOM     25  C   UNL     1       6.017   4.955  15.138  0.00  0.00    +0.000 A 
ATOM     26  N   UNL     1       5.824   4.125  14.128  0.00  0.00    +0.000 NA
ATOM     27  N   UNL     1       6.896   4.273  13.273  0.00  0.00    +0.000 NA
ATOM     28  N   UNL     1       7.742   5.180  13.744  0.00  0.00    +0.000 NA
ATOM     29  N   UNL     1       7.203   5.599  14.895  0.00  0.00    +0.000 N 
ATOM     30  H   UNL     1       7.680   6.305  15.437  0.00  0.00    +0.000 HD
ENDBRANCH   5  25
BRANCH   9  31
ATOM     31  C   UNL     1       2.016   5.273  20.541  0.00  0.00    +0.000 C 
BRANCH  31  32
ATOM     32  C   UNL     1       0.979   4.268  20.038  0.00  0.00    +0.000 C 
BRANCH  32  33
ATOM     33  O   UNL     1       1.012   3.075  20.821  0.00  0.00    +0.000 OA
ATOM     34  C   UNL     1       2.116   3.114  21.726  0.00  0.00    +0.000 C 
ENDBRANCH  32  33
ENDBRANCH  31  32
ENDBRANCH   9  31
TORSDOF 6
ENDMDL
MODEL 2
REMARK VINA RESULT:      -9.4      2.117      2.384
REMARK  Name = 
REMARK  8 active torsions:
REMARK  status: ('A' for Active; 'I' for Inactive)
REMARK    1  A    between atoms: C_1  and  C_2
REMARK    2  A    between atoms: C_2  and  N_3
REMARK    3  A    between atoms: C_12  and  C_13
REMARK    4  A    between atoms: C_17  and  C_18
REMARK    5  A    between atoms: N_26  and  C_27
REMARK    6  A    between atoms: C_27  and  C_28
REMARK    7  A    between atoms: C_28  and  O_29
REMARK    8  A    between atoms: O_29  and  C_30
REMARK                            x       y       z     vdW  Elec       q    Type
REMARK                         _______ _______ _______ _____ _____    ______ ____
ROOT
ATOM      1  C   UNL     1       1.948   8.474  18.659  0.00  0.00    +0.000 A 
ATOM      2  N   UNL     1       2.590   8.531  17.505  0.00  0.00    +0.000 NA
ATOM      3  C   UNL     1       3.438   7.459  17.470  0.00  0.00    +0.000 A 
ATOM      4  C   UNL     1       4.353   7.095  16.470  0.00  0.00    +0.000 A 
ATOM      5  C   UNL     1       5.137   5.941  16.630  0.00  0.00    +0.000 A 
ATOM      6  C   UNL     1       4.983   5.174  17.794  0.00  0.00    +0.000 A 
ATOM      7  C   UNL     1       4.067   5.519  18.803  0.00  0.00    +0.000 A 
ATOM      8  C   UNL     1       3.304   6.679  18.610  0.00  0.00    +0.000 A 
ATOM      9  N   UNL     1       2.329   7.322  19.349  0.00  0.00    +0.000 N 
ENDROOT
BRANCH   1  19
ATOM     10  N   UNL     1      -2.198  12.015  20.079  0.00  0.00    +0.000 N 
ATOM     11  C   UNL     1      -3.114  11.797  19.069  0.00  0.00    +0.000 A 
ATOM     12  C   UNL     1      -4.377  12.367  18.835  0.00  0.00    +0.000 A 
ATOM     13  C   UNL     1      -5.073  11.980  17.687  0.00  0.00    +0.000 A 
ATOM     14  C   UNL     1      -4.532  11.051  16.805  0.00  0.00    +0.000 A 
ATOM     15  C   UNL     1      -3.281  10.475  17.057  0.00  0.00    +0.000 A 
ATOM     16  C   UNL     1      -2.553  10.852  18.208  0.00  0.00    +0.000 A 
ATOM     17  C   UNL     1      -1.275  10.481  18.737  0.00  0.00    +0.000 A 
ATOM     18  C   UNL     1      -0.258   9.585  18.327  0.00  0.00    +0.000 A 
ATOM     19  C   UNL     1       0.932   9.462  19.073  0.00  0.00    +0.000 A 
ATOM     20  C   UNL     1       1.100  10.275  20.197  0.00  0.00    +0.000 A 
ATOM     21  C   UNL     1       0.090  11.120  20.661  0.00  0.00    +0.000 A 
ATOM     22  C   UNL     1      -1.082  11.222  19.903  0.00  0.00    +0.000 A 
BRANCH  10  24
ATOM     23  C   UNL     1      -2.924  12.433  22.406  0.00  0.00    +0.000 C 
ATOM     24  C   UNL     1      -2.345  13.012  21.128  0.00  0.00    +0.000 C 
ENDBRANCH  10  24
ENDBRANCH   1  19
BRANCH   5  25
ATOM     25  C   UNL     1       6.101   5.523  15.609  0.00  0.00    +0.000 A 
ATOM     26  N   UNL     1       7.379   5.847  15.525  0.00  0.00    +0.000 NA
ATOM     27  N   UNL     1       7.884   5.210  14.410  0.00  0.00    +0.000 NA
ATOM     28  N   UNL     1       6.935   4.502  13.811  0.00  0.00    +0.000 NA
ATOM     29  N   UNL     1       5.834   4.697  14.547  0.00  0.00    +0.000 N 
ATOM     30  H   UNL     1       4.972   4.245  14.278  0.00  0.00    +0.000 HD
ENDBRANCH   5  25
BRANCH   9  31
ATOM     31  C   UNL     1       1.781   6.829  20.603  0.00  0.00    +0.000 C 
BRANCH  31  32
ATOM     32  C   UNL     1       1.404   5.346  20.562  0.00  0.00    +0.000 C 
BRANCH  32  33
ATOM     33  O   UNL     1       2.207   4.598  21.475  0.00  0.00    +0.000 OA
ATOM     34  C   UNL     1       1.807   3.227  21.468  0.00  0.00    +0.000 C 
ENDBRANCH  32  33
ENDBRANCH  31  32
ENDBRANCH   9  31
TORSDOF 6
ENDMDL
MODEL 3
REMARK VINA RESULT:      -9.3      2.833     10.190
REMARK  Name = 
REMARK  8 active torsions:
REMARK  status: ('A' for Active; 'I' for Inactive)
REMARK    1  A    between atoms: C_1  and  C_2
REMARK    2  A    between atoms: C_2  and  N_3
REMARK    3  A    between atoms: C_12  and  C_13
REMARK    4  A    between atoms: C_17  and  C_18
REMARK    5  A    between atoms: N_26  and  C_27
REMARK    6  A    between atoms: C_27  and  C_28
REMARK    7  A    between atoms: C_28  and  O_29
REMARK    8  A    between atoms: O_29  and  C_30
REMARK                            x       y       z     vdW  Elec       q    Type
REMARK                         _______ _______ _______ _____ _____    ______ ____
ROOT
ATOM      1  C   UNL     1       0.587   9.923  19.939  0.00  0.00    +0.000 A 
ATOM      2  N   UNL     1       0.666  10.376  21.178  0.00  0.00    +0.000 NA
ATOM      3  C   UNL     1      -0.273  11.362  21.299  0.00  0.00    +0.000 A 
ATOM      4  C   UNL     1      -0.561  12.169  22.412  0.00  0.00    +0.000 A 
ATOM      5  C   UNL     1      -1.578  13.134  22.327  0.00  0.00    +0.000 A 
ATOM      6  C   UNL     1      -2.287  13.267  21.125  0.00  0.00    +0.000 A 
ATOM      7  C   UNL     1      -2.017  12.463  20.003  0.00  0.00    +0.000 A 
ATOM      8  C   UNL     1      -0.993  11.513  20.123  0.00  0.00    +0.000 A 
ATOM      9  N   UNL     1      -0.454  10.569  19.271  0.00  0.00    +0.000 N 
ENDROOT
BRANCH   1  19
ATOM     10  N   UNL     1       3.602   5.532  18.101  0.00  0.00    +0.000 N 
ATOM     11  C   UNL     1       3.355   4.590  19.078  0.00  0.00    +0.000 A 
ATOM     12  C   UNL     1       3.808   3.267  19.216  0.00  0.00    +0.000 A 
ATOM     13  C   UNL     1       3.424   2.553  20.353  0.00  0.00    +0.000 A 
ATOM     14  C   UNL     1       2.608   3.134  21.319  0.00  0.00    +0.000 A 
ATOM     15  C   UNL     1       2.147   4.447  21.164  0.00  0.00    +0.000 A 
ATOM     16  C   UNL     1       2.524   5.194  20.024  0.00  0.00    +0.000 A 
ATOM     17  C   UNL     1       2.252   6.528  19.581  0.00  0.00    +0.000 A 
ATOM     18  C   UNL     1       1.489   7.604  20.095  0.00  0.00    +0.000 A 
ATOM     19  C   UNL     1       1.441   8.838  19.415  0.00  0.00    +0.000 A 
ATOM     20  C   UNL     1       2.198   8.985  18.249  0.00  0.00    +0.000 A 
ATOM     21  C   UNL     1       2.907   7.924  17.684  0.00  0.00    +0.000 A 
ATOM     22  C   UNL     1       2.937   6.709  18.379  0.00  0.00    +0.000 A 
BRANCH  10  24
ATOM     23  C   UNL     1       5.931   5.780  17.305  0.00  0.00    +0.000 C 
ATOM     24  C   UNL     1       4.513   5.344  16.983  0.00  0.00    +0.000 C 
ENDBRANCH  10  24
ENDBRANCH   1  19
BRANCH   5  25
ATOM     25  C   UNL     1      -1.913  13.993  23.466  0.00  0.00    +0.000 A 
ATOM     26  N   UNL     1      -1.079  14.591  24.297  0.00  0.00    +0.000 NA
ATOM     27  N   UNL     1      -1.847  15.302  25.197  0.00  0.00    +0.000 NA
ATOM     28  N   UNL     1      -3.137  15.147  24.928  0.00  0.00    +0.000 NA
ATOM     29  N   UNL     1      -3.179  14.337  23.863  0.00  0.00    +0.000 N 
ATOM     30  H   UNL     1      -4.074  14.079  23.472  0.00  0.00    +0.000 HD
ENDBRANCH   5  25
BRANCH   9  31
ATOM     31  C   UNL     1      -0.945  10.287  17.930  0.00  0.00    +0.000 C 
BRANCH  31  32
ATOM     32  C   UNL     1      -2.409   9.845  17.897  0.00  0.00    +0.000 C 
BRANCH  32  33
ATOM     33  O   UNL     1      -2.868   9.724  16.551  0.00  0.00    +0.000 OA
ATOM     34  C   UNL     1      -2.739  10.974  15.875  0.00  0.00    +0.000 C 
ENDBRANCH  32  33
ENDBRANCH  31  32
ENDBRANCH   9  31
TORSDOF 6
ENDMDL
MODEL 4
REMARK VINA RESULT:      -9.3      0.764      1.032
REMARK  Name = 
REMARK  8 active torsions:
REMARK  status: ('A' for Active; 'I' for Inactive)
REMARK    1  A    between atoms: C_1  and  C_2
REMARK    2  A    between atoms: C_2  and  N_3
REMARK    3  A    between atoms: C_12  and  C_13
REMARK    4  A    between atoms: C_17  and  C_18
REMARK    5  A    between atoms: N_26  and  C_27
REMARK    6  A    between atoms: C_27  and  C_28
REMARK    7  A    between atoms: C_28  and  O_29
REMARK    8  A    between atoms: O_29  and  C_30
REMARK                            x       y       z     vdW  Elec       q    Type
REMARK                         _______ _______ _______ _____ _____    ______ ____
ROOT
ATOM      1  C   UNL     1       2.901   6.940  18.707  0.00  0.00    +0.000 A 
ATOM      2  N   UNL     1       3.499   7.339  17.597  0.00  0.00    +0.000 NA
ATOM      3  C   UNL     1       4.158   6.253  17.092  0.00  0.00    +0.000 A 
ATOM      4  C   UNL     1       4.962   6.170  15.944  0.00  0.00    +0.000 A 
ATOM      5  C   UNL     1       5.553   4.945  15.596  0.00  0.00    +0.000 A 
ATOM      6  C   UNL     1       5.322   3.826  16.408  0.00  0.00    +0.000 A 
ATOM      7  C   UNL     1       4.514   3.888  17.557  0.00  0.00    +0.000 A 
ATOM      8  C   UNL     1       3.943   5.129  17.876  0.00  0.00    +0.000 A 
ATOM      9  N   UNL     1       3.115   5.573  18.889  0.00  0.00    +0.000 N 
ENDROOT
BRANCH   1  19
ATOM     10  N   UNL     1      -0.412  10.466  21.596  0.00  0.00    +0.000 N 
ATOM     11  C   UNL     1      -0.579  11.498  20.695  0.00  0.00    +0.000 A 
ATOM     12  C   UNL     1      -1.305  12.698  20.796  0.00  0.00    +0.000 A 
ATOM     13  C   UNL     1      -1.254  13.592  19.724  0.00  0.00    +0.000 A 
ATOM     14  C   UNL     1      -0.512  13.297  18.585  0.00  0.00    +0.000 A 
ATOM     15  C   UNL     1       0.193  12.092  18.487  0.00  0.00    +0.000 A 
ATOM     16  C   UNL     1       0.164  11.171  19.559  0.00  0.00    +0.000 A 
ATOM     17  C   UNL     1       0.770   9.894  19.784  0.00  0.00    +0.000 A 
ATOM     18  C   UNL     1       1.612   9.051  19.020  0.00  0.00    +0.000 A 
ATOM     19  C   UNL     1       2.076   7.830  19.550  0.00  0.00    +0.000 A 
ATOM     20  C   UNL     1       1.719   7.494  20.858  0.00  0.00    +0.000 A 
ATOM     21  C   UNL     1       0.838   8.272  21.611  0.00  0.00    +0.000 A 
ATOM     22  C   UNL     1       0.392   9.479  21.062  0.00  0.00    +0.000 A 
BRANCH  10  24
ATOM     23  C   UNL     1      -1.964  11.549  23.188  0.00  0.00    +0.000 C 
ATOM     24  C   UNL     1      -0.932  10.461  22.954  0.00  0.00    +0.000 C 
ENDBRANCH  10  24
ENDBRANCH   1  19
BRANCH   5  25
ATOM     25  C   UNL     1       6.395   4.815  14.404  0.00  0.00    +0.000 A 
ATOM     26  N   UNL     1       7.499   5.483  14.119  0.00  0.00    +0.000 NA
ATOM     27  N   UNL     1       7.952   5.013  12.903  0.00  0.00    +0.000 NA
ATOM     28  N   UNL     1       7.143   4.069  12.441  0.00  0.00    +0.000 NA
ATOM     29  N   UNL     1       6.181   3.948  13.363  0.00  0.00    +0.000 N 
ATOM     30  H   UNL     1       5.443   3.273  13.223  0.00  0.00    +0.000 HD
ENDBRANCH   5  25
BRANCH   9  31
ATOM     31  C   UNL     1       2.543   4.725  19.923  0.00  0.00    +0.000 C 
BRANCH  31  32
ATOM     32  C   UNL     1       1.284   3.981  19.473  0.00  0.00    +0.000 C 
BRANCH  32  33
ATOM     33  O   UNL     1       0.856   3.063  20.479  0.00  0.00    +0.000 OA
ATOM     34  C   UNL     1       1.837   2.974  21.511  0.00  0.00    +0.000 C 
ENDBRANCH  32  33
ENDBRANCH  31  32
ENDBRANCH   9  31
TORSDOF 6
ENDMDL
MODEL 5
REMARK VINA RESULT:      -9.0      1.208      1.390
REMARK  Name = 
REMARK  8 active torsions:
REMARK  status: ('A' for Active; 'I' for Inactive)
REMARK    1  A    between atoms: C_1  and  C_2
REMARK    2  A    between atoms: C_2  and  N_3
REMARK    3  A    between atoms: C_12  and  C_13
REMARK    4  A    between atoms: C_17  and  C_18
REMARK    5  A    between atoms: N_26  and  C_27
REMARK    6  A    between atoms: C_27  and  C_28
REMARK    7  A    between atoms: C_28  and  O_29
REMARK    8  A    between atoms: O_29  and  C_30
REMARK                            x       y       z     vdW  Elec       q    Type
REMARK                         _______ _______ _______ _____ _____    ______ ____
ROOT
ATOM      1  C   UNL     1       2.352   7.593  19.260  0.00  0.00    +0.000 A 
ATOM      2  N   UNL     1       3.003   7.893  18.149  0.00  0.00    +0.000 NA
ATOM      3  C   UNL     1       3.689   6.771  17.777  0.00  0.00    +0.000 A 
ATOM      4  C   UNL     1       4.549   6.589  16.683  0.00  0.00    +0.000 A 
ATOM      5  C   UNL     1       5.159   5.341  16.476  0.00  0.00    +0.000 A 
ATOM      6  C   UNL     1       4.890   4.299  17.374  0.00  0.00    +0.000 A 
ATOM      7  C   UNL     1       4.026   4.460  18.472  0.00  0.00    +0.000 A 
ATOM      8  C   UNL     1       3.438   5.720  18.649  0.00  0.00    +0.000 A 
ATOM      9  N   UNL     1       2.560   6.250  19.575  0.00  0.00    +0.000 N 
ENDROOT
BRANCH   1  19
ATOM     10  N   UNL     1      -1.239  11.153  21.745  0.00  0.00    +0.000 N 
ATOM     11  C   UNL     1      -2.042  11.530  20.687  0.00  0.00    +0.000 A 
ATOM     12  C   UNL     1      -3.141  12.403  20.632  0.00  0.00    +0.000 A 
ATOM     13  C   UNL     1      -3.741  12.632  19.392  0.00  0.00    +0.000 A 
ATOM     14  C   UNL     1      -3.267  12.005  18.244  0.00  0.00    +0.000 A 
ATOM     15  C   UNL     1      -2.182  11.123  18.312  0.00  0.00    +0.000 A 
ATOM     16  C   UNL     1      -1.553  10.877  19.554  0.00  0.00    +0.000 A 
ATOM     17  C   UNL     1      -0.441  10.070  19.958  0.00  0.00    +0.000 A 
ATOM     18  C   UNL     1       0.442   9.195  19.281  0.00  0.00    +0.000 A 
ATOM     19  C   UNL     1       1.485   8.550  19.977  0.00  0.00    +0.000 A 
ATOM     20  C   UNL     1       1.650   8.829  21.336  0.00  0.00    +0.000 A 
ATOM     21  C   UNL     1       0.757   9.636  22.043  0.00  0.00    +0.000 A 
ATOM     22  C   UNL     1      -0.270  10.263  21.329  0.00  0.00    +0.000 A 
BRANCH  10  24
ATOM     23  C   UNL     1      -1.103  13.192  23.138  0.00  0.00    +0.000 C 
ATOM     24  C   UNL     1      -1.339  11.694  23.092  0.00  0.00    +0.000 C 
ENDBRANCH  10  24
ENDBRANCH   1  19
BRANCH   5  25
ATOM     25  C   UNL     1       6.059   5.109  15.344  0.00  0.00    +0.000 A 
ATOM     26  N   UNL     1       7.236   5.666  15.122  0.00  0.00    +0.000 NA
ATOM     27  N   UNL     1       7.720   5.132  13.945  0.00  0.00    +0.000 NA
ATOM     28  N   UNL     1       6.857   4.256  13.445  0.00  0.00    +0.000 NA
ATOM     29  N   UNL     1       5.831   4.244  14.305  0.00  0.00    +0.000 N 
ATOM     30  H   UNL     1       5.044   3.637  14.128  0.00  0.00    +0.000 HD
ENDBRANCH   5  25
BRANCH   9  31
ATOM     31  C   UNL     1       1.939   5.495  20.653  0.00  0.00    +0.000 C 
BRANCH  31  32
ATOM     32  C   UNL     1       0.928   4.456  20.165  0.00  0.00    +0.000 C 
BRANCH  32  33
ATOM     33  O   UNL     1       0.982   3.281  20.975  0.00  0.00    +0.000 OA
ATOM     34  C   UNL     1       2.241   3.205  21.643  0.00  0.00    +0.000 C 
ENDBRANCH  32  33
ENDBRANCH  31  32
ENDBRANCH   9  31
TORSDOF 6
ENDMDL
MODEL 6
REMARK VINA RESULT:      -9.0      2.978      9.907
REMARK  Name = 
REMARK  8 active torsions:
REMARK  status: ('A' for Active; 'I' for Inactive)
REMARK    1  A    between atoms: C_1  and  C_2
REMARK    2  A    between atoms: C_2  and  N_3
REMARK    3  A    between atoms: C_12  and  C_13
REMARK    4  A    between atoms: C_17  and  C_18
REMARK    5  A    between atoms: N_26  and  C_27
REMARK    6  A    between atoms: C_27  and  C_28
REMARK    7  A    between atoms: C_28  and  O_29
REMARK    8  A    between atoms: O_29  and  C_30
REMARK                            x       y       z     vdW  Elec       q    Type
REMARK                         _______ _______ _______ _____ _____    ______ ____
ROOT
ATOM      1  C   UNL     1       0.716   9.125  20.521  0.00  0.00    +0.000 A 
ATOM      2  N   UNL     1       0.449   9.489  21.764  0.00  0.00    +0.000 NA
ATOM      3  C   UNL     1      -0.156  10.713  21.695  0.00  0.00    +0.000 A 
ATOM      4  C   UNL     1      -0.604  11.531  22.745  0.00  0.00    +0.000 A 
ATOM      5  C   UNL     1      -1.207  12.766  22.455  0.00  0.00    +0.000 A 
ATOM      6  C   UNL     1      -1.349  13.153  21.116  0.00  0.00    +0.000 A 
ATOM      7  C   UNL     1      -0.913  12.344  20.051  0.00  0.00    +0.000 A 
ATOM      8  C   UNL     1      -0.313  11.120  20.378  0.00  0.00    +0.000 A 
ATOM      9  N   UNL     1       0.222  10.084  19.636  0.00  0.00    +0.000 N 
ENDROOT
BRANCH   1  19
ATOM     10  N   UNL     1       3.504   4.455  19.047  0.00  0.00    +0.000 N 
ATOM     11  C   UNL     1       4.207   4.883  17.940  0.00  0.00    +0.000 A 
ATOM     12  C   UNL     1       5.103   4.201  17.099  0.00  0.00    +0.000 A 
ATOM     13  C   UNL     1       5.638   4.889  16.007  0.00  0.00    +0.000 A 
ATOM     14  C   UNL     1       5.299   6.217  15.766  0.00  0.00    +0.000 A 
ATOM     15  C   UNL     1       4.421   6.893  16.620  0.00  0.00    +0.000 A 
ATOM     16  C   UNL     1       3.860   6.220  17.729  0.00  0.00    +0.000 A 
ATOM     17  C   UNL     1       2.941   6.601  18.758  0.00  0.00    +0.000 A 
ATOM     18  C   UNL     1       2.254   7.798  19.076  0.00  0.00    +0.000 A 
ATOM     19  C   UNL     1       1.370   7.847  20.172  0.00  0.00    +0.000 A 
ATOM     20  C   UNL     1       1.155   6.678  20.908  0.00  0.00    +0.000 A 
ATOM     21  C   UNL     1       1.865   5.502  20.658  0.00  0.00    +0.000 A 
ATOM     22  C   UNL     1       2.738   5.480  19.565  0.00  0.00    +0.000 A 
BRANCH  10  24
ATOM     23  C   UNL     1       2.433   2.232  18.877  0.00  0.00    +0.000 C 
ATOM     24  C   UNL     1       3.495   3.088  19.543  0.00  0.00    +0.000 C 
ENDBRANCH  10  24
ENDBRANCH   1  19
BRANCH   5  25
ATOM     25  C   UNL     1      -1.692  13.648  23.520  0.00  0.00    +0.000 A 
ATOM     26  N   UNL     1      -1.010  14.568  24.179  0.00  0.00    +0.000 NA
ATOM     27  N   UNL     1      -1.882  15.153  25.074  0.00  0.00    +0.000 NA
ATOM     28  N   UNL     1      -3.086  14.604  24.973  0.00  0.00    +0.000 NA
ATOM     29  N   UNL     1      -2.969  13.674  24.018  0.00  0.00    +0.000 N 
ATOM     30  H   UNL     1      -3.776  13.121  23.763  0.00  0.00    +0.000 HD
ENDBRANCH   5  25
BRANCH   9  31
ATOM     31  C   UNL     1       0.211  10.014  18.183  0.00  0.00    +0.000 C 
BRANCH  31  32
ATOM     32  C   UNL     1      -1.160   9.668  17.600  0.00  0.00    +0.000 C 
BRANCH  32  33
ATOM     33  O   UNL     1      -1.816  10.843  17.124  0.00  0.00    +0.000 OA
ATOM     34  C   UNL     1      -2.612  10.531  15.980  0.00  0.00    +0.000 C 
ENDBRANCH  32  33
ENDBRANCH  31  32
ENDBRANCH   9  31
TORSDOF 6
ENDMDL
MODEL 7
REMARK VINA RESULT:      -9.0      2.430      3.208
REMARK  Name = 
REMARK  8 active torsions:
REMARK  status: ('A' for Active; 'I' for Inactive)
REMARK    1  A    between atoms: C_1  and  C_2
REMARK    2  A    between atoms: C_2  and  N_3
REMARK    3  A    between atoms: C_12  and  C_13
REMARK    4  A    between atoms: C_17  and  C_18
REMARK    5  A    between atoms: N_26  and  C_27
REMARK    6  A    between atoms: C_27  and  C_28
REMARK    7  A    between atoms: C_28  and  O_29
REMARK    8  A    between atoms: O_29  and  C_30
REMARK                            x       y       z     vdW  Elec       q    Type
REMARK                         _______ _______ _______ _____ _____    ______ ____
ROOT
ATOM      1  C   UNL     1       1.661   8.965  18.722  0.00  0.00    +0.000 A 
ATOM      2  N   UNL     1       2.357   8.925  17.599  0.00  0.00    +0.000 NA
ATOM      3  C   UNL     1       3.133   7.801  17.655  0.00  0.00    +0.000 A 
ATOM      4  C   UNL     1       4.067   7.332  16.718  0.00  0.00    +0.000 A 
ATOM      5  C   UNL     1       4.766   6.140  16.969  0.00  0.00    +0.000 A 
ATOM      6  C   UNL     1       4.511   5.443  18.158  0.00  0.00    +0.000 A 
ATOM      7  C   UNL     1       3.574   5.894  19.105  0.00  0.00    +0.000 A 
ATOM      8  C   UNL     1       2.898   7.089  18.822  0.00  0.00    +0.000 A 
ATOM      9  N   UNL     1       1.935   7.827  19.482  0.00  0.00    +0.000 N 
ENDROOT
BRANCH   1  19
ATOM     10  N   UNL     1      -2.311  12.779  19.915  0.00  0.00    +0.000 N 
ATOM     11  C   UNL     1      -3.404  12.269  19.244  0.00  0.00    +0.000 A 
ATOM     12  C   UNL     1      -4.722  12.744  19.138  0.00  0.00    +0.000 A 
ATOM     13  C   UNL     1      -5.619  12.031  18.340  0.00  0.00    +0.000 A 
ATOM     14  C   UNL     1      -5.218  10.876  17.674  0.00  0.00    +0.000 A 
ATOM     15  C   UNL     1      -3.907  10.401  17.801  0.00  0.00    +0.000 A 
ATOM     16  C   UNL     1      -2.978  11.106  18.599  0.00  0.00    +0.000 A 
ATOM     17  C   UNL     1      -1.596  10.910  18.916  0.00  0.00    +0.000 A 
ATOM     18  C   UNL     1      -0.633   9.929  18.575  0.00  0.00    +0.000 A 
ATOM     19  C   UNL     1       0.693  10.035  19.040  0.00  0.00    +0.000 A 
ATOM     20  C   UNL     1       1.043  11.149  19.807  0.00  0.00    +0.000 A 
ATOM     21  C   UNL     1       0.101  12.097  20.213  0.00  0.00    +0.000 A 
ATOM     22  C   UNL     1      -1.209  11.968  19.739  0.00  0.00    +0.000 A 
BRANCH  10  24
ATOM     23  C   UNL     1      -2.649  13.894  22.097  0.00  0.00    +0.000 C 
ATOM     24  C   UNL     1      -2.297  14.047  20.628  0.00  0.00    +0.000 C 
ENDBRANCH  10  24
ENDBRANCH   1  19
BRANCH   5  25
ATOM     25  C   UNL     1       5.746   5.613  16.016  0.00  0.00    +0.000 A 
ATOM     26  N   UNL     1       5.546   4.715  15.067  0.00  0.00    +0.000 NA
ATOM     27  N   UNL     1       6.749   4.544  14.414  0.00  0.00    +0.000 NA
ATOM     28  N   UNL     1       7.681   5.323  14.948  0.00  0.00    +0.000 NA
ATOM     29  N   UNL     1       7.065   5.980  15.938  0.00  0.00    +0.000 N 
ATOM     30  H   UNL     1       7.587   6.643  16.492  0.00  0.00    +0.000 HD
ENDBRANCH   5  25
BRANCH   9  31
ATOM     31  C   UNL     1       1.299   7.432  20.730  0.00  0.00    +0.000 C 
BRANCH  31  32
ATOM     32  C   UNL     1       1.234   8.558  21.764  0.00  0.00    +0.000 C 
BRANCH  32  33
ATOM     33  O   UNL     1      -0.119   8.832  22.125  0.00  0.00    +0.000 OA
ATOM     34  C   UNL     1      -0.157   9.679  23.274  0.00  0.00    +0.000 C 
ENDBRANCH  32  33
ENDBRANCH  31  32
ENDBRANCH   9  31
TORSDOF 6
ENDMDL
MODEL 8
REMARK VINA RESULT:      -9.0      2.950      9.947
REMARK  Name = 
REMARK  8 active torsions:
REMARK  status: ('A' for Active; 'I' for Inactive)
REMARK    1  A    between atoms: C_1  and  C_2
REMARK    2  A    between atoms: C_2  and  N_3
REMARK    3  A    between atoms: C_12  and  C_13
REMARK    4  A    between atoms: C_17  and  C_18
REMARK    5  A    between atoms: N_26  and  C_27
REMARK    6  A    between atoms: C_27  and  C_28
REMARK    7  A    between atoms: C_28  and  O_29
REMARK    8  A    between atoms: O_29  and  C_30
REMARK                            x       y       z     vdW  Elec       q    Type
REMARK                         _______ _______ _______ _____ _____    ______ ____
ROOT
ATOM      1  C   UNL     1       0.963   8.584  20.430  0.00  0.00    +0.000 A 
ATOM      2  N   UNL     1       0.307   8.719  21.570  0.00  0.00    +0.000 NA
ATOM      3  C   UNL     1      -0.275   9.956  21.547  0.00  0.00    +0.000 A 
ATOM      4  C   UNL     1      -1.052  10.579  22.537  0.00  0.00    +0.000 A 
ATOM      5  C   UNL     1      -1.562  11.868  22.311  0.00  0.00    +0.000 A 
ATOM      6  C   UNL     1      -1.283  12.504  21.094  0.00  0.00    +0.000 A 
ATOM      7  C   UNL     1      -0.512  11.893  20.089  0.00  0.00    +0.000 A 
ATOM      8  C   UNL     1      -0.016  10.608  20.350  0.00  0.00    +0.000 A 
ATOM      9  N   UNL     1       0.751   9.710  19.633  0.00  0.00    +0.000 N 
ENDROOT
BRANCH   1  19
ATOM     10  N   UNL     1       4.132   4.186  18.895  0.00  0.00    +0.000 N 
ATOM     11  C   UNL     1       4.734   4.658  17.746  0.00  0.00    +0.000 A 
ATOM     12  C   UNL     1       5.651   4.051  16.872  0.00  0.00    +0.000 A 
ATOM     13  C   UNL     1       6.060   4.765  15.743  0.00  0.00    +0.000 A 
ATOM     14  C   UNL     1       5.577   6.046  15.497  0.00  0.00    +0.000 A 
ATOM     15  C   UNL     1       4.677   6.650  16.383  0.00  0.00    +0.000 A 
ATOM     16  C   UNL     1       4.243   5.948  17.531  0.00  0.00    +0.000 A 
ATOM     17  C   UNL     1       3.342   6.258  18.599  0.00  0.00    +0.000 A 
ATOM     18  C   UNL     1       2.554   7.387  18.931  0.00  0.00    +0.000 A 
ATOM     19  C   UNL     1       1.724   7.371  20.070  0.00  0.00    +0.000 A 
ATOM     20  C   UNL     1       1.666   6.203  20.835  0.00  0.00    +0.000 A 
ATOM     21  C   UNL     1       2.478   5.099  20.569  0.00  0.00    +0.000 A 
ATOM     22  C   UNL     1       3.294   5.140  19.433  0.00  0.00    +0.000 A 
BRANCH  10  24
ATOM     23  C   UNL     1       3.390   1.834  18.708  0.00  0.00    +0.000 C 
ATOM     24  C   UNL     1       4.286   2.836  19.413  0.00  0.00    +0.000 C 
ENDBRANCH  10  24
ENDBRANCH   1  19
BRANCH   5  25
ATOM     25  C   UNL     1      -2.381  12.552  23.316  0.00  0.00    +0.000 A 
ATOM     26  N   UNL     1      -2.180  13.746  23.843  0.00  0.00    +0.000 NA
ATOM     27  N   UNL     1      -3.213  13.975  24.729  0.00  0.00    +0.000 NA
ATOM     28  N   UNL     1      -4.042  12.939  24.751  0.00  0.00    +0.000 NA
ATOM     29  N   UNL     1      -3.529  12.060  23.883  0.00  0.00    +0.000 N 
ATOM     30  H   UNL     1      -4.003  11.181  23.729  0.00  0.00    +0.000 HD
ENDBRANCH   5  25
BRANCH   9  31
ATOM     31  C   UNL     1       1.202   9.914  18.265  0.00  0.00    +0.000 C 
BRANCH  31  32
ATOM     32  C   UNL     1       2.379  10.885  18.149  0.00  0.00    +0.000 C 
BRANCH  32  33
ATOM     33  O   UNL     1       1.918  12.199  17.833  0.00  0.00    +0.000 OA
ATOM     34  C   UNL     1       2.724  13.173  18.496  0.00  0.00    +0.000 C 
ENDBRANCH  32  33
ENDBRANCH  31  32
ENDBRANCH   9  31
TORSDOF 6
ENDMDL
MODEL 9
REMARK VINA RESULT:      -8.9      3.586      9.260
REMARK  Name = 
REMARK  8 active torsions:
REMARK  status: ('A' for Active; 'I' for Inactive)
REMARK    1  A    between atoms: C_1  and  C_2
REMARK    2  A    between atoms: C_2  and  N_3
REMARK    3  A    between atoms: C_12  and  C_13
REMARK    4  A    between atoms: C_17  and  C_18
REMARK    5  A    between atoms: N_26  and  C_27
REMARK    6  A    between atoms: C_27  and  C_28
REMARK    7  A    between atoms: C_28  and  O_29
REMARK    8  A    between atoms: O_29  and  C_30
REMARK                            x       y       z     vdW  Elec       q    Type
REMARK                         _______ _______ _______ _____ _____    ______ ____
ROOT
ATOM      1  C   UNL     1       1.056  10.566  19.443  0.00  0.00    +0.000 A 
ATOM      2  N   UNL     1       1.902  11.543  19.722  0.00  0.00    +0.000 NA
ATOM      3  C   UNL     1       1.272  12.714  19.404  0.00  0.00    +0.000 A 
ATOM      4  C   UNL     1       1.762  14.027  19.491  0.00  0.00    +0.000 A 
ATOM      5  C   UNL     1       0.942  15.102  19.111  0.00  0.00    +0.000 A 
ATOM      6  C   UNL     1      -0.355  14.836  18.653  0.00  0.00    +0.000 A 
ATOM      7  C   UNL     1      -0.866  13.529  18.565  0.00  0.00    +0.000 A 
ATOM      8  C   UNL     1      -0.018  12.480  18.950  0.00  0.00    +0.000 A 
ATOM      9  N   UNL     1      -0.154  11.106  19.007  0.00  0.00    +0.000 N 
ENDROOT
BRANCH   1  19
ATOM     10  N   UNL     1       2.580   5.179  20.077  0.00  0.00    +0.000 N 
ATOM     11  C   UNL     1       3.375   4.977  18.967  0.00  0.00    +0.000 A 
ATOM     12  C   UNL     1       4.073   3.838  18.530  0.00  0.00    +0.000 A 
ATOM     13  C   UNL     1       4.770   3.914  17.323  0.00  0.00    +0.000 A 
ATOM     14  C   UNL     1       4.779   5.089  16.578  0.00  0.00    +0.000 A 
ATOM     15  C   UNL     1       4.096   6.224  17.030  0.00  0.00    +0.000 A 
ATOM     16  C   UNL     1       3.378   6.173  18.247  0.00  0.00    +0.000 A 
ATOM     17  C   UNL     1       2.579   7.120  18.965  0.00  0.00    +0.000 A 
ATOM     18  C   UNL     1       2.216   8.471  18.750  0.00  0.00    +0.000 A 
ATOM     19  C   UNL     1       1.367   9.138  19.657  0.00  0.00    +0.000 A 
ATOM     20  C   UNL     1       0.860   8.422  20.744  0.00  0.00    +0.000 A 
ATOM     21  C   UNL     1       1.251   7.109  21.017  0.00  0.00    +0.000 A 
ATOM     22  C   UNL     1       2.096   6.471  20.102  0.00  0.00    +0.000 A 
BRANCH  10  24
ATOM     23  C   UNL     1       1.052   3.298  20.574  0.00  0.00    +0.000 C 
ATOM     24  C   UNL     1       2.223   4.146  21.037  0.00  0.00    +0.000 C 
ENDBRANCH  10  24
ENDBRANCH   1  19
BRANCH   5  25
ATOM     25  C   UNL     1       1.414  16.487  19.191  0.00  0.00    +0.000 A 
ATOM     26  N   UNL     1       0.917  17.545  18.574  0.00  0.00    +0.000 NA
ATOM     27  N   UNL     1       1.674  18.631  18.963  0.00  0.00    +0.000 NA
ATOM     28  N   UNL     1       2.625  18.254  19.808  0.00  0.00    +0.000 NA
ATOM     29  N   UNL     1       2.468  16.932  19.947  0.00  0.00    +0.000 N 
ATOM     30  H   UNL     1       3.089  16.420  20.557  0.00  0.00    +0.000 HD
ENDBRANCH   5  25
BRANCH   9  31
ATOM     31  C   UNL     1      -1.379  10.382  18.704  0.00  0.00    +0.000 C 
BRANCH  31  32
ATOM     32  C   UNL     1      -1.530  10.031  17.223  0.00  0.00    +0.000 C 
BRANCH  32  33
ATOM     33  O   UNL     1      -2.317  11.014  16.549  0.00  0.00    +0.000 OA
ATOM     34  C   UNL     1      -3.013  10.418  15.455  0.00  0.00    +0.000 C 
ENDBRANCH  32  33
ENDBRANCH  31  32
ENDBRANCH   9  31
TORSDOF 6
ENDMDL
