MODEL 1
REMARK VINA RESULT:      -7.9      0.000      0.000
REMARK  Name = 
REMARK  7 active torsions:
REMARK  status: ('A' for Active; 'I' for Inactive)
REMARK    1  A    between atoms: C_1  and  S_2
REMARK    2  A    between atoms: S_2  and  N_5
REMARK    3  A    between atoms: N_8  and  C_9
REMARK    4  A    between atoms: C_15  and  C_16
REMARK    5  A    between atoms: N_18  and  C_19
REMARK    6  A    between atoms: C_19  and  C_20
REMARK    7  A    between atoms: C_20  and  N_21
REMARK                            x       y       z     vdW  Elec       q    Type
REMARK                         _______ _______ _______ _____ _____    ______ ____
ROOT
ATOM      1  C   UNL     1       9.143  15.287  18.155  0.00  0.00    +0.000 A 
ATOM      2  C   UNL     1       9.945  16.115  17.389  0.00  0.00    +0.000 A 
ATOM      3  C   UNL     1      11.053  15.360  16.928  0.00  0.00    +0.000 A 
ATOM      4  C   UNL     1      10.890  14.070  17.383  0.00  0.00    +0.000 A 
ATOM      5  C   UNL     1      11.621  12.858  17.223  0.00  0.00    +0.000 A 
ATOM      6  C   UNL     1      11.143  11.706  17.737  0.00  0.00    +0.000 A 
ATOM      7  C   UNL     1       9.879  11.671  18.469  0.00  0.00    +0.000 A 
ATOM      8  C   UNL     1       9.200  12.820  18.628  0.00  0.00    +0.000 A 
ATOM      9  N   UNL     1       9.704  14.013  18.114  0.00  0.00    +0.000 N 
ENDROOT
BRANCH   1  13
ATOM     10  N   UNL     1       5.405  15.890  20.100  0.00  0.00    +0.000 NA
ATOM     11  C   UNL     1       5.564  15.013  18.888  0.00  0.00    +0.000 C 
ATOM     12  C   UNL     1       6.703  15.514  17.983  0.00  0.00    +0.000 C 
ATOM     13  N   UNL     1       7.948  15.509  18.771  0.00  0.00    +0.000 N 
ATOM     14  C   UNL     1       7.886  16.396  19.955  0.00  0.00    +0.000 C 
ATOM     15  C   UNL     1       6.702  15.974  20.861  0.00  0.00    +0.000 C 
BRANCH  10  17
ATOM     16  C   UNL     1       3.393  17.310  21.149  0.00  0.00    +0.000 C 
ATOM     17  S   UNL     1       4.594  17.359  19.839  0.00  0.00    +0.000 S 
ATOM     18  O   UNL     1       3.874  17.267  18.587  0.00  0.00    +0.000 OA
ATOM     19  O   UNL     1       5.507  18.447  20.102  0.00  0.00    +0.000 OA
ENDBRANCH  10  17
ENDBRANCH   1  13
BRANCH   7  20
ATOM     20  C   UNL     1       9.230  10.437  19.009  0.00  0.00    +0.000 C 
ATOM     21  O   UNL     1       9.211  10.190  20.212  0.00  0.00    +0.000 OA
ATOM     22  N   UNL     1       8.723   9.568  18.073  0.00  0.00    +0.000 N 
ATOM     23  H   UNL     1       8.951   9.714  17.096  0.00  0.00    +0.000 HD
BRANCH  22  24
ATOM     24  C   UNL     1       8.303   8.239  18.475  0.00  0.00    +0.000 C 
BRANCH  24  25
ATOM     25  C   UNL     1       7.425   7.514  17.428  0.00  0.00    +0.000 C 
BRANCH  25  26
ATOM     26  N   UNL     1       6.585   6.445  18.011  0.00  0.00    +0.000 NA
ATOM     27  C   UNL     1       7.198   5.108  17.942  0.00  0.00    +0.000 C 
ATOM     28  C   UNL     1       7.296   4.469  16.564  0.00  0.00    +0.000 C 
ATOM     29  S   UNL     1       5.747   4.490  15.699  0.00  0.00    +0.000 S 
ATOM     30  O   UNL     1       6.033   4.401  14.280  0.00  0.00    +0.000 OA
ATOM     31  O   UNL     1       4.863   3.523  16.325  0.00  0.00    +0.000 OA
ATOM     32  C   UNL     1       5.099   6.109  16.023  0.00  0.00    +0.000 C 
ATOM     33  C   UNL     1       5.203   6.405  17.506  0.00  0.00    +0.000 C 
ENDBRANCH  25  26
ENDBRANCH  24  25
ENDBRANCH  22  24
ENDBRANCH   7  20
TORSDOF 6
ENDMDL
MODEL 2
REMARK VINA RESULT:      -7.9      0.946      1.282
REMARK  Name = 
REMARK  7 active torsions:
REMARK  status: ('A' for Active; 'I' for Inactive)
REMARK    1  A    between atoms: C_1  and  S_2
REMARK    2  A    between atoms: S_2  and  N_5
REMARK    3  A    between atoms: N_8  and  C_9
REMARK    4  A    between atoms: C_15  and  C_16
REMARK    5  A    between atoms: N_18  and  C_19
REMARK    6  A    between atoms: C_19  and  C_20
REMARK    7  A    between atoms: C_20  and  N_21
REMARK                            x       y       z     vdW  Elec       q    Type
REMARK                         _______ _______ _______ _____ _____    ______ ____
ROOT
ATOM      1  C   UNL     1       9.241  15.345  18.225  0.00  0.00    +0.000 A 
ATOM      2  C   UNL     1      10.026  16.184  17.454  0.00  0.00    +0.000 A 
ATOM      3  C   UNL     1      11.104  15.427  16.929  0.00  0.00    +0.000 A 
ATOM      4  C   UNL     1      10.938  14.127  17.351  0.00  0.00    +0.000 A 
ATOM      5  C   UNL     1      11.643  12.910  17.127  0.00  0.00    +0.000 A 
ATOM      6  C   UNL     1      11.166  11.750  17.625  0.00  0.00    +0.000 A 
ATOM      7  C   UNL     1       9.930  11.711  18.403  0.00  0.00    +0.000 A 
ATOM      8  C   UNL     1       9.276  12.865  18.623  0.00  0.00    +0.000 A 
ATOM      9  N   UNL     1       9.779  14.065  18.124  0.00  0.00    +0.000 N 
ENDROOT
BRANCH   1  13
ATOM     10  N   UNL     1       5.591  15.945  20.331  0.00  0.00    +0.000 NA
ATOM     11  C   UNL     1       5.697  15.070  19.112  0.00  0.00    +0.000 C 
ATOM     12  C   UNL     1       6.796  15.573  18.159  0.00  0.00    +0.000 C 
ATOM     13  N   UNL     1       8.073  15.566  18.893  0.00  0.00    +0.000 N 
ATOM     14  C   UNL     1       8.063  16.451  20.080  0.00  0.00    +0.000 C 
ATOM     15  C   UNL     1       6.920  16.028  21.036  0.00  0.00    +0.000 C 
BRANCH  10  17
ATOM     16  C   UNL     1       3.804  17.482  21.600  0.00  0.00    +0.000 C 
ATOM     17  S   UNL     1       4.769  17.415  20.108  0.00  0.00    +0.000 S 
ATOM     18  O   UNL     1       3.849  17.260  19.003  0.00  0.00    +0.000 OA
ATOM     19  O   UNL     1       5.730  18.493  20.141  0.00  0.00    +0.000 OA
ENDBRANCH  10  17
ENDBRANCH   1  13
BRANCH   7  20
ATOM     20  C   UNL     1       9.282  10.472  18.932  0.00  0.00    +0.000 C 
ATOM     21  O   UNL     1       9.345  10.164  20.119  0.00  0.00    +0.000 OA
ATOM     22  N   UNL     1       8.678   9.666  17.995  0.00  0.00    +0.000 N 
ATOM     23  H   UNL     1       8.838   9.854  17.013  0.00  0.00    +0.000 HD
BRANCH  22  24
ATOM     24  C   UNL     1       8.246   8.332  18.365  0.00  0.00    +0.000 C 
BRANCH  24  25
ATOM     25  C   UNL     1       7.365   7.640  17.297  0.00  0.00    +0.000 C 
BRANCH  25  26
ATOM     26  N   UNL     1       7.472   6.164  17.320  0.00  0.00    +0.000 NA
ATOM     27  C   UNL     1       6.849   5.508  16.159  0.00  0.00    +0.000 C 
ATOM     28  C   UNL     1       5.329   5.534  16.089  0.00  0.00    +0.000 C 
ATOM     29  S   UNL     1       4.575   4.980  17.596  0.00  0.00    +0.000 S 
ATOM     30  O   UNL     1       3.239   5.544  17.655  0.00  0.00    +0.000 OA
ATOM     31  O   UNL     1       4.764   3.543  17.698  0.00  0.00    +0.000 OA
ATOM     32  C   UNL     1       5.545   5.747  18.867  0.00  0.00    +0.000 C 
ATOM     33  C   UNL     1       7.017   5.536  18.572  0.00  0.00    +0.000 C 
ENDBRANCH  25  26
ENDBRANCH  24  25
ENDBRANCH  22  24
ENDBRANCH   7  20
TORSDOF 6
ENDMDL
MODEL 3
REMARK VINA RESULT:      -7.7      4.708      7.392
REMARK  Name = 
REMARK  7 active torsions:
REMARK  status: ('A' for Active; 'I' for Inactive)
REMARK    1  A    between atoms: C_1  and  S_2
REMARK    2  A    between atoms: S_2  and  N_5
REMARK    3  A    between atoms: N_8  and  C_9
REMARK    4  A    between atoms: C_15  and  C_16
REMARK    5  A    between atoms: N_18  and  C_19
REMARK    6  A    between atoms: C_19  and  C_20
REMARK    7  A    between atoms: C_20  and  N_21
REMARK                            x       y       z     vdW  Elec       q    Type
REMARK                         _______ _______ _______ _____ _____    ______ ____
ROOT
ATOM      1  C   UNL     1       0.299  12.436  21.318  0.00  0.00    +0.000 A 
ATOM      2  C   UNL     1      -0.502  12.799  22.386  0.00  0.00    +0.000 A 
ATOM      3  C   UNL     1      -1.047  11.620  22.956  0.00  0.00    +0.000 A 
ATOM      4  C   UNL     1      -0.535  10.551  22.254  0.00  0.00    +0.000 A 
ATOM      5  C   UNL     1      -0.660   9.136  22.366  0.00  0.00    +0.000 A 
ATOM      6  C   UNL     1       0.057   8.328  21.557  0.00  0.00    +0.000 A 
ATOM      7  C   UNL     1       0.966   8.875  20.552  0.00  0.00    +0.000 A 
ATOM      8  C   UNL     1       1.068  10.211  20.442  0.00  0.00    +0.000 A 
ATOM      9  N   UNL     1       0.314  11.045  21.265  0.00  0.00    +0.000 N 
ENDROOT
BRANCH   1  13
ATOM     10  N   UNL     1       2.802  14.688  18.713  0.00  0.00    +0.000 NA
ATOM     11  C   UNL     1       3.250  14.211  20.068  0.00  0.00    +0.000 C 
ATOM     12  C   UNL     1       2.066  14.122  21.047  0.00  0.00    +0.000 C 
ATOM     13  N   UNL     1       1.082  13.180  20.486  0.00  0.00    +0.000 N 
ATOM     14  C   UNL     1       0.552  13.611  19.172  0.00  0.00    +0.000 C 
ATOM     15  C   UNL     1       1.721  13.789  18.171  0.00  0.00    +0.000 C 
BRANCH  10  17
ATOM     16  C   UNL     1       3.004  16.637  16.891  0.00  0.00    +0.000 C 
ATOM     17  S   UNL     1       2.524  16.357  18.580  0.00  0.00    +0.000 S 
ATOM     18  O   UNL     1       3.476  17.048  19.422  0.00  0.00    +0.000 OA
ATOM     19  O   UNL     1       1.104  16.602  18.693  0.00  0.00    +0.000 OA
ENDBRANCH  10  17
ENDBRANCH   1  13
BRANCH   7  20
ATOM     20  C   UNL     1       1.856   8.067  19.663  0.00  0.00    +0.000 C 
ATOM     21  O   UNL     1       2.163   8.447  18.536  0.00  0.00    +0.000 OA
ATOM     22  N   UNL     1       2.245   6.844  20.158  0.00  0.00    +0.000 N 
ATOM     23  H   UNL     1       1.796   6.489  20.993  0.00  0.00    +0.000 HD
BRANCH  22  24
ATOM     24  C   UNL     1       2.894   5.887  19.283  0.00  0.00    +0.000 C 
BRANCH  24  25
ATOM     25  C   UNL     1       4.365   6.235  18.952  0.00  0.00    +0.000 C 
BRANCH  25  26
ATOM     26  N   UNL     1       4.633   6.315  17.499  0.00  0.00    +0.000 NA
ATOM     27  C   UNL     1       4.599   5.009  16.819  0.00  0.00    +0.000 C 
ATOM     28  C   UNL     1       5.744   4.052  17.117  0.00  0.00    +0.000 C 
ATOM     29  S   UNL     1       7.333   4.817  16.921  0.00  0.00    +0.000 S 
ATOM     30  O   UNL     1       8.284   4.073  17.724  0.00  0.00    +0.000 OA
ATOM     31  O   UNL     1       7.573   5.009  15.501  0.00  0.00    +0.000 OA
ATOM     32  C   UNL     1       7.131   6.417  17.659  0.00  0.00    +0.000 C 
ATOM     33  C   UNL     1       5.856   7.052  17.141  0.00  0.00    +0.000 C 
ENDBRANCH  25  26
ENDBRANCH  24  25
ENDBRANCH  22  24
ENDBRANCH   7  20
TORSDOF 6
ENDMDL
MODEL 4
REMARK VINA RESULT:      -7.7      4.751      7.525
REMARK  Name = 
REMARK  7 active torsions:
REMARK  status: ('A' for Active; 'I' for Inactive)
REMARK    1  A    between atoms: C_1  and  S_2
REMARK    2  A    between atoms: S_2  and  N_5
REMARK    3  A    between atoms: N_8  and  C_9
REMARK    4  A    between atoms: C_15  and  C_16
REMARK    5  A    between atoms: N_18  and  C_19
REMARK    6  A    between atoms: C_19  and  C_20
REMARK    7  A    between atoms: C_20  and  N_21
REMARK                            x       y       z     vdW  Elec       q    Type
REMARK                         _______ _______ _______ _____ _____    ______ ____
ROOT
ATOM      1  C   UNL     1      -0.127  12.639  21.478  0.00  0.00    +0.000 A 
ATOM      2  C   UNL     1      -0.840  12.892  22.636  0.00  0.00    +0.000 A 
ATOM      3  C   UNL     1      -1.193  11.650  23.222  0.00  0.00    +0.000 A 
ATOM      4  C   UNL     1      -0.654  10.656  22.435  0.00  0.00    +0.000 A 
ATOM      5  C   UNL     1      -0.618   9.234  22.513  0.00  0.00    +0.000 A 
ATOM      6  C   UNL     1       0.086   8.525  21.606  0.00  0.00    +0.000 A 
ATOM      7  C   UNL     1       0.817   9.187  20.529  0.00  0.00    +0.000 A 
ATOM      8  C   UNL     1       0.768  10.528  20.452  0.00  0.00    +0.000 A 
ATOM      9  N   UNL     1       0.026  11.259  21.378  0.00  0.00    +0.000 N 
ENDROOT
BRANCH   1  13
ATOM     10  N   UNL     1       1.776  15.192  18.652  0.00  0.00    +0.000 NA
ATOM     11  C   UNL     1       2.484  14.051  19.330  0.00  0.00    +0.000 C 
ATOM     12  C   UNL     1       1.910  13.795  20.735  0.00  0.00    +0.000 C 
ATOM     13  N   UNL     1       0.478  13.480  20.591  0.00  0.00    +0.000 N 
ATOM     14  C   UNL     1      -0.298  14.582  19.979  0.00  0.00    +0.000 C 
ATOM     15  C   UNL     1       0.294  14.928  18.589  0.00  0.00    +0.000 C 
BRANCH  10  17
ATOM     16  C   UNL     1       3.971  16.492  19.459  0.00  0.00    +0.000 C 
ATOM     17  S   UNL     1       2.237  16.746  19.160  0.00  0.00    +0.000 S 
ATOM     18  O   UNL     1       1.612  17.013  20.436  0.00  0.00    +0.000 OA
ATOM     19  O   UNL     1       2.098  17.658  18.048  0.00  0.00    +0.000 OA
ENDBRANCH  10  17
ENDBRANCH   1  13
BRANCH   7  20
ATOM     20  C   UNL     1       1.683   8.497  19.524  0.00  0.00    +0.000 C 
ATOM     21  O   UNL     1       1.893   8.976  18.412  0.00  0.00    +0.000 OA
ATOM     22  N   UNL     1       2.168   7.265  19.896  0.00  0.00    +0.000 N 
ATOM     23  H   UNL     1       1.795   6.825  20.729  0.00  0.00    +0.000 HD
BRANCH  22  24
ATOM     24  C   UNL     1       2.802   6.412  18.909  0.00  0.00    +0.000 C 
BRANCH  24  25
ATOM     25  C   UNL     1       4.114   5.755  19.398  0.00  0.00    +0.000 C 
BRANCH  25  26
ATOM     26  N   UNL     1       4.759   4.906  18.372  0.00  0.00    +0.000 NA
ATOM     27  C   UNL     1       6.166   4.590  18.665  0.00  0.00    +0.000 C 
ATOM     28  C   UNL     1       7.165   5.732  18.545  0.00  0.00    +0.000 C 
ATOM     29  S   UNL     1       7.028   6.589  16.997  0.00  0.00    +0.000 S 
ATOM     30  O   UNL     1       7.569   7.922  17.181  0.00  0.00    +0.000 OA
ATOM     31  O   UNL     1       7.555   5.727  15.952  0.00  0.00    +0.000 OA
ATOM     32  C   UNL     1       5.279   6.740  16.746  0.00  0.00    +0.000 C 
ATOM     33  C   UNL     1       4.617   5.398  16.991  0.00  0.00    +0.000 C 
ENDBRANCH  25  26
ENDBRANCH  24  25
ENDBRANCH  22  24
ENDBRANCH   7  20
TORSDOF 6
ENDMDL
MODEL 5
REMARK VINA RESULT:      -7.6      4.737      7.499
REMARK  Name = 
REMARK  7 active torsions:
REMARK  status: ('A' for Active; 'I' for Inactive)
REMARK    1  A    between atoms: C_1  and  S_2
REMARK    2  A    between atoms: S_2  and  N_5
REMARK    3  A    between atoms: N_8  and  C_9
REMARK    4  A    between atoms: C_15  and  C_16
REMARK    5  A    between atoms: N_18  and  C_19
REMARK    6  A    between atoms: C_19  and  C_20
REMARK    7  A    between atoms: C_20  and  N_21
REMARK                            x       y       z     vdW  Elec       q    Type
REMARK                         _______ _______ _______ _____ _____    ______ ____
ROOT
ATOM      1  C   UNL     1      -0.096  12.619  21.355  0.00  0.00    +0.000 A 
ATOM      2  C   UNL     1      -0.747  12.776  22.565  0.00  0.00    +0.000 A 
ATOM      3  C   UNL     1      -1.058  11.489  23.074  0.00  0.00    +0.000 A 
ATOM      4  C   UNL     1      -0.554  10.564  22.187  0.00  0.00    +0.000 A 
ATOM      5  C   UNL     1      -0.501   9.141  22.156  0.00  0.00    +0.000 A 
ATOM      6  C   UNL     1       0.158   8.509  21.162  0.00  0.00    +0.000 A 
ATOM      7  C   UNL     1       0.824   9.259  20.100  0.00  0.00    +0.000 A 
ATOM      8  C   UNL     1       0.760  10.601  20.127  0.00  0.00    +0.000 A 
ATOM      9  N   UNL     1       0.063  11.252  21.143  0.00  0.00    +0.000 N 
ENDROOT
BRANCH   1  13
ATOM     10  N   UNL     1       1.626  15.400  18.630  0.00  0.00    +0.000 NA
ATOM     11  C   UNL     1       2.363  14.192  19.141  0.00  0.00    +0.000 C 
ATOM     12  C   UNL     1       1.898  13.814  20.559  0.00  0.00    +0.000 C 
ATOM     13  N   UNL     1       0.453  13.531  20.503  0.00  0.00    +0.000 N 
ATOM     14  C   UNL     1      -0.347  14.695  20.058  0.00  0.00    +0.000 C 
ATOM     15  C   UNL     1       0.139  15.160  18.663  0.00  0.00    +0.000 C 
BRANCH  10  17
ATOM     16  C   UNL     1       3.914  16.628  19.275  0.00  0.00    +0.000 C 
ATOM     17  S   UNL     1       2.157  16.894  19.238  0.00  0.00    +0.000 S 
ATOM     18  O   UNL     1       1.708  17.014  20.608  0.00  0.00    +0.000 OA
ATOM     19  O   UNL     1       1.874  17.920  18.261  0.00  0.00    +0.000 OA
ENDBRANCH  10  17
ENDBRANCH   1  13
BRANCH   7  20
ATOM     20  C   UNL     1       1.640   8.657  19.002  0.00  0.00    +0.000 C 
ATOM     21  O   UNL     1       1.773   9.213  17.914  0.00  0.00    +0.000 OA
ATOM     22  N   UNL     1       2.169   7.414  19.260  0.00  0.00    +0.000 N 
ATOM     23  H   UNL     1       1.857   6.912  20.083  0.00  0.00    +0.000 HD
BRANCH  22  24
ATOM     24  C   UNL     1       2.758   6.643  18.183  0.00  0.00    +0.000 C 
BRANCH  24  25
ATOM     25  C   UNL     1       4.183   7.100  17.790  0.00  0.00    +0.000 C 
BRANCH  25  26
ATOM     26  N   UNL     1       4.839   6.196  16.819  0.00  0.00    +0.000 NA
ATOM     27  C   UNL     1       4.866   4.788  17.248  0.00  0.00    +0.000 C 
ATOM     28  C   UNL     1       5.793   4.442  18.405  0.00  0.00    +0.000 C 
ATOM     29  S   UNL     1       7.441   5.050  18.156  0.00  0.00    +0.000 S 
ATOM     30  O   UNL     1       8.066   5.181  19.458  0.00  0.00    +0.000 OA
ATOM     31  O   UNL     1       8.071   4.246  17.123  0.00  0.00    +0.000 OA
ATOM     32  C   UNL     1       7.200   6.681  17.502  0.00  0.00    +0.000 C 
ATOM     33  C   UNL     1       6.177   6.629  16.384  0.00  0.00    +0.000 C 
ENDBRANCH  25  26
ENDBRANCH  24  25
ENDBRANCH  22  24
ENDBRANCH   7  20
TORSDOF 6
ENDMDL
MODEL 6
REMARK VINA RESULT:      -7.5      6.188      7.884
REMARK  Name = 
REMARK  7 active torsions:
REMARK  status: ('A' for Active; 'I' for Inactive)
REMARK    1  A    between atoms: C_1  and  S_2
REMARK    2  A    between atoms: S_2  and  N_5
REMARK    3  A    between atoms: N_8  and  C_9
REMARK    4  A    between atoms: C_15  and  C_16
REMARK    5  A    between atoms: N_18  and  C_19
REMARK    6  A    between atoms: C_19  and  C_20
REMARK    7  A    between atoms: C_20  and  N_21
REMARK                            x       y       z     vdW  Elec       q    Type
REMARK                         _______ _______ _______ _____ _____    ______ ____
ROOT
ATOM      1  C   UNL     1      -0.309  12.897  21.386  0.00  0.00    +0.000 A 
ATOM      2  C   UNL     1      -0.947  12.959  22.612  0.00  0.00    +0.000 A 
ATOM      3  C   UNL     1      -1.152  11.634  23.074  0.00  0.00    +0.000 A 
ATOM      4  C   UNL     1      -0.597  10.784  22.143  0.00  0.00    +0.000 A 
ATOM      5  C   UNL     1      -0.439   9.370  22.056  0.00  0.00    +0.000 A 
ATOM      6  C   UNL     1       0.247   8.829  21.027  0.00  0.00    +0.000 A 
ATOM      7  C   UNL     1       0.836   9.667  19.985  0.00  0.00    +0.000 A 
ATOM      8  C   UNL     1       0.672  10.998  20.066  0.00  0.00    +0.000 A 
ATOM      9  N   UNL     1      -0.053  11.556  21.118  0.00  0.00    +0.000 N 
ENDROOT
BRANCH   1  13
ATOM     10  N   UNL     1       1.158  15.900  18.749  0.00  0.00    +0.000 NA
ATOM     11  C   UNL     1       2.025  14.802  19.300  0.00  0.00    +0.000 C 
ATOM     12  C   UNL     1       1.543  14.356  20.692  0.00  0.00    +0.000 C 
ATOM     13  N   UNL     1       0.154  13.880  20.562  0.00  0.00    +0.000 N 
ATOM     14  C   UNL     1      -0.772  14.927  20.074  0.00  0.00    +0.000 C 
ATOM     15  C   UNL     1      -0.282  15.461  18.705  0.00  0.00    +0.000 C 
BRANCH  10  17
ATOM     16  C   UNL     1       0.862  18.466  18.047  0.00  0.00    +0.000 C 
ATOM     17  S   UNL     1       1.450  17.449  19.382  0.00  0.00    +0.000 S 
ATOM     18  O   UNL     1       2.880  17.642  19.477  0.00  0.00    +0.000 OA
ATOM     19  O   UNL     1       0.586  17.655  20.522  0.00  0.00    +0.000 OA
ENDBRANCH  10  17
ENDBRANCH   1  13
BRANCH   7  20
ATOM     20  C   UNL     1       1.674   9.170  18.851  0.00  0.00    +0.000 C 
ATOM     21  O   UNL     1       1.783   9.800  17.802  0.00  0.00    +0.000 OA
ATOM     22  N   UNL     1       2.252   7.935  19.029  0.00  0.00    +0.000 N 
ATOM     23  H   UNL     1       1.961   7.368  19.817  0.00  0.00    +0.000 HD
BRANCH  22  24
ATOM     24  C   UNL     1       2.870   7.259  17.905  0.00  0.00    +0.000 C 
BRANCH  24  25
ATOM     25  C   UNL     1       3.743   6.046  18.304  0.00  0.00    +0.000 C 
BRANCH  25  26
ATOM     26  N   UNL     1       3.288   4.775  17.697  0.00  0.00    +0.000 NA
ATOM     27  C   UNL     1       1.866   4.481  17.937  0.00  0.00    +0.000 C 
ATOM     28  C   UNL     1       1.474   4.101  19.357  0.00  0.00    +0.000 C 
ATOM     29  S   UNL     1       2.498   2.812  20.018  0.00  0.00    +0.000 S 
ATOM     30  O   UNL     1       2.446   2.904  21.465  0.00  0.00    +0.000 OA
ATOM     31  O   UNL     1       2.146   1.568  19.355  0.00  0.00    +0.000 OA
ATOM     32  C   UNL     1       4.135   3.259  19.503  0.00  0.00    +0.000 C 
ATOM     33  C   UNL     1       4.120   3.606  18.027  0.00  0.00    +0.000 C 
ENDBRANCH  25  26
ENDBRANCH  24  25
ENDBRANCH  22  24
ENDBRANCH   7  20
TORSDOF 6
ENDMDL
MODEL 7
REMARK VINA RESULT:      -7.5      4.804      7.438
REMARK  Name = 
REMARK  7 active torsions:
REMARK  status: ('A' for Active; 'I' for Inactive)
REMARK    1  A    between atoms: C_1  and  S_2
REMARK    2  A    between atoms: S_2  and  N_5
REMARK    3  A    between atoms: N_8  and  C_9
REMARK    4  A    between atoms: C_15  and  C_16
REMARK    5  A    between atoms: N_18  and  C_19
REMARK    6  A    between atoms: C_19  and  C_20
REMARK    7  A    between atoms: C_20  and  N_21
REMARK                            x       y       z     vdW  Elec       q    Type
REMARK                         _______ _______ _______ _____ _____    ______ ____
ROOT
ATOM      1  C   UNL     1       0.004  11.934  21.300  0.00  0.00    +0.000 A 
ATOM      2  C   UNL     1      -0.694  12.064  22.488  0.00  0.00    +0.000 A 
ATOM      3  C   UNL     1      -0.928  10.768  23.012  0.00  0.00    +0.000 A 
ATOM      4  C   UNL     1      -0.331   9.866  22.159  0.00  0.00    +0.000 A 
ATOM      5  C   UNL     1      -0.176   8.450  22.157  0.00  0.00    +0.000 A 
ATOM      6  C   UNL     1       0.558   7.851  21.196  0.00  0.00    +0.000 A 
ATOM      7  C   UNL     1       1.202   8.628  20.140  0.00  0.00    +0.000 A 
ATOM      8  C   UNL     1       1.040   9.963  20.139  0.00  0.00    +0.000 A 
ATOM      9  N   UNL     1       0.267  10.579  21.121  0.00  0.00    +0.000 N 
ENDROOT
BRANCH   1  13
ATOM     10  N   UNL     1       1.606  14.785  18.574  0.00  0.00    +0.000 NA
ATOM     11  C   UNL     1       2.410  13.639  19.126  0.00  0.00    +0.000 C 
ATOM     12  C   UNL     1       1.932  13.251  20.537  0.00  0.00    +0.000 C 
ATOM     13  N   UNL     1       0.512  12.868  20.448  0.00  0.00    +0.000 N 
ATOM     14  C   UNL     1      -0.353  13.967  19.963  0.00  0.00    +0.000 C 
ATOM     15  C   UNL     1       0.139  14.444  18.573  0.00  0.00    +0.000 C 
BRANCH  10  17
ATOM     16  C   UNL     1       3.652  16.508  18.500  0.00  0.00    +0.000 C 
ATOM     17  S   UNL     1       2.017  16.320  19.171  0.00  0.00    +0.000 S 
ATOM     18  O   UNL     1       2.146  16.232  20.609  0.00  0.00    +0.000 OA
ATOM     19  O   UNL     1       1.158  17.304  18.553  0.00  0.00    +0.000 OA
ENDBRANCH  10  17
ENDBRANCH   1  13
BRANCH   7  20
ATOM     20  C   UNL     1       2.093   8.068  19.078  0.00  0.00    +0.000 C 
ATOM     21  O   UNL     1       2.304   8.667  18.027  0.00  0.00    +0.000 OA
ATOM     22  N   UNL     1       2.599   6.813  19.322  0.00  0.00    +0.000 N 
ATOM     23  H   UNL     1       2.227   6.278  20.098  0.00  0.00    +0.000 HD
BRANCH  22  24
ATOM     24  C   UNL     1       3.262   6.084  18.258  0.00  0.00    +0.000 C 
BRANCH  24  25
ATOM     25  C   UNL     1       4.694   5.620  18.613  0.00  0.00    +0.000 C 
BRANCH  25  26
ATOM     26  N   UNL     1       5.747   6.407  17.932  0.00  0.00    +0.000 NA
ATOM     27  C   UNL     1       5.363   6.871  16.589  0.00  0.00    +0.000 C 
ATOM     28  C   UNL     1       5.259   5.813  15.501  0.00  0.00    +0.000 C 
ATOM     29  S   UNL     1       6.704   4.787  15.416  0.00  0.00    +0.000 S 
ATOM     30  O   UNL     1       6.320   3.532  14.799  0.00  0.00    +0.000 OA
ATOM     31  O   UNL     1       7.787   5.574  14.852  0.00  0.00    +0.000 OA
ATOM     32  C   UNL     1       7.097   4.461  17.115  0.00  0.00    +0.000 C 
ATOM     33  C   UNL     1       7.069   5.760  17.896  0.00  0.00    +0.000 C 
ENDBRANCH  25  26
ENDBRANCH  24  25
ENDBRANCH  22  24
ENDBRANCH   7  20
TORSDOF 6
ENDMDL
MODEL 8
REMARK VINA RESULT:      -7.4      4.822     11.466
REMARK  Name = 
REMARK  7 active torsions:
REMARK  status: ('A' for Active; 'I' for Inactive)
REMARK    1  A    between atoms: C_1  and  S_2
REMARK    2  A    between atoms: S_2  and  N_5
REMARK    3  A    between atoms: N_8  and  C_9
REMARK    4  A    between atoms: C_15  and  C_16
REMARK    5  A    between atoms: N_18  and  C_19
REMARK    6  A    between atoms: C_19  and  C_20
REMARK    7  A    between atoms: C_20  and  N_21
REMARK                            x       y       z     vdW  Elec       q    Type
REMARK                         _______ _______ _______ _____ _____    ______ ____
ROOT
ATOM      1  C   UNL     1       3.328   4.877  19.567  0.00  0.00    +0.000 A 
ATOM      2  C   UNL     1       2.814   3.996  20.502  0.00  0.00    +0.000 A 
ATOM      3  C   UNL     1       1.847   4.683  21.278  0.00  0.00    +0.000 A 
ATOM      4  C   UNL     1       1.753   5.963  20.777  0.00  0.00    +0.000 A 
ATOM      5  C   UNL     1       0.947   7.096  21.087  0.00  0.00    +0.000 A 
ATOM      6  C   UNL     1       1.033   8.214  20.335  0.00  0.00    +0.000 A 
ATOM      7  C   UNL     1       1.948   8.293  19.199  0.00  0.00    +0.000 A 
ATOM      8  C   UNL     1       2.716   7.225  18.920  0.00  0.00    +0.000 A 
ATOM      9  N   UNL     1       2.640   6.079  19.708  0.00  0.00    +0.000 N 
ENDROOT
BRANCH   1  13
ATOM     10  N   UNL     1       6.180   4.240  16.471  0.00  0.00    +0.000 NA
ATOM     11  C   UNL     1       6.569   4.485  17.903  0.00  0.00    +0.000 C 
ATOM     12  C   UNL     1       5.537   5.378  18.616  0.00  0.00    +0.000 C 
ATOM     13  N   UNL     1       4.231   4.698  18.562  0.00  0.00    +0.000 N 
ATOM     14  C   UNL     1       3.755   4.471  17.178  0.00  0.00    +0.000 C 
ATOM     15  C   UNL     1       4.801   3.638  16.396  0.00  0.00    +0.000 C 
BRANCH  10  17
ATOM     16  C   UNL     1       6.844   4.617  13.906  0.00  0.00    +0.000 C 
ATOM     17  S   UNL     1       6.496   5.518  15.398  0.00  0.00    +0.000 S 
ATOM     18  O   UNL     1       7.722   6.167  15.809  0.00  0.00    +0.000 OA
ATOM     19  O   UNL     1       5.278   6.270  15.199  0.00  0.00    +0.000 OA
ENDBRANCH  10  17
ENDBRANCH   1  13
BRANCH   7  20
ATOM     20  C   UNL     1       2.062   9.454  18.264  0.00  0.00    +0.000 C 
ATOM     21  O   UNL     1       2.364   9.306  17.082  0.00  0.00    +0.000 OA
ATOM     22  N   UNL     1       1.880  10.696  18.825  0.00  0.00    +0.000 N 
ATOM     23  H   UNL     1       1.845  10.775  19.835  0.00  0.00    +0.000 HD
BRANCH  22  24
ATOM     24  C   UNL     1       2.215  11.886  18.067  0.00  0.00    +0.000 C 
BRANCH  24  25
ATOM     25  C   UNL     1       1.499  13.166  18.560  0.00  0.00    +0.000 C 
BRANCH  25  26
ATOM     26  N   UNL     1       2.311  13.957  19.512  0.00  0.00    +0.000 NA
ATOM     27  C   UNL     1       1.621  15.151  20.027  0.00  0.00    +0.000 C 
ATOM     28  C   UNL     1       1.407  16.295  19.046  0.00  0.00    +0.000 C 
ATOM     29  S   UNL     1       2.901  16.752  18.205  0.00  0.00    +0.000 S 
ATOM     30  O   UNL     1       2.528  17.401  16.963  0.00  0.00    +0.000 OA
ATOM     31  O   UNL     1       3.766  17.435  19.152  0.00  0.00    +0.000 OA
ATOM     32  C   UNL     1       3.657  15.198  17.802  0.00  0.00    +0.000 C 
ATOM     33  C   UNL     1       3.657  14.306  19.028  0.00  0.00    +0.000 C 
ENDBRANCH  25  26
ENDBRANCH  24  25
ENDBRANCH  22  24
ENDBRANCH   7  20
TORSDOF 6
ENDMDL
MODEL 9
REMARK VINA RESULT:      -7.3      4.597     11.265
REMARK  Name = 
REMARK  7 active torsions:
REMARK  status: ('A' for Active; 'I' for Inactive)
REMARK    1  A    between atoms: C_1  and  S_2
REMARK    2  A    between atoms: S_2  and  N_5
REMARK    3  A    between atoms: N_8  and  C_9
REMARK    4  A    between atoms: C_15  and  C_16
REMARK    5  A    between atoms: N_18  and  C_19
REMARK    6  A    between atoms: C_19  and  C_20
REMARK    7  A    between atoms: C_20  and  N_21
REMARK                            x       y       z     vdW  Elec       q    Type
REMARK                         _______ _______ _______ _____ _____    ______ ____
ROOT
ATOM      1  C   UNL     1       3.585   5.745  19.274  0.00  0.00    +0.000 A 
ATOM      2  C   UNL     1       3.241   4.641  20.033  0.00  0.00    +0.000 A 
ATOM      3  C   UNL     1       2.162   5.001  20.880  0.00  0.00    +0.000 A 
ATOM      4  C   UNL     1       1.834   6.308  20.594  0.00  0.00    +0.000 A 
ATOM      5  C   UNL     1       0.832   7.207  21.060  0.00  0.00    +0.000 A 
ATOM      6  C   UNL     1       0.712   8.432  20.506  0.00  0.00    +0.000 A 
ATOM      7  C   UNL     1       1.598   8.866  19.429  0.00  0.00    +0.000 A 
ATOM      8  C   UNL     1       2.550   8.018  19.003  0.00  0.00    +0.000 A 
ATOM      9  N   UNL     1       2.687   6.761  19.588  0.00  0.00    +0.000 N 
ENDROOT
BRANCH   1  13
ATOM     10  N   UNL     1       6.436   6.329  16.167  0.00  0.00    +0.000 NA
ATOM     11  C   UNL     1       4.951   6.368  15.932  0.00  0.00    +0.000 C 
ATOM     12  C   UNL     1       4.206   5.447  16.916  0.00  0.00    +0.000 C 
ATOM     13  N   UNL     1       4.508   5.904  18.283  0.00  0.00    +0.000 N 
ATOM     14  C   UNL     1       5.951   5.843  18.609  0.00  0.00    +0.000 C 
ATOM     15  C   UNL     1       6.751   6.697  17.594  0.00  0.00    +0.000 C 
BRANCH  10  17
ATOM     16  C   UNL     1       5.856   3.962  15.063  0.00  0.00    +0.000 C 
ATOM     17  S   UNL     1       7.240   4.966  15.551  0.00  0.00    +0.000 S 
ATOM     18  O   UNL     1       7.900   4.291  16.647  0.00  0.00    +0.000 OA
ATOM     19  O   UNL     1       7.962   5.352  14.360  0.00  0.00    +0.000 OA
ENDBRANCH  10  17
ENDBRANCH   1  13
BRANCH   7  20
ATOM     20  C   UNL     1       1.498  10.169  18.702  0.00  0.00    +0.000 C 
ATOM     21  O   UNL     1       2.138  10.389  17.677  0.00  0.00    +0.000 OA
ATOM     22  N   UNL     1       0.703  11.124  19.291  0.00  0.00    +0.000 N 
ATOM     23  H   UNL     1       0.371  10.968  20.236  0.00  0.00    +0.000 HD
BRANCH  22  24
ATOM     24  C   UNL     1       0.738  12.490  18.806  0.00  0.00    +0.000 C 
BRANCH  24  25
ATOM     25  C   UNL     1       1.450  13.477  19.761  0.00  0.00    +0.000 C 
BRANCH  25  26
ATOM     26  N   UNL     1       2.849  13.760  19.371  0.00  0.00    +0.000 NA
ATOM     27  C   UNL     1       3.639  14.407  20.431  0.00  0.00    +0.000 C 
ATOM     28  C   UNL     1       3.293  15.853  20.759  0.00  0.00    +0.000 C 
ATOM     29  S   UNL     1       3.234  16.878  19.312  0.00  0.00    +0.000 S 
ATOM     30  O   UNL     1       2.392  18.020  19.613  0.00  0.00    +0.000 OA
ATOM     31  O   UNL     1       4.593  17.080  18.842  0.00  0.00    +0.000 OA
ATOM     32  C   UNL     1       2.388  15.879  18.115  0.00  0.00    +0.000 C 
ATOM     33  C   UNL     1       2.995  14.490  18.100  0.00  0.00    +0.000 C 
ENDBRANCH  25  26
ENDBRANCH  24  25
ENDBRANCH  22  24
ENDBRANCH   7  20
TORSDOF 6
ENDMDL
