MODEL 1
REMARK VINA RESULT:      -7.9      0.000      0.000
REMARK  Name = 
REMARK  4 active torsions:
REMARK  status: ('A' for Active; 'I' for Inactive)
REMARK    1  A    between atoms: C_1  and  N_2
REMARK    2  A    between atoms: C_5  and  C_6
REMARK    3  A    between atoms: C_6  and  C_7
REMARK    4  A    between atoms: N_22  and  C_23
REMARK                            x       y       z     vdW  Elec       q    Type
REMARK                         _______ _______ _______ _____ _____    ______ ____
ROOT
ATOM      1  C   UNL     1       1.937   8.442  18.478  0.00  0.00    +0.000 A 
ATOM      2  N   UNL     1       2.327   9.273  17.476  0.00  0.00    +0.000 NA
ATOM      3  C   UNL     1       2.182  10.609  17.612  0.00  0.00    +0.000 A 
ATOM      4  C   UNL     1       1.589  11.231  18.698  0.00  0.00    +0.000 A 
ATOM      5  C   UNL     1       1.142  10.396  19.731  0.00  0.00    +0.000 A 
ATOM      6  C   UNL     1       1.369   9.023  19.619  0.00  0.00    +0.000 A 
ATOM      7  N   UNL     1       0.904   8.447  20.780  0.00  0.00    +0.000 N 
ATOM      8  C   UNL     1       0.251   9.369  21.558  0.00  0.00    +0.000 A 
ATOM      9  C   UNL     1      -0.465   9.193  22.747  0.00  0.00    +0.000 A 
ATOM     10  C   UNL     1      -1.066  10.321  23.310  0.00  0.00    +0.000 A 
ATOM     11  C   UNL     1      -0.932  11.575  22.721  0.00  0.00    +0.000 A 
ATOM     12  C   UNL     1      -0.192  11.737  21.543  0.00  0.00    +0.000 A 
ATOM     13  C   UNL     1       0.402  10.610  20.938  0.00  0.00    +0.000 A 
ATOM     14  H   UNL     1       0.949   7.458  20.992  0.00  0.00    +0.000 HD
ENDROOT
BRANCH   1  15
ATOM     15  C   UNL     1       2.044   6.961  18.233  0.00  0.00    +0.000 C 
BRANCH  15  20
ATOM     16  C   UNL     1       5.073   4.064  16.539  0.00  0.00    +0.000 C 
ATOM     17  N   UNL     1       4.236   4.507  17.639  0.00  0.00    +0.000 N 
ATOM     18  C   UNL     1       4.282   5.836  18.006  0.00  0.00    +0.000 C 
ATOM     19  O   UNL     1       5.130   6.627  17.592  0.00  0.00    +0.000 OA
ATOM     20  C   UNL     1       3.223   6.296  18.959  0.00  0.00    +0.000 C 
ATOM     21  C   UNL     1       2.730   5.239  19.897  0.00  0.00    +0.000 C 
ATOM     22  O   UNL     1       2.058   5.567  20.880  0.00  0.00    +0.000 OA
ATOM     23  N   UNL     1       2.972   3.926  19.549  0.00  0.00    +0.000 N 
ATOM     24  C   UNL     1       2.437   2.869  20.392  0.00  0.00    +0.000 C 
ATOM     25  C   UNL     1       3.644   3.515  18.406  0.00  0.00    +0.000 C 
ATOM     26  O   UNL     1       3.755   2.322  18.116  0.00  0.00    +0.000 OA
ENDBRANCH  15  20
ENDBRANCH   1  15
TORSDOF 2
ENDMDL
MODEL 2
REMARK VINA RESULT:      -7.8      1.269      2.208
REMARK  Name = 
REMARK  4 active torsions:
REMARK  status: ('A' for Active; 'I' for Inactive)
REMARK    1  A    between atoms: C_1  and  N_2
REMARK    2  A    between atoms: C_5  and  C_6
REMARK    3  A    between atoms: C_6  and  C_7
REMARK    4  A    between atoms: N_22  and  C_23
REMARK                            x       y       z     vdW  Elec       q    Type
REMARK                         _______ _______ _______ _____ _____    ______ ____
ROOT
ATOM      1  C   UNL     1       1.994   7.935  19.344  0.00  0.00    +0.000 A 
ATOM      2  N   UNL     1       2.158   8.311  18.048  0.00  0.00    +0.000 NA
ATOM      3  C   UNL     1       1.678   9.502  17.626  0.00  0.00    +0.000 A 
ATOM      4  C   UNL     1       0.949  10.381  18.409  0.00  0.00    +0.000 A 
ATOM      5  C   UNL     1       0.732  10.002  19.740  0.00  0.00    +0.000 A 
ATOM      6  C   UNL     1       1.299   8.808  20.190  0.00  0.00    +0.000 A 
ATOM      7  N   UNL     1       0.998   8.705  21.530  0.00  0.00    +0.000 N 
ATOM      8  C   UNL     1       0.134   9.699  21.917  0.00  0.00    +0.000 A 
ATOM      9  C   UNL     1      -0.511   9.899  23.142  0.00  0.00    +0.000 A 
ATOM     10  C   UNL     1      -1.377  10.990  23.243  0.00  0.00    +0.000 A 
ATOM     11  C   UNL     1      -1.567  11.857  22.170  0.00  0.00    +0.000 A 
ATOM     12  C   UNL     1      -0.896  11.654  20.959  0.00  0.00    +0.000 A 
ATOM     13  C   UNL     1      -0.036  10.544  20.820  0.00  0.00    +0.000 A 
ATOM     14  H   UNL     1       1.293   7.947  22.131  0.00  0.00    +0.000 HD
ENDROOT
BRANCH   1  15
ATOM     15  C   UNL     1       2.472   6.562  19.734  0.00  0.00    +0.000 C 
BRANCH  15  20
ATOM     16  C   UNL     1       2.419   2.052  19.441  0.00  0.00    +0.000 C 
ATOM     17  N   UNL     1       3.046   3.324  19.131  0.00  0.00    +0.000 N 
ATOM     18  C   UNL     1       2.264   4.327  18.597  0.00  0.00    +0.000 C 
ATOM     19  O   UNL     1       1.118   4.151  18.184  0.00  0.00    +0.000 OA
ATOM     20  C   UNL     1       2.886   5.689  18.540  0.00  0.00    +0.000 C 
ATOM     21  C   UNL     1       4.375   5.685  18.386  0.00  0.00    +0.000 C 
ATOM     22  O   UNL     1       4.953   6.731  18.072  0.00  0.00    +0.000 OA
ATOM     23  N   UNL     1       5.039   4.520  18.711  0.00  0.00    +0.000 N 
ATOM     24  C   UNL     1       6.491   4.504  18.654  0.00  0.00    +0.000 C 
ATOM     25  C   UNL     1       4.431   3.355  19.156  0.00  0.00    +0.000 C 
ATOM     26  O   UNL     1       5.093   2.374  19.504  0.00  0.00    +0.000 OA
ENDBRANCH  15  20
ENDBRANCH   1  15
TORSDOF 2
ENDMDL
MODEL 3
REMARK VINA RESULT:      -7.7      2.425      7.328
REMARK  Name = 
REMARK  4 active torsions:
REMARK  status: ('A' for Active; 'I' for Inactive)
REMARK    1  A    between atoms: C_1  and  N_2
REMARK    2  A    between atoms: C_5  and  C_6
REMARK    3  A    between atoms: C_6  and  C_7
REMARK    4  A    between atoms: N_22  and  C_23
REMARK                            x       y       z     vdW  Elec       q    Type
REMARK                         _______ _______ _______ _____ _____    ______ ____
ROOT
ATOM      1  C   UNL     1       2.074   6.462  20.247  0.00  0.00    +0.000 A 
ATOM      2  N   UNL     1       1.249   5.503  20.743  0.00  0.00    +0.000 NA
ATOM      3  C   UNL     1       1.308   4.244  20.254  0.00  0.00    +0.000 A 
ATOM      4  C   UNL     1       2.119   3.843  19.206  0.00  0.00    +0.000 A 
ATOM      5  C   UNL     1       2.953   4.821  18.649  0.00  0.00    +0.000 A 
ATOM      6  C   UNL     1       2.945   6.098  19.213  0.00  0.00    +0.000 A 
ATOM      7  N   UNL     1       3.890   6.838  18.536  0.00  0.00    +0.000 N 
ATOM      8  C   UNL     1       4.386   6.137  17.465  0.00  0.00    +0.000 A 
ATOM      9  C   UNL     1       5.266   6.546  16.457  0.00  0.00    +0.000 A 
ATOM     10  C   UNL     1       5.575   5.620  15.458  0.00  0.00    +0.000 A 
ATOM     11  C   UNL     1       5.045   4.332  15.485  0.00  0.00    +0.000 A 
ATOM     12  C   UNL     1       4.185   3.933  16.514  0.00  0.00    +0.000 A 
ATOM     13  C   UNL     1       3.835   4.857  17.522  0.00  0.00    +0.000 A 
ATOM     14  H   UNL     1       4.120   7.802  18.737  0.00  0.00    +0.000 HD
ENDROOT
BRANCH   1  15
ATOM     15  C   UNL     1       1.902   7.863  20.770  0.00  0.00    +0.000 C 
BRANCH  15  20
ATOM     16  C   UNL     1       1.623  11.940  18.836  0.00  0.00    +0.000 C 
ATOM     17  N   UNL     1       1.065  10.920  19.704  0.00  0.00    +0.000 N 
ATOM     18  C   UNL     1       0.982   9.627  19.230  0.00  0.00    +0.000 C 
ATOM     19  O   UNL     1       1.168   9.321  18.052  0.00  0.00    +0.000 OA
ATOM     20  C   UNL     1       0.648   8.573  20.240  0.00  0.00    +0.000 C 
ATOM     21  C   UNL     1      -0.203   9.049  21.376  0.00  0.00    +0.000 C 
ATOM     22  O   UNL     1      -0.746   8.221  22.115  0.00  0.00    +0.000 OA
ATOM     23  N   UNL     1      -0.250  10.410  21.600  0.00  0.00    +0.000 N 
ATOM     24  C   UNL     1      -0.998  10.905  22.744  0.00  0.00    +0.000 C 
ATOM     25  C   UNL     1       0.420  11.365  20.849  0.00  0.00    +0.000 C 
ATOM     26  O   UNL     1       0.398  12.559  21.154  0.00  0.00    +0.000 OA
ENDBRANCH  15  20
ENDBRANCH   1  15
TORSDOF 2
ENDMDL
MODEL 4
REMARK VINA RESULT:      -7.6      1.216      2.476
REMARK  Name = 
REMARK  4 active torsions:
REMARK  status: ('A' for Active; 'I' for Inactive)
REMARK    1  A    between atoms: C_1  and  N_2
REMARK    2  A    between atoms: C_5  and  C_6
REMARK    3  A    between atoms: C_6  and  C_7
REMARK    4  A    between atoms: N_22  and  C_23
REMARK                            x       y       z     vdW  Elec       q    Type
REMARK                         _______ _______ _______ _____ _____    ______ ____
ROOT
ATOM      1  C   UNL     1       2.301   7.758  19.314  0.00  0.00    +0.000 A 
ATOM      2  N   UNL     1       2.344   8.098  17.999  0.00  0.00    +0.000 NA
ATOM      3  C   UNL     1       1.722   9.219  17.571  0.00  0.00    +0.000 A 
ATOM      4  C   UNL     1       0.959  10.051  18.373  0.00  0.00    +0.000 A 
ATOM      5  C   UNL     1       0.865   9.704  19.727  0.00  0.00    +0.000 A 
ATOM      6  C   UNL     1       1.577   8.590  20.176  0.00  0.00    +0.000 A 
ATOM      7  N   UNL     1       1.373   8.510  21.536  0.00  0.00    +0.000 N 
ATOM      8  C   UNL     1       0.439   9.428  21.947  0.00  0.00    +0.000 A 
ATOM      9  C   UNL     1      -0.144   9.611  23.206  0.00  0.00    +0.000 A 
ATOM     10  C   UNL     1      -1.107  10.614  23.329  0.00  0.00    +0.000 A 
ATOM     11  C   UNL     1      -1.451  11.416  22.244  0.00  0.00    +0.000 A 
ATOM     12  C   UNL     1      -0.840  11.234  20.998  0.00  0.00    +0.000 A 
ATOM     13  C   UNL     1       0.117  10.210  20.838  0.00  0.00    +0.000 A 
ATOM     14  H   UNL     1       1.780   7.807  22.140  0.00  0.00    +0.000 HD
ENDROOT
BRANCH   1  15
ATOM     15  C   UNL     1       2.939   6.455  19.715  0.00  0.00    +0.000 C 
BRANCH  15  20
ATOM     16  C   UNL     1       2.257   2.342  21.464  0.00  0.00    +0.000 C 
ATOM     17  N   UNL     1       2.615   3.185  20.339  0.00  0.00    +0.000 N 
ATOM     18  C   UNL     1       1.785   4.240  20.018  0.00  0.00    +0.000 C 
ATOM     19  O   UNL     1       0.662   4.393  20.500  0.00  0.00    +0.000 OA
ATOM     20  C   UNL     1       2.322   5.227  19.028  0.00  0.00    +0.000 C 
ATOM     21  C   UNL     1       3.279   4.649  18.033  0.00  0.00    +0.000 C 
ATOM     22  O   UNL     1       3.576   5.304  17.028  0.00  0.00    +0.000 OA
ATOM     23  N   UNL     1       3.864   3.440  18.350  0.00  0.00    +0.000 N 
ATOM     24  C   UNL     1       4.861   2.888  17.447  0.00  0.00    +0.000 C 
ATOM     25  C   UNL     1       3.625   2.719  19.511  0.00  0.00    +0.000 C 
ATOM     26  O   UNL     1       4.243   1.684  19.767  0.00  0.00    +0.000 OA
ENDBRANCH  15  20
ENDBRANCH   1  15
TORSDOF 2
ENDMDL
MODEL 5
REMARK VINA RESULT:      -7.4      2.432      4.175
REMARK  Name = 
REMARK  4 active torsions:
REMARK  status: ('A' for Active; 'I' for Inactive)
REMARK    1  A    between atoms: C_1  and  N_2
REMARK    2  A    between atoms: C_5  and  C_6
REMARK    3  A    between atoms: C_6  and  C_7
REMARK    4  A    between atoms: N_22  and  C_23
REMARK                            x       y       z     vdW  Elec       q    Type
REMARK                         _______ _______ _______ _____ _____    ______ ____
ROOT
ATOM      1  C   UNL     1       5.084   4.970  18.274  0.00  0.00    +0.000 A 
ATOM      2  N   UNL     1       5.669   4.943  17.048  0.00  0.00    +0.000 NA
ATOM      3  C   UNL     1       5.427   5.935  16.163  0.00  0.00    +0.000 A 
ATOM      4  C   UNL     1       4.550   6.985  16.376  0.00  0.00    +0.000 A 
ATOM      5  C   UNL     1       3.903   7.018  17.619  0.00  0.00    +0.000 A 
ATOM      6  C   UNL     1       4.219   6.035  18.558  0.00  0.00    +0.000 A 
ATOM      7  N   UNL     1       3.509   6.331  19.699  0.00  0.00    +0.000 N 
ATOM      8  C   UNL     1       2.636   7.367  19.479  0.00  0.00    +0.000 A 
ATOM      9  C   UNL     1       1.655   7.907  20.318  0.00  0.00    +0.000 A 
ATOM     10  C   UNL     1       0.876   8.949  19.811  0.00  0.00    +0.000 A 
ATOM     11  C   UNL     1       1.090   9.445  18.527  0.00  0.00    +0.000 A 
ATOM     12  C   UNL     1       2.091   8.908  17.710  0.00  0.00    +0.000 A 
ATOM     13  C   UNL     1       2.874   7.836  18.187  0.00  0.00    +0.000 A 
ATOM     14  H   UNL     1       3.549   5.799  20.559  0.00  0.00    +0.000 HD
ENDROOT
BRANCH   1  15
ATOM     15  C   UNL     1       5.323   3.795  19.184  0.00  0.00    +0.000 C 
BRANCH  15  20
ATOM     16  C   UNL     1       1.143   4.171  17.504  0.00  0.00    +0.000 C 
ATOM     17  N   UNL     1       2.057   3.620  18.487  0.00  0.00    +0.000 N 
ATOM     18  C   UNL     1       3.218   3.023  18.041  0.00  0.00    +0.000 C 
ATOM     19  O   UNL     1       3.435   2.753  16.860  0.00  0.00    +0.000 OA
ATOM     20  C   UNL     1       4.243   2.707  19.087  0.00  0.00    +0.000 C 
ATOM     21  C   UNL     1       3.676   2.411  20.441  0.00  0.00    +0.000 C 
ATOM     22  O   UNL     1       4.398   1.892  21.299  0.00  0.00    +0.000 OA
ATOM     23  N   UNL     1       2.388   2.836  20.691  0.00  0.00    +0.000 N 
ATOM     24  C   UNL     1       1.833   2.641  22.021  0.00  0.00    +0.000 C 
ATOM     25  C   UNL     1       1.578   3.504  19.783  0.00  0.00    +0.000 C 
ATOM     26  O   UNL     1       0.464   3.926  20.100  0.00  0.00    +0.000 OA
ENDBRANCH  15  20
ENDBRANCH   1  15
TORSDOF 2
ENDMDL
MODEL 6
REMARK VINA RESULT:      -7.4      3.258      7.788
REMARK  Name = 
REMARK  4 active torsions:
REMARK  status: ('A' for Active; 'I' for Inactive)
REMARK    1  A    between atoms: C_1  and  N_2
REMARK    2  A    between atoms: C_5  and  C_6
REMARK    3  A    between atoms: C_6  and  C_7
REMARK    4  A    between atoms: N_22  and  C_23
REMARK                            x       y       z     vdW  Elec       q    Type
REMARK                         _______ _______ _______ _____ _____    ______ ____
ROOT
ATOM      1  C   UNL     1       5.834   4.586  17.969  0.00  0.00    +0.000 A 
ATOM      2  N   UNL     1       6.563   5.454  18.719  0.00  0.00    +0.000 NA
ATOM      3  C   UNL     1       7.420   6.310  18.118  0.00  0.00    +0.000 A 
ATOM      4  C   UNL     1       7.681   6.340  16.759  0.00  0.00    +0.000 A 
ATOM      5  C   UNL     1       6.971   5.429  15.965  0.00  0.00    +0.000 A 
ATOM      6  C   UNL     1       6.029   4.604  16.582  0.00  0.00    +0.000 A 
ATOM      7  N   UNL     1       5.433   3.866  15.585  0.00  0.00    +0.000 N 
ATOM      8  C   UNL     1       6.060   4.069  14.381  0.00  0.00    +0.000 A 
ATOM      9  C   UNL     1       5.857   3.442  13.147  0.00  0.00    +0.000 A 
ATOM     10  C   UNL     1       6.677   3.829  12.085  0.00  0.00    +0.000 A 
ATOM     11  C   UNL     1       7.640   4.822  12.248  0.00  0.00    +0.000 A 
ATOM     12  C   UNL     1       7.814   5.455  13.484  0.00  0.00    +0.000 A 
ATOM     13  C   UNL     1       7.017   5.064  14.581  0.00  0.00    +0.000 A 
ATOM     14  H   UNL     1       4.695   3.189  15.731  0.00  0.00    +0.000 HD
ENDROOT
BRANCH   1  15
ATOM     15  C   UNL     1       4.963   3.600  18.699  0.00  0.00    +0.000 C 
BRANCH  15  20
ATOM     16  C   UNL     1       2.355   7.225  19.402  0.00  0.00    +0.000 C 
ATOM     17  N   UNL     1       2.528   5.784  19.393  0.00  0.00    +0.000 N 
ATOM     18  C   UNL     1       3.066   5.195  18.268  0.00  0.00    +0.000 C 
ATOM     19  O   UNL     1       3.225   5.787  17.200  0.00  0.00    +0.000 OA
ATOM     20  C   UNL     1       3.465   3.758  18.401  0.00  0.00    +0.000 C 
ATOM     21  C   UNL     1       2.651   2.976  19.384  0.00  0.00    +0.000 C 
ATOM     22  O   UNL     1       2.721   1.743  19.384  0.00  0.00    +0.000 OA
ATOM     23  N   UNL     1       1.936   3.693  20.321  0.00  0.00    +0.000 N 
ATOM     24  C   UNL     1       1.199   2.969  21.344  0.00  0.00    +0.000 C 
ATOM     25  C   UNL     1       1.906   5.078  20.411  0.00  0.00    +0.000 C 
ATOM     26  O   UNL     1       1.307   5.653  21.323  0.00  0.00    +0.000 OA
ENDBRANCH  15  20
ENDBRANCH   1  15
TORSDOF 2
ENDMDL
MODEL 7
REMARK VINA RESULT:      -7.3      1.617      2.205
REMARK  Name = 
REMARK  4 active torsions:
REMARK  status: ('A' for Active; 'I' for Inactive)
REMARK    1  A    between atoms: C_1  and  N_2
REMARK    2  A    between atoms: C_5  and  C_6
REMARK    3  A    between atoms: C_6  and  C_7
REMARK    4  A    between atoms: N_22  and  C_23
REMARK                            x       y       z     vdW  Elec       q    Type
REMARK                         _______ _______ _______ _____ _____    ______ ____
ROOT
ATOM      1  C   UNL     1       2.266   7.441  19.516  0.00  0.00    +0.000 A 
ATOM      2  N   UNL     1       2.482   7.733  18.206  0.00  0.00    +0.000 NA
ATOM      3  C   UNL     1       2.053   8.910  17.698  0.00  0.00    +0.000 A 
ATOM      4  C   UNL     1       1.327   9.855  18.402  0.00  0.00    +0.000 A 
ATOM      5  C   UNL     1       1.056   9.563  19.746  0.00  0.00    +0.000 A 
ATOM      6  C   UNL     1       1.572   8.383  20.285  0.00  0.00    +0.000 A 
ATOM      7  N   UNL     1       1.227   8.370  21.618  0.00  0.00    +0.000 N 
ATOM      8  C   UNL     1       0.381   9.410  21.916  0.00  0.00    +0.000 A 
ATOM      9  C   UNL     1      -0.295   9.702  23.105  0.00  0.00    +0.000 A 
ATOM     10  C   UNL     1      -1.130  10.821  23.112  0.00  0.00    +0.000 A 
ATOM     11  C   UNL     1      -1.260  11.627  21.983  0.00  0.00    +0.000 A 
ATOM     12  C   UNL     1      -0.557  11.332  20.809  0.00  0.00    +0.000 A 
ATOM     13  C   UNL     1       0.272  10.192  20.766  0.00  0.00    +0.000 A 
ATOM     14  H   UNL     1       1.479   7.641  22.273  0.00  0.00    +0.000 HD
ENDROOT
BRANCH   1  15
ATOM     15  C   UNL     1       2.690   6.081  20.002  0.00  0.00    +0.000 C 
BRANCH  15  20
ATOM     16  C   UNL     1       0.407   2.443  18.594  0.00  0.00    +0.000 C 
ATOM     17  N   UNL     1       1.668   3.105  18.871  0.00  0.00    +0.000 N 
ATOM     18  C   UNL     1       1.875   4.366  18.352  0.00  0.00    +0.000 C 
ATOM     19  O   UNL     1       1.142   4.884  17.508  0.00  0.00    +0.000 OA
ATOM     20  C   UNL     1       3.065   5.109  18.874  0.00  0.00    +0.000 C 
ATOM     21  C   UNL     1       4.206   4.236  19.294  0.00  0.00    +0.000 C 
ATOM     22  O   UNL     1       5.315   4.742  19.492  0.00  0.00    +0.000 OA
ATOM     23  N   UNL     1       3.925   2.908  19.542  0.00  0.00    +0.000 N 
ATOM     24  C   UNL     1       4.988   2.047  20.032  0.00  0.00    +0.000 C 
ATOM     25  C   UNL     1       2.672   2.323  19.420  0.00  0.00    +0.000 C 
ATOM     26  O   UNL     1       2.475   1.147  19.735  0.00  0.00    +0.000 OA
ENDBRANCH  15  20
ENDBRANCH   1  15
TORSDOF 2
ENDMDL
MODEL 8
REMARK VINA RESULT:      -7.1      2.928      7.037
REMARK  Name = 
REMARK  4 active torsions:
REMARK  status: ('A' for Active; 'I' for Inactive)
REMARK    1  A    between atoms: C_1  and  N_2
REMARK    2  A    between atoms: C_5  and  C_6
REMARK    3  A    between atoms: C_6  and  C_7
REMARK    4  A    between atoms: N_22  and  C_23
REMARK                            x       y       z     vdW  Elec       q    Type
REMARK                         _______ _______ _______ _____ _____    ______ ____
ROOT
ATOM      1  C   UNL     1       2.068   8.195  19.401  0.00  0.00    +0.000 A 
ATOM      2  N   UNL     1       2.594   8.632  18.227  0.00  0.00    +0.000 NA
ATOM      3  C   UNL     1       3.169   7.752  17.377  0.00  0.00    +0.000 A 
ATOM      4  C   UNL     1       3.336   6.402  17.634  0.00  0.00    +0.000 A 
ATOM      5  C   UNL     1       2.837   5.931  18.855  0.00  0.00    +0.000 A 
ATOM      6  C   UNL     1       2.173   6.829  19.691  0.00  0.00    +0.000 A 
ATOM      7  N   UNL     1       1.728   6.108  20.777  0.00  0.00    +0.000 N 
ATOM      8  C   UNL     1       2.213   4.825  20.746  0.00  0.00    +0.000 A 
ATOM      9  C   UNL     1       2.106   3.803  21.696  0.00  0.00    +0.000 A 
ATOM     10  C   UNL     1       2.739   2.591  21.411  0.00  0.00    +0.000 A 
ATOM     11  C   UNL     1       3.426   2.404  20.214  0.00  0.00    +0.000 A 
ATOM     12  C   UNL     1       3.502   3.430  19.265  0.00  0.00    +0.000 A 
ATOM     13  C   UNL     1       2.895   4.674  19.539  0.00  0.00    +0.000 A 
ATOM     14  H   UNL     1       1.195   6.493  21.547  0.00  0.00    +0.000 HD
ENDROOT
BRANCH   1  15
ATOM     15  C   UNL     1       1.519   9.233  20.344  0.00  0.00    +0.000 C 
BRANCH  15  20
ATOM     16  C   UNL     1      -0.761  12.676  18.507  0.00  0.00    +0.000 C 
ATOM     17  N   UNL     1      -0.629  11.666  19.540  0.00  0.00    +0.000 N 
ATOM     18  C   UNL     1      -0.390  10.363  19.157  0.00  0.00    +0.000 C 
ATOM     19  O   UNL     1      -0.477   9.969  17.994  0.00  0.00    +0.000 OA
ATOM     20  C   UNL     1      -0.003   9.413  20.248  0.00  0.00    +0.000 C 
ATOM     21  C   UNL     1      -0.576   9.745  21.591  0.00  0.00    +0.000 C 
ATOM     22  O   UNL     1      -0.537   8.900  22.491  0.00  0.00    +0.000 OA
ATOM     23  N   UNL     1      -1.030  11.033  21.781  0.00  0.00    +0.000 N 
ATOM     24  C   UNL     1      -1.516  11.417  23.096  0.00  0.00    +0.000 C 
ATOM     25  C   UNL     1      -1.005  12.036  20.822  0.00  0.00    +0.000 C 
ATOM     26  O   UNL     1      -1.355  13.189  21.085  0.00  0.00    +0.000 OA
ENDBRANCH  15  20
ENDBRANCH   1  15
TORSDOF 2
ENDMDL
MODEL 9
REMARK VINA RESULT:      -7.0      3.052      7.256
REMARK  Name = 
REMARK  4 active torsions:
REMARK  status: ('A' for Active; 'I' for Inactive)
REMARK    1  A    between atoms: C_1  and  N_2
REMARK    2  A    between atoms: C_5  and  C_6
REMARK    3  A    between atoms: C_6  and  C_7
REMARK    4  A    between atoms: N_22  and  C_23
REMARK                            x       y       z     vdW  Elec       q    Type
REMARK                         _______ _______ _______ _____ _____    ______ ____
ROOT
ATOM      1  C   UNL     1       1.827   8.191  19.365  0.00  0.00    +0.000 A 
ATOM      2  N   UNL     1       2.512   8.751  18.334  0.00  0.00    +0.000 NA
ATOM      3  C   UNL     1       3.364   8.000  17.602  0.00  0.00    +0.000 A 
ATOM      4  C   UNL     1       3.665   6.673  17.859  0.00  0.00    +0.000 A 
ATOM      5  C   UNL     1       3.002   6.079  18.941  0.00  0.00    +0.000 A 
ATOM      6  C   UNL     1       2.063   6.838  19.641  0.00  0.00    +0.000 A 
ATOM      7  N   UNL     1       1.514   6.011  20.596  0.00  0.00    +0.000 N 
ATOM      8  C   UNL     1       2.172   4.807  20.638  0.00  0.00    +0.000 A 
ATOM      9  C   UNL     1       2.021   3.734  21.523  0.00  0.00    +0.000 A 
ATOM     10  C   UNL     1       2.863   2.633  21.349  0.00  0.00    +0.000 A 
ATOM     11  C   UNL     1       3.796   2.599  20.317  0.00  0.00    +0.000 A 
ATOM     12  C   UNL     1       3.917   3.672  19.426  0.00  0.00    +0.000 A 
ATOM     13  C   UNL     1       3.098   4.809  19.595  0.00  0.00    +0.000 A 
ATOM     14  H   UNL     1       0.789   6.282  21.247  0.00  0.00    +0.000 HD
ENDROOT
BRANCH   1  15
ATOM     15  C   UNL     1       0.959   9.097  20.196  0.00  0.00    +0.000 C 
BRANCH  15  20
ATOM     16  C   UNL     1      -0.503  12.849  22.250  0.00  0.00    +0.000 C 
ATOM     17  N   UNL     1      -0.460  11.993  21.080  0.00  0.00    +0.000 N 
ATOM     18  C   UNL     1       0.770  11.569  20.620  0.00  0.00    +0.000 C 
ATOM     19  O   UNL     1       1.840  12.029  21.019  0.00  0.00    +0.000 OA
ATOM     20  C   UNL     1       0.752  10.489  19.583  0.00  0.00    +0.000 C 
ATOM     21  C   UNL     1      -0.457  10.497  18.700  0.00  0.00    +0.000 C 
ATOM     22  O   UNL     1      -0.453   9.827  17.662  0.00  0.00    +0.000 OA
ATOM     23  N   UNL     1      -1.564  11.183  19.154  0.00  0.00    +0.000 N 
ATOM     24  C   UNL     1      -2.784  11.144  18.364  0.00  0.00    +0.000 C 
ATOM     25  C   UNL     1      -1.637  11.871  20.357  0.00  0.00    +0.000 C 
ATOM     26  O   UNL     1      -2.686  12.396  20.738  0.00  0.00    +0.000 OA
ENDBRANCH  15  20
ENDBRANCH   1  15
TORSDOF 2
ENDMDL
