MODEL 1
REMARK VINA RESULT:      -6.7      0.000      0.000
REMARK  Name = 
REMARK  8 active torsions:
REMARK  status: ('A' for Active; 'I' for Inactive)
REMARK    1  A    between atoms: C_1  and  O_2
REMARK    2  A    between atoms: O_2  and  C_3
REMARK    3  A    between atoms: C_6  and  C_7
REMARK    4  A    between atoms: C_7  and  C_8
REMARK    5  A    between atoms: C_11  and  O_12
REMARK    6  A    between atoms: C_13  and  O_14
REMARK    7  A    between atoms: O_14  and  C_15
REMARK    8  A    between atoms: C_15  and  C_16
REMARK                            x       y       z     vdW  Elec       q    Type
REMARK                         _______ _______ _______ _____ _____    ______ ____
ROOT
ATOM      1  C   UNL     1       5.114   6.165  17.061  0.00  0.00    +0.000 C 
ATOM      2  N   UNL     1       6.230   7.149  16.959  0.00  0.00    +0.000 NA
ATOM      3  C   UNL     1       7.437   6.523  17.543  0.00  0.00    +0.000 C 
ATOM      4  C   UNL     1       7.157   5.028  17.548  0.00  0.00    +0.000 C 
ATOM      5  C   UNL     1       5.669   4.998  17.906  0.00  0.00    +0.000 C 
ATOM      6  H   UNL     1       6.016   7.998  17.483  0.00  0.00    +0.000 HD
ENDROOT
BRANCH   4   7
ATOM      7  O   UNL     1       7.400   4.482  16.244  0.00  0.00    +0.000 OA
ATOM      8  H   UNL     1       7.013   3.586  16.242  0.00  0.00    +0.000 HD
ENDBRANCH   4   7
BRANCH   1   9
ATOM      9  C   UNL     1       3.813   6.839  17.554  0.00  0.00    +0.000 C 
BRANCH   9  13
ATOM     10  C   UNL     1       1.361   4.140  19.884  0.00  0.00    +0.000 A 
ATOM     11  C   UNL     1       2.215   5.048  20.504  0.00  0.00    +0.000 A 
ATOM     12  C   UNL     1       2.947   5.969  19.757  0.00  0.00    +0.000 A 
ATOM     13  C   UNL     1       2.904   5.941  18.360  0.00  0.00    +0.000 A 
ATOM     14  C   UNL     1       2.029   5.045  17.734  0.00  0.00    +0.000 A 
ATOM     15  C   UNL     1       1.252   4.157  18.492  0.00  0.00    +0.000 A 
BRANCH  10  17
ATOM     16  C   UNL     1       1.597   2.642  21.687  0.00  0.00    +0.000 C 
ATOM     17  O   UNL     1       0.753   3.257  20.726  0.00  0.00    +0.000 OA
ENDBRANCH  10  17
ENDBRANCH   9  13
ENDBRANCH   1   9
BRANCH   5  18
ATOM     18  O   UNL     1       5.077   3.747  17.536  0.00  0.00    +0.000 OA
BRANCH  18  19
ATOM     19  C   UNL     1       4.717   2.947  18.573  0.00  0.00    +0.000 C 
ATOM     20  C   UNL     1       3.839   1.828  18.103  0.00  0.00    +0.000 C 
ATOM     21  O   UNL     1       5.074   3.096  19.736  0.00  0.00    +0.000 OA
ENDBRANCH  18  19
ENDBRANCH   5  18
TORSDOF 6
ENDMDL
MODEL 2
REMARK VINA RESULT:      -6.6      2.089      3.360
REMARK  Name = 
REMARK  8 active torsions:
REMARK  status: ('A' for Active; 'I' for Inactive)
REMARK    1  A    between atoms: C_1  and  O_2
REMARK    2  A    between atoms: O_2  and  C_3
REMARK    3  A    between atoms: C_6  and  C_7
REMARK    4  A    between atoms: C_7  and  C_8
REMARK    5  A    between atoms: C_11  and  O_12
REMARK    6  A    between atoms: C_13  and  O_14
REMARK    7  A    between atoms: O_14  and  C_15
REMARK    8  A    between atoms: C_15  and  C_16
REMARK                            x       y       z     vdW  Elec       q    Type
REMARK                         _______ _______ _______ _____ _____    ______ ____
ROOT
ATOM      1  C   UNL     1       5.327   5.087  16.767  0.00  0.00    +0.000 C 
ATOM      2  N   UNL     1       5.584   5.228  18.228  0.00  0.00    +0.000 NA
ATOM      3  C   UNL     1       6.998   5.625  18.401  0.00  0.00    +0.000 C 
ATOM      4  C   UNL     1       7.432   6.177  17.051  0.00  0.00    +0.000 C 
ATOM      5  C   UNL     1       6.706   5.235  16.089  0.00  0.00    +0.000 C 
ATOM      6  H   UNL     1       5.432   4.341  18.711  0.00  0.00    +0.000 HD
ENDROOT
BRANCH   4   7
ATOM      7  O   UNL     1       6.979   7.531  16.910  0.00  0.00    +0.000 OA
ATOM      8  H   UNL     1       7.505   8.066  17.534  0.00  0.00    +0.000 HD
ENDBRANCH   4   7
BRANCH   1   9
ATOM      9  C   UNL     1       4.520   3.805  16.458  0.00  0.00    +0.000 C 
BRANCH   9  13
ATOM     10  C   UNL     1       1.626   2.909  19.548  0.00  0.00    +0.000 A 
ATOM     11  C   UNL     1       1.540   4.083  18.804  0.00  0.00    +0.000 A 
ATOM     12  C   UNL     1       2.426   4.335  17.758  0.00  0.00    +0.000 A 
ATOM     13  C   UNL     1       3.476   3.452  17.491  0.00  0.00    +0.000 A 
ATOM     14  C   UNL     1       3.552   2.260  18.222  0.00  0.00    +0.000 A 
ATOM     15  C   UNL     1       2.624   1.983  19.236  0.00  0.00    +0.000 A 
BRANCH  10  17
ATOM     16  C   UNL     1       1.309   2.637  21.866  0.00  0.00    +0.000 C 
ATOM     17  O   UNL     1       0.739   2.816  20.578  0.00  0.00    +0.000 OA
ENDBRANCH  10  17
ENDBRANCH   9  13
ENDBRANCH   1   9
BRANCH   5  18
ATOM     18  O   UNL     1       6.597   5.817  14.785  0.00  0.00    +0.000 OA
BRANCH  18  19
ATOM     19  C   UNL     1       7.287   5.179  13.804  0.00  0.00    +0.000 C 
ATOM     20  C   UNL     1       6.544   3.969  13.328  0.00  0.00    +0.000 C 
ATOM     21  O   UNL     1       8.364   5.547  13.347  0.00  0.00    +0.000 OA
ENDBRANCH  18  19
ENDBRANCH   5  18
TORSDOF 6
ENDMDL
MODEL 3
REMARK VINA RESULT:      -6.6      1.800      2.562
REMARK  Name = 
REMARK  8 active torsions:
REMARK  status: ('A' for Active; 'I' for Inactive)
REMARK    1  A    between atoms: C_1  and  O_2
REMARK    2  A    between atoms: O_2  and  C_3
REMARK    3  A    between atoms: C_6  and  C_7
REMARK    4  A    between atoms: C_7  and  C_8
REMARK    5  A    between atoms: C_11  and  O_12
REMARK    6  A    between atoms: C_13  and  O_14
REMARK    7  A    between atoms: O_14  and  C_15
REMARK    8  A    between atoms: C_15  and  C_16
REMARK                            x       y       z     vdW  Elec       q    Type
REMARK                         _______ _______ _______ _____ _____    ______ ____
ROOT
ATOM      1  C   UNL     1       5.006   6.359  17.552  0.00  0.00    +0.000 C 
ATOM      2  N   UNL     1       5.425   5.884  18.902  0.00  0.00    +0.000 NA
ATOM      3  C   UNL     1       6.345   4.742  18.712  0.00  0.00    +0.000 C 
ATOM      4  C   UNL     1       6.837   4.850  17.277  0.00  0.00    +0.000 C 
ATOM      5  C   UNL     1       5.572   5.323  16.557  0.00  0.00    +0.000 C 
ATOM      6  H   UNL     1       4.619   5.569  19.443  0.00  0.00    +0.000 HD
ENDROOT
BRANCH   4   7
ATOM      7  O   UNL     1       7.889   5.822  17.194  0.00  0.00    +0.000 OA
ATOM      8  H   UNL     1       7.695   6.499  17.869  0.00  0.00    +0.000 HD
ENDBRANCH   4   7
BRANCH   1   9
ATOM      9  C   UNL     1       3.486   6.634  17.499  0.00  0.00    +0.000 C 
BRANCH   9  13
ATOM     10  C   UNL     1       1.234   3.769  19.833  0.00  0.00    +0.000 A 
ATOM     11  C   UNL     1       1.736   4.930  20.414  0.00  0.00    +0.000 A 
ATOM     12  C   UNL     1       2.395   5.889  19.647  0.00  0.00    +0.000 A 
ATOM     13  C   UNL     1       2.641   5.663  18.290  0.00  0.00    +0.000 A 
ATOM     14  C   UNL     1       2.117   4.507  17.697  0.00  0.00    +0.000 A 
ATOM     15  C   UNL     1       1.405   3.571  18.461  0.00  0.00    +0.000 A 
BRANCH  10  17
ATOM     16  C   UNL     1       1.459   2.541  21.830  0.00  0.00    +0.000 C 
ATOM     17  O   UNL     1       0.666   2.889  20.705  0.00  0.00    +0.000 OA
ENDBRANCH  10  17
ENDBRANCH   9  13
ENDBRANCH   1   9
BRANCH   5  18
ATOM     18  O   UNL     1       5.892   5.920  15.295  0.00  0.00    +0.000 OA
BRANCH  18  19
ATOM     19  C   UNL     1       6.633   5.148  14.459  0.00  0.00    +0.000 C 
ATOM     20  C   UNL     1       5.833   3.987  13.953  0.00  0.00    +0.000 C 
ATOM     21  O   UNL     1       7.795   5.374  14.136  0.00  0.00    +0.000 OA
ENDBRANCH  18  19
ENDBRANCH   5  18
TORSDOF 6
ENDMDL
MODEL 4
REMARK VINA RESULT:      -6.5      2.557      5.986
REMARK  Name = 
REMARK  8 active torsions:
REMARK  status: ('A' for Active; 'I' for Inactive)
REMARK    1  A    between atoms: C_1  and  O_2
REMARK    2  A    between atoms: O_2  and  C_3
REMARK    3  A    between atoms: C_6  and  C_7
REMARK    4  A    between atoms: C_7  and  C_8
REMARK    5  A    between atoms: C_11  and  O_12
REMARK    6  A    between atoms: C_13  and  O_14
REMARK    7  A    between atoms: O_14  and  C_15
REMARK    8  A    between atoms: C_15  and  C_16
REMARK                            x       y       z     vdW  Elec       q    Type
REMARK                         _______ _______ _______ _____ _____    ______ ____
ROOT
ATOM      1  C   UNL     1       3.642   3.784  19.597  0.00  0.00    +0.000 C 
ATOM      2  N   UNL     1       3.479   2.642  20.542  0.00  0.00    +0.000 NA
ATOM      3  C   UNL     1       2.316   2.935  21.406  0.00  0.00    +0.000 C 
ATOM      4  C   UNL     1       1.518   3.999  20.667  0.00  0.00    +0.000 C 
ATOM      5  C   UNL     1       2.635   4.856  20.068  0.00  0.00    +0.000 C 
ATOM      6  H   UNL     1       4.306   2.538  21.131  0.00  0.00    +0.000 HD
ENDROOT
BRANCH   4   7
ATOM      7  O   UNL     1       0.716   3.385  19.648  0.00  0.00    +0.000 OA
ATOM      8  H   UNL     1      -0.148   3.838  19.665  0.00  0.00    +0.000 HD
ENDBRANCH   4   7
BRANCH   1   9
ATOM      9  C   UNL     1       5.124   4.210  19.478  0.00  0.00    +0.000 C 
BRANCH   9  13
ATOM     10  C   UNL     1       6.516   5.052  15.468  0.00  0.00    +0.000 A 
ATOM     11  C   UNL     1       5.503   4.124  15.695  0.00  0.00    +0.000 A 
ATOM     12  C   UNL     1       5.002   3.909  16.977  0.00  0.00    +0.000 A 
ATOM     13  C   UNL     1       5.568   4.560  18.077  0.00  0.00    +0.000 A 
ATOM     14  C   UNL     1       6.571   5.511  17.850  0.00  0.00    +0.000 A 
ATOM     15  C   UNL     1       7.034   5.765  16.551  0.00  0.00    +0.000 A 
BRANCH  10  17
ATOM     16  C   UNL     1       6.505   4.082  13.321  0.00  0.00    +0.000 C 
ATOM     17  O   UNL     1       6.954   5.120  14.179  0.00  0.00    +0.000 OA
ENDBRANCH  10  17
ENDBRANCH   9  13
ENDBRANCH   1   9
BRANCH   5  18
ATOM     18  O   UNL     1       2.148   5.643  18.975  0.00  0.00    +0.000 OA
BRANCH  18  19
ATOM     19  C   UNL     1       2.461   6.964  19.027  0.00  0.00    +0.000 C 
ATOM     20  C   UNL     1       3.233   7.378  17.811  0.00  0.00    +0.000 C 
ATOM     21  O   UNL     1       2.141   7.730  19.930  0.00  0.00    +0.000 OA
ENDBRANCH  18  19
ENDBRANCH   5  18
TORSDOF 6
ENDMDL
MODEL 5
REMARK VINA RESULT:      -6.5      2.562      5.926
REMARK  Name = 
REMARK  8 active torsions:
REMARK  status: ('A' for Active; 'I' for Inactive)
REMARK    1  A    between atoms: C_1  and  O_2
REMARK    2  A    between atoms: O_2  and  C_3
REMARK    3  A    between atoms: C_6  and  C_7
REMARK    4  A    between atoms: C_7  and  C_8
REMARK    5  A    between atoms: C_11  and  O_12
REMARK    6  A    between atoms: C_13  and  O_14
REMARK    7  A    between atoms: O_14  and  C_15
REMARK    8  A    between atoms: C_15  and  C_16
REMARK                            x       y       z     vdW  Elec       q    Type
REMARK                         _______ _______ _______ _____ _____    ______ ____
ROOT
ATOM      1  C   UNL     1       3.443   3.638  19.768  0.00  0.00    +0.000 C 
ATOM      2  N   UNL     1       3.173   2.583  20.787  0.00  0.00    +0.000 NA
ATOM      3  C   UNL     1       2.044   3.043  21.624  0.00  0.00    +0.000 C 
ATOM      4  C   UNL     1       1.350   4.125  20.810  0.00  0.00    +0.000 C 
ATOM      5  C   UNL     1       2.544   4.830  20.160  0.00  0.00    +0.000 C 
ATOM      6  H   UNL     1       3.987   2.440  21.386  0.00  0.00    +0.000 HD
ENDROOT
BRANCH   4   7
ATOM      7  O   UNL     1       0.492   3.524  19.831  0.00  0.00    +0.000 OA
ATOM      8  H   UNL     1      -0.206   4.177  19.635  0.00  0.00    +0.000 HD
ENDBRANCH   4   7
BRANCH   1   9
ATOM      9  C   UNL     1       4.958   3.911  19.628  0.00  0.00    +0.000 C 
BRANCH   9  13
ATOM     10  C   UNL     1       6.230   4.882  15.607  0.00  0.00    +0.000 A 
ATOM     11  C   UNL     1       7.059   5.126  16.700  0.00  0.00    +0.000 A 
ATOM     12  C   UNL     1       6.681   4.743  17.985  0.00  0.00    +0.000 A 
ATOM     13  C   UNL     1       5.421   4.184  18.215  0.00  0.00    +0.000 A 
ATOM     14  C   UNL     1       4.595   3.916  17.117  0.00  0.00    +0.000 A 
ATOM     15  C   UNL     1       5.003   4.251  15.817  0.00  0.00    +0.000 A 
BRANCH  10  17
ATOM     16  C   UNL     1       6.890   4.390  13.400  0.00  0.00    +0.000 C 
ATOM     17  O   UNL     1       6.693   5.361  14.417  0.00  0.00    +0.000 OA
ENDBRANCH  10  17
ENDBRANCH   9  13
ENDBRANCH   1   9
BRANCH   5  18
ATOM     18  O   UNL     1       2.133   5.584  19.015  0.00  0.00    +0.000 OA
BRANCH  18  19
ATOM     19  C   UNL     1       2.464   6.902  19.038  0.00  0.00    +0.000 C 
ATOM     20  C   UNL     1       3.290   7.265  17.843  0.00  0.00    +0.000 C 
ATOM     21  O   UNL     1       2.119   7.700  19.903  0.00  0.00    +0.000 OA
ENDBRANCH  18  19
ENDBRANCH   5  18
TORSDOF 6
ENDMDL
MODEL 6
REMARK VINA RESULT:      -6.5      3.069      4.442
REMARK  Name = 
REMARK  8 active torsions:
REMARK  status: ('A' for Active; 'I' for Inactive)
REMARK    1  A    between atoms: C_1  and  O_2
REMARK    2  A    between atoms: O_2  and  C_3
REMARK    3  A    between atoms: C_6  and  C_7
REMARK    4  A    between atoms: C_7  and  C_8
REMARK    5  A    between atoms: C_11  and  O_12
REMARK    6  A    between atoms: C_13  and  O_14
REMARK    7  A    between atoms: O_14  and  C_15
REMARK    8  A    between atoms: C_15  and  C_16
REMARK                            x       y       z     vdW  Elec       q    Type
REMARK                         _______ _______ _______ _____ _____    ______ ____
ROOT
ATOM      1  C   UNL     1       3.688   5.376  18.024  0.00  0.00    +0.000 C 
ATOM      2  N   UNL     1       2.397   4.650  17.854  0.00  0.00    +0.000 NA
ATOM      3  C   UNL     1       2.694   3.339  17.239  0.00  0.00    +0.000 C 
ATOM      4  C   UNL     1       4.176   3.101  17.488  0.00  0.00    +0.000 C 
ATOM      5  C   UNL     1       4.745   4.510  17.307  0.00  0.00    +0.000 C 
ATOM      6  H   UNL     1       1.769   5.166  17.237  0.00  0.00    +0.000 HD
ENDROOT
BRANCH   4   7
ATOM      7  O   UNL     1       4.375   2.617  18.823  0.00  0.00    +0.000 OA
ATOM      8  H   UNL     1       4.127   3.345  19.422  0.00  0.00    +0.000 HD
ENDBRANCH   4   7
BRANCH   1   9
ATOM      9  C   UNL     1       3.566   6.853  17.584  0.00  0.00    +0.000 C 
BRANCH   9  13
ATOM     10  C   UNL     1       0.921   9.333  19.946  0.00  0.00    +0.000 A 
ATOM     11  C   UNL     1       1.193   9.640  18.615  0.00  0.00    +0.000 A 
ATOM     12  C   UNL     1       1.983   8.800  17.833  0.00  0.00    +0.000 A 
ATOM     13  C   UNL     1       2.591   7.674  18.395  0.00  0.00    +0.000 A 
ATOM     14  C   UNL     1       2.301   7.350  19.727  0.00  0.00    +0.000 A 
ATOM     15  C   UNL     1       1.460   8.168  20.494  0.00  0.00    +0.000 A 
BRANCH  10  17
ATOM     16  C   UNL     1      -0.438  11.253  19.801  0.00  0.00    +0.000 C 
ATOM     17  O   UNL     1       0.186  10.269  20.612  0.00  0.00    +0.000 OA
ENDBRANCH  10  17
ENDBRANCH   9  13
ENDBRANCH   1   9
BRANCH   5  18
ATOM     18  O   UNL     1       6.033   4.627  17.922  0.00  0.00    +0.000 OA
BRANCH  18  19
ATOM     19  C   UNL     1       7.090   4.594  17.069  0.00  0.00    +0.000 C 
ATOM     20  C   UNL     1       6.711   5.147  15.730  0.00  0.00    +0.000 C 
ATOM     21  O   UNL     1       8.212   4.190  17.352  0.00  0.00    +0.000 OA
ENDBRANCH  18  19
ENDBRANCH   5  18
TORSDOF 6
ENDMDL
MODEL 7
REMARK VINA RESULT:      -6.4      2.864      4.130
REMARK  Name = 
REMARK  8 active torsions:
REMARK  status: ('A' for Active; 'I' for Inactive)
REMARK    1  A    between atoms: C_1  and  O_2
REMARK    2  A    between atoms: O_2  and  C_3
REMARK    3  A    between atoms: C_6  and  C_7
REMARK    4  A    between atoms: C_7  and  C_8
REMARK    5  A    between atoms: C_11  and  O_12
REMARK    6  A    between atoms: C_13  and  O_14
REMARK    7  A    between atoms: O_14  and  C_15
REMARK    8  A    between atoms: C_15  and  C_16
REMARK                            x       y       z     vdW  Elec       q    Type
REMARK                         _______ _______ _______ _____ _____    ______ ____
ROOT
ATOM      1  C   UNL     1       3.585   5.173  17.991  0.00  0.00    +0.000 C 
ATOM      2  N   UNL     1       2.300   4.420  17.912  0.00  0.00    +0.000 NA
ATOM      3  C   UNL     1       2.599   3.075  17.374  0.00  0.00    +0.000 C 
ATOM      4  C   UNL     1       4.092   2.875  17.588  0.00  0.00    +0.000 C 
ATOM      5  C   UNL     1       4.632   4.277  17.296  0.00  0.00    +0.000 C 
ATOM      6  H   UNL     1       1.644   4.885  17.283  0.00  0.00    +0.000 HD
ENDROOT
BRANCH   4   7
ATOM      7  O   UNL     1       4.342   2.483  18.945  0.00  0.00    +0.000 OA
ATOM      8  H   UNL     1       3.983   1.581  19.044  0.00  0.00    +0.000 HD
ENDBRANCH   4   7
BRANCH   1   9
ATOM      9  C   UNL     1       3.425   6.616  17.459  0.00  0.00    +0.000 C 
BRANCH   9  13
ATOM     10  C   UNL     1       0.981   9.127  19.999  0.00  0.00    +0.000 A 
ATOM     11  C   UNL     1       1.571   7.966  20.493  0.00  0.00    +0.000 A 
ATOM     12  C   UNL     1       2.419   7.199  19.697  0.00  0.00    +0.000 A 
ATOM     13  C   UNL     1       2.627   7.534  18.356  0.00  0.00    +0.000 A 
ATOM     14  C   UNL     1       2.054   8.713  17.862  0.00  0.00    +0.000 A 
ATOM     15  C   UNL     1       1.246   9.513  18.683  0.00  0.00    +0.000 A 
BRANCH  10  17
ATOM     16  C   UNL     1       0.391   9.547  22.241  0.00  0.00    +0.000 C 
ATOM     17  O   UNL     1       0.127   9.749  20.860  0.00  0.00    +0.000 OA
ENDBRANCH  10  17
ENDBRANCH   9  13
ENDBRANCH   1   9
BRANCH   5  18
ATOM     18  O   UNL     1       5.937   4.452  17.859  0.00  0.00    +0.000 OA
BRANCH  18  19
ATOM     19  C   UNL     1       6.954   4.510  16.960  0.00  0.00    +0.000 C 
ATOM     20  C   UNL     1       6.462   4.983  15.627  0.00  0.00    +0.000 C 
ATOM     21  O   UNL     1       8.125   4.237  17.202  0.00  0.00    +0.000 OA
ENDBRANCH  18  19
ENDBRANCH   5  18
TORSDOF 6
ENDMDL
MODEL 8
REMARK VINA RESULT:      -6.4      2.248      5.530
REMARK  Name = 
REMARK  8 active torsions:
REMARK  status: ('A' for Active; 'I' for Inactive)
REMARK    1  A    between atoms: C_1  and  O_2
REMARK    2  A    between atoms: O_2  and  C_3
REMARK    3  A    between atoms: C_6  and  C_7
REMARK    4  A    between atoms: C_7  and  C_8
REMARK    5  A    between atoms: C_11  and  O_12
REMARK    6  A    between atoms: C_13  and  O_14
REMARK    7  A    between atoms: O_14  and  C_15
REMARK    8  A    between atoms: C_15  and  C_16
REMARK                            x       y       z     vdW  Elec       q    Type
REMARK                         _______ _______ _______ _____ _____    ______ ____
ROOT
ATOM      1  C   UNL     1       4.110   5.355  19.471  0.00  0.00    +0.000 C 
ATOM      2  N   UNL     1       4.093   6.440  18.448  0.00  0.00    +0.000 NA
ATOM      3  C   UNL     1       2.704   6.934  18.339  0.00  0.00    +0.000 C 
ATOM      4  C   UNL     1       2.011   6.485  19.616  0.00  0.00    +0.000 C 
ATOM      5  C   UNL     1       2.630   5.101  19.827  0.00  0.00    +0.000 C 
ATOM      6  H   UNL     1       4.386   6.084  17.537  0.00  0.00    +0.000 HD
ENDROOT
BRANCH   4   7
ATOM      7  O   UNL     1       2.338   7.380  20.689  0.00  0.00    +0.000 OA
ATOM      8  H   UNL     1       2.321   8.280  20.313  0.00  0.00    +0.000 HD
ENDBRANCH   4   7
BRANCH   1   9
ATOM      9  C   UNL     1       4.942   4.142  18.993  0.00  0.00    +0.000 C 
BRANCH   9  13
ATOM     10  C   UNL     1       6.631   4.772  15.059  0.00  0.00    +0.000 A 
ATOM     11  C   UNL     1       7.396   4.965  16.206  0.00  0.00    +0.000 A 
ATOM     12  C   UNL     1       6.875   4.689  17.469  0.00  0.00    +0.000 A 
ATOM     13  C   UNL     1       5.543   4.294  17.615  0.00  0.00    +0.000 A 
ATOM     14  C   UNL     1       4.777   4.076  16.462  0.00  0.00    +0.000 A 
ATOM     15  C   UNL     1       5.323   4.301  15.190  0.00  0.00    +0.000 A 
BRANCH  10  17
ATOM     16  C   UNL     1       6.987   4.296  12.779  0.00  0.00    +0.000 C 
ATOM     17  O   UNL     1       7.239   5.137  13.895  0.00  0.00    +0.000 OA
ENDBRANCH  10  17
ENDBRANCH   9  13
ENDBRANCH   1   9
BRANCH   5  18
ATOM     18  O   UNL     1       2.477   4.671  21.185  0.00  0.00    +0.000 OA
BRANCH  18  19
ATOM     19  C   UNL     1       2.105   3.375  21.345  0.00  0.00    +0.000 C 
ATOM     20  C   UNL     1       0.991   3.020  20.410  0.00  0.00    +0.000 C 
ATOM     21  O   UNL     1       2.621   2.586  22.129  0.00  0.00    +0.000 OA
ENDBRANCH  18  19
ENDBRANCH   5  18
TORSDOF 6
ENDMDL
MODEL 9
REMARK VINA RESULT:      -6.4      3.124      4.469
REMARK  Name = 
REMARK  8 active torsions:
REMARK  status: ('A' for Active; 'I' for Inactive)
REMARK    1  A    between atoms: C_1  and  O_2
REMARK    2  A    between atoms: O_2  and  C_3
REMARK    3  A    between atoms: C_6  and  C_7
REMARK    4  A    between atoms: C_7  and  C_8
REMARK    5  A    between atoms: C_11  and  O_12
REMARK    6  A    between atoms: C_13  and  O_14
REMARK    7  A    between atoms: O_14  and  C_15
REMARK    8  A    between atoms: C_15  and  C_16
REMARK                            x       y       z     vdW  Elec       q    Type
REMARK                         _______ _______ _______ _____ _____    ______ ____
ROOT
ATOM      1  C   UNL     1       3.358   5.002  18.442  0.00  0.00    +0.000 C 
ATOM      2  N   UNL     1       2.162   4.377  17.806  0.00  0.00    +0.000 NA
ATOM      3  C   UNL     1       2.536   3.009  17.390  0.00  0.00    +0.000 C 
ATOM      4  C   UNL     1       3.778   2.664  18.198  0.00  0.00    +0.000 C 
ATOM      5  C   UNL     1       4.515   4.005  18.212  0.00  0.00    +0.000 C 
ATOM      6  H   UNL     1       1.874   4.903  16.980  0.00  0.00    +0.000 HD
ENDROOT
BRANCH   4   7
ATOM      7  O   UNL     1       3.402   2.252  19.519  0.00  0.00    +0.000 OA
ATOM      8  H   UNL     1       4.011   1.532  19.770  0.00  0.00    +0.000 HD
ENDBRANCH   4   7
BRANCH   1   9
ATOM      9  C   UNL     1       3.565   6.452  17.949  0.00  0.00    +0.000 C 
BRANCH   9  13
ATOM     10  C   UNL     1       0.960   9.461  19.646  0.00  0.00    +0.000 A 
ATOM     11  C   UNL     1       1.350   9.522  18.310  0.00  0.00    +0.000 A 
ATOM     12  C   UNL     1       2.126   8.512  17.744  0.00  0.00    +0.000 A 
ATOM     13  C   UNL     1       2.602   7.460  18.531  0.00  0.00    +0.000 A 
ATOM     14  C   UNL     1       2.192   7.383  19.868  0.00  0.00    +0.000 A 
ATOM     15  C   UNL     1       1.365   8.372  20.419  0.00  0.00    +0.000 A 
BRANCH  10  17
ATOM     16  C   UNL     1       0.287  10.764  21.489  0.00  0.00    +0.000 C 
ATOM     17  O   UNL     1       0.254  10.541  20.088  0.00  0.00    +0.000 OA
ENDBRANCH  10  17
ENDBRANCH   9  13
ENDBRANCH   1   9
BRANCH   5  18
ATOM     18  O   UNL     1       5.475   4.053  19.274  0.00  0.00    +0.000 OA
BRANCH  18  19
ATOM     19  C   UNL     1       6.563   4.831  19.037  0.00  0.00    +0.000 C 
ATOM     20  C   UNL     1       7.001   4.717  17.610  0.00  0.00    +0.000 C 
ATOM     21  O   UNL     1       7.109   5.550  19.867  0.00  0.00    +0.000 OA
ENDBRANCH  18  19
ENDBRANCH   5  18
TORSDOF 6
ENDMDL
