MODEL 1
REMARK VINA RESULT:      -9.4      0.000      0.000
REMARK  Name = 
REMARK  5 active torsions:
REMARK  status: ('A' for Active; 'I' for Inactive)
REMARK    1  A    between atoms: C_1  and  C_2
REMARK    2  A    between atoms: N_10  and  C_11
REMARK    3  A    between atoms: C_11  and  C_12
REMARK    4  A    between atoms: C_12  and  C_13
REMARK    5  A    between atoms: C_19  and  C_20
REMARK                            x       y       z     vdW  Elec       q    Type
REMARK                         _______ _______ _______ _____ _____    ______ ____
ROOT
ATOM      1  C   UNL     1       6.892   5.216  16.220  0.00  0.00    +0.000 C 
ATOM      2  O   UNL     1       7.401   5.814  15.276  0.00  0.00    +0.000 OA
ATOM      3  N   UNL     1       6.828   5.693  17.515  0.00  0.00    +0.000 N 
ATOM      4  C   UNL     1       7.404   6.915  17.874  0.00  0.00    +0.000 A 
ATOM      5  C   UNL     1       7.192   8.068  17.133  0.00  0.00    +0.000 A 
ATOM      6  C   UNL     1       7.850   9.239  17.511  0.00  0.00    +0.000 A 
ATOM      7  C   UNL     1       8.730   9.244  18.599  0.00  0.00    +0.000 A 
ATOM      8  C   UNL     1       8.831   8.033  19.291  0.00  0.00    +0.000 A 
ATOM      9  N   UNL     1       8.163   6.889  18.983  0.00  0.00    +0.000 NA
ATOM     10  H   UNL     1       6.873   5.010  18.261  0.00  0.00    +0.000 HD
ENDROOT
BRANCH   7  11
ATOM     11  C   UNL     1       9.507  10.446  18.974  0.00  0.00    +0.000 A 
ATOM     12  C   UNL     1      10.161  11.226  18.002  0.00  0.00    +0.000 A 
ATOM     13  C   UNL     1      10.929  12.342  18.354  0.00  0.00    +0.000 A 
ATOM     14  C   UNL     1      11.050  12.711  19.689  0.00  0.00    +0.000 A 
ATOM     15  C   UNL     1      10.405  11.967  20.671  0.00  0.00    +0.000 A 
ATOM     16  C   UNL     1       9.647  10.844  20.317  0.00  0.00    +0.000 A 
ENDBRANCH   7  11
BRANCH   1  17
ATOM     17  C   UNL     1       6.250   3.855  16.039  0.00  0.00    +0.000 C 
BRANCH  17  18
ATOM     18  C   UNL     1       4.751   4.013  15.813  0.00  0.00    +0.000 C 
BRANCH  18  28
ATOM     19  C   UNL     1       2.213   7.146  19.742  0.00  0.00    +0.000 C 
ATOM     20  C   UNL     1       2.169   5.651  19.780  0.00  0.00    +0.000 A 
ATOM     21  C   UNL     1       1.455   4.964  20.778  0.00  0.00    +0.000 A 
ATOM     22  C   UNL     1       1.411   3.554  20.809  0.00  0.00    +0.000 A 
ATOM     23  C   UNL     1       2.096   2.795  19.858  0.00  0.00    +0.000 A 
ATOM     24  C   UNL     1       2.789   3.486  18.882  0.00  0.00    +0.000 A 
ATOM     25  C   UNL     1       2.826   4.871  18.838  0.00  0.00    +0.000 A 
ATOM     26  C   UNL     1       3.628   5.243  17.667  0.00  0.00    +0.000 C 
ATOM     27  O   UNL     1       3.888   6.384  17.336  0.00  0.00    +0.000 OA
ATOM     28  N   UNL     1       4.002   4.075  17.056  0.00  0.00    +0.000 N 
ATOM     29  C   UNL     1       3.567   2.981  17.749  0.00  0.00    +0.000 C 
ATOM     30  O   UNL     1       3.760   1.801  17.517  0.00  0.00    +0.000 OA
ENDBRANCH  18  28
ENDBRANCH  17  18
ENDBRANCH   1  17
TORSDOF 4
ENDMDL
MODEL 2
REMARK VINA RESULT:      -8.9      4.161      6.945
REMARK  Name = 
REMARK  5 active torsions:
REMARK  status: ('A' for Active; 'I' for Inactive)
REMARK    1  A    between atoms: C_1  and  C_2
REMARK    2  A    between atoms: N_10  and  C_11
REMARK    3  A    between atoms: C_11  and  C_12
REMARK    4  A    between atoms: C_12  and  C_13
REMARK    5  A    between atoms: C_19  and  C_20
REMARK                            x       y       z     vdW  Elec       q    Type
REMARK                         _______ _______ _______ _____ _____    ______ ____
ROOT
ATOM      1  C   UNL     1       2.038   4.664  20.574  0.00  0.00    +0.000 C 
ATOM      2  O   UNL     1       0.837   4.739  20.820  0.00  0.00    +0.000 OA
ATOM      3  N   UNL     1       2.825   5.720  20.156  0.00  0.00    +0.000 N 
ATOM      4  C   UNL     1       2.285   6.988  19.923  0.00  0.00    +0.000 A 
ATOM      5  C   UNL     1       1.442   7.603  20.836  0.00  0.00    +0.000 A 
ATOM      6  C   UNL     1       0.887   8.841  20.510  0.00  0.00    +0.000 A 
ATOM      7  C   UNL     1       1.150   9.438  19.272  0.00  0.00    +0.000 A 
ATOM      8  C   UNL     1       2.044   8.742  18.452  0.00  0.00    +0.000 A 
ATOM      9  N   UNL     1       2.646   7.562  18.762  0.00  0.00    +0.000 NA
ATOM     10  H   UNL     1       3.591   5.505  19.530  0.00  0.00    +0.000 HD
ENDROOT
BRANCH   7  11
ATOM     11  C   UNL     1       0.511  10.707  18.862  0.00  0.00    +0.000 A 
ATOM     12  C   UNL     1       1.216  11.924  18.891  0.00  0.00    +0.000 A 
ATOM     13  C   UNL     1       0.605  13.133  18.541  0.00  0.00    +0.000 A 
ATOM     14  C   UNL     1      -0.726  13.151  18.140  0.00  0.00    +0.000 A 
ATOM     15  C   UNL     1      -1.446  11.962  18.090  0.00  0.00    +0.000 A 
ATOM     16  C   UNL     1      -0.835  10.755  18.452  0.00  0.00    +0.000 A 
ENDBRANCH   7  11
BRANCH   1  17
ATOM     17  C   UNL     1       2.798   3.362  20.729  0.00  0.00    +0.000 C 
BRANCH  17  18
ATOM     18  C   UNL     1       2.839   2.621  19.398  0.00  0.00    +0.000 C 
BRANCH  18  28
ATOM     19  C   UNL     1       7.849   4.898  18.210  0.00  0.00    +0.000 C 
ATOM     20  C   UNL     1       6.794   4.732  17.163  0.00  0.00    +0.000 A 
ATOM     21  C   UNL     1       7.024   5.100  15.826  0.00  0.00    +0.000 A 
ATOM     22  C   UNL     1       6.028   4.940  14.839  0.00  0.00    +0.000 A 
ATOM     23  C   UNL     1       4.772   4.426  15.167  0.00  0.00    +0.000 A 
ATOM     24  C   UNL     1       4.563   4.065  16.484  0.00  0.00    +0.000 A 
ATOM     25  C   UNL     1       5.541   4.209  17.457  0.00  0.00    +0.000 A 
ATOM     26  C   UNL     1       4.975   3.707  18.714  0.00  0.00    +0.000 C 
ATOM     27  O   UNL     1       5.552   3.704  19.784  0.00  0.00    +0.000 OA
ATOM     28  N   UNL     1       3.711   3.263  18.428  0.00  0.00    +0.000 N 
ATOM     29  C   UNL     1       3.381   3.480  17.121  0.00  0.00    +0.000 C 
ATOM     30  O   UNL     1       2.331   3.253  16.548  0.00  0.00    +0.000 OA
ENDBRANCH  18  28
ENDBRANCH  17  18
ENDBRANCH   1  17
TORSDOF 4
ENDMDL
MODEL 3
REMARK VINA RESULT:      -8.9      0.450      2.119
REMARK  Name = 
REMARK  5 active torsions:
REMARK  status: ('A' for Active; 'I' for Inactive)
REMARK    1  A    between atoms: C_1  and  C_2
REMARK    2  A    between atoms: N_10  and  C_11
REMARK    3  A    between atoms: C_11  and  C_12
REMARK    4  A    between atoms: C_12  and  C_13
REMARK    5  A    between atoms: C_19  and  C_20
REMARK                            x       y       z     vdW  Elec       q    Type
REMARK                         _______ _______ _______ _____ _____    ______ ____
ROOT
ATOM      1  C   UNL     1       6.993   5.312  16.360  0.00  0.00    +0.000 C 
ATOM      2  O   UNL     1       7.482   5.890  15.393  0.00  0.00    +0.000 OA
ATOM      3  N   UNL     1       6.942   5.822  17.643  0.00  0.00    +0.000 N 
ATOM      4  C   UNL     1       7.511   7.059  17.961  0.00  0.00    +0.000 A 
ATOM      5  C   UNL     1       7.279   8.189  17.193  0.00  0.00    +0.000 A 
ATOM      6  C   UNL     1       7.931   9.376  17.531  0.00  0.00    +0.000 A 
ATOM      7  C   UNL     1       8.826   9.418  18.606  0.00  0.00    +0.000 A 
ATOM      8  C   UNL     1       8.948   8.226  19.328  0.00  0.00    +0.000 A 
ATOM      9  N   UNL     1       8.286   7.069  19.060  0.00  0.00    +0.000 NA
ATOM     10  H   UNL     1       7.004   5.159  18.405  0.00  0.00    +0.000 HD
ENDROOT
BRANCH   7  11
ATOM     11  C   UNL     1       9.597  10.636  18.938  0.00  0.00    +0.000 A 
ATOM     12  C   UNL     1       9.783  11.043  20.271  0.00  0.00    +0.000 A 
ATOM     13  C   UNL     1      10.479  12.215  20.589  0.00  0.00    +0.000 A 
ATOM     14  C   UNL     1      11.016  13.003  19.577  0.00  0.00    +0.000 A 
ATOM     15  C   UNL     1      10.859  12.619  18.249  0.00  0.00    +0.000 A 
ATOM     16  C   UNL     1      10.152  11.452  17.934  0.00  0.00    +0.000 A 
ENDBRANCH   7  11
BRANCH   1  17
ATOM     17  C   UNL     1       6.360   3.941  16.224  0.00  0.00    +0.000 C 
BRANCH  17  18
ATOM     18  C   UNL     1       4.896   4.081  15.826  0.00  0.00    +0.000 C 
BRANCH  18  28
ATOM     19  C   UNL     1       1.737   2.148  20.067  0.00  0.00    +0.000 C 
ATOM     20  C   UNL     1       1.973   3.612  19.868  0.00  0.00    +0.000 A 
ATOM     21  C   UNL     1       1.450   4.567  20.756  0.00  0.00    +0.000 A 
ATOM     22  C   UNL     1       1.677   5.947  20.568  0.00  0.00    +0.000 A 
ATOM     23  C   UNL     1       2.416   6.408  19.477  0.00  0.00    +0.000 A 
ATOM     24  C   UNL     1       2.926   5.457  18.615  0.00  0.00    +0.000 A 
ATOM     25  C   UNL     1       2.717   4.099  18.800  0.00  0.00    +0.000 A 
ATOM     26  C   UNL     1       3.419   3.403  17.716  0.00  0.00    +0.000 C 
ATOM     27  O   UNL     1       3.428   2.198  17.554  0.00  0.00    +0.000 OA
ATOM     28  N   UNL     1       4.034   4.367  16.961  0.00  0.00    +0.000 N 
ATOM     29  C   UNL     1       3.752   5.623  17.417  0.00  0.00    +0.000 C 
ATOM     30  O   UNL     1       4.092   6.698  16.958  0.00  0.00    +0.000 OA
ENDBRANCH  18  28
ENDBRANCH  17  18
ENDBRANCH   1  17
TORSDOF 4
ENDMDL
MODEL 4
REMARK VINA RESULT:      -8.6      5.993      9.904
REMARK  Name = 
REMARK  5 active torsions:
REMARK  status: ('A' for Active; 'I' for Inactive)
REMARK    1  A    between atoms: C_1  and  C_2
REMARK    2  A    between atoms: N_10  and  C_11
REMARK    3  A    between atoms: C_11  and  C_12
REMARK    4  A    between atoms: C_12  and  C_13
REMARK    5  A    between atoms: C_19  and  C_20
REMARK                            x       y       z     vdW  Elec       q    Type
REMARK                         _______ _______ _______ _____ _____    ______ ____
ROOT
ATOM      1  C   UNL     1       0.761   9.327  18.379  0.00  0.00    +0.000 C 
ATOM      2  O   UNL     1       0.615   9.452  19.592  0.00  0.00    +0.000 OA
ATOM      3  N   UNL     1      -0.111   9.813  17.424  0.00  0.00    +0.000 N 
ATOM      4  C   UNL     1      -1.297  10.464  17.779  0.00  0.00    +0.000 A 
ATOM      5  C   UNL     1      -1.320  11.473  18.730  0.00  0.00    +0.000 A 
ATOM      6  C   UNL     1      -2.547  12.035  19.084  0.00  0.00    +0.000 A 
ATOM      7  C   UNL     1      -3.737  11.568  18.513  0.00  0.00    +0.000 A 
ATOM      8  C   UNL     1      -3.583  10.575  17.541  0.00  0.00    +0.000 A 
ATOM      9  N   UNL     1      -2.398  10.045  17.132  0.00  0.00    +0.000 NA
ATOM     10  H   UNL     1      -0.204   9.279  16.570  0.00  0.00    +0.000 HD
ENDROOT
BRANCH   7  11
ATOM     11  C   UNL     1      -5.060  12.082  18.928  0.00  0.00    +0.000 A 
ATOM     12  C   UNL     1      -5.311  12.468  20.258  0.00  0.00    +0.000 A 
ATOM     13  C   UNL     1      -6.572  12.919  20.664  0.00  0.00    +0.000 A 
ATOM     14  C   UNL     1      -7.610  13.006  19.744  0.00  0.00    +0.000 A 
ATOM     15  C   UNL     1      -7.390  12.643  18.420  0.00  0.00    +0.000 A 
ATOM     16  C   UNL     1      -6.130  12.181  18.018  0.00  0.00    +0.000 A 
ENDBRANCH   7  11
BRANCH   1  17
ATOM     17  C   UNL     1       1.966   8.616  17.797  0.00  0.00    +0.000 C 
BRANCH  17  18
ATOM     18  C   UNL     1       2.789   7.986  18.915  0.00  0.00    +0.000 C 
BRANCH  18  28
ATOM     19  C   UNL     1       1.134   3.007  20.956  0.00  0.00    +0.000 C 
ATOM     20  C   UNL     1       1.969   3.110  19.720  0.00  0.00    +0.000 A 
ATOM     21  C   UNL     1       2.342   1.969  18.989  0.00  0.00    +0.000 A 
ATOM     22  C   UNL     1       3.127   2.069  17.820  0.00  0.00    +0.000 A 
ATOM     23  C   UNL     1       3.575   3.310  17.364  0.00  0.00    +0.000 A 
ATOM     24  C   UNL     1       3.197   4.422  18.091  0.00  0.00    +0.000 A 
ATOM     25  C   UNL     1       2.416   4.332  19.233  0.00  0.00    +0.000 A 
ATOM     26  C   UNL     1       2.199   5.701  19.716  0.00  0.00    +0.000 C 
ATOM     27  O   UNL     1       1.575   5.995  20.716  0.00  0.00    +0.000 OA
ATOM     28  N   UNL     1       2.829   6.536  18.830  0.00  0.00    +0.000 N 
ATOM     29  C   UNL     1       3.480   5.839  17.852  0.00  0.00    +0.000 C 
ATOM     30  O   UNL     1       4.170   6.260  16.942  0.00  0.00    +0.000 OA
ENDBRANCH  18  28
ENDBRANCH  17  18
ENDBRANCH   1  17
TORSDOF 4
ENDMDL
MODEL 5
REMARK VINA RESULT:      -8.6      5.380      8.435
REMARK  Name = 
REMARK  5 active torsions:
REMARK  status: ('A' for Active; 'I' for Inactive)
REMARK    1  A    between atoms: C_1  and  C_2
REMARK    2  A    between atoms: N_10  and  C_11
REMARK    3  A    between atoms: C_11  and  C_12
REMARK    4  A    between atoms: C_12  and  C_13
REMARK    5  A    between atoms: C_19  and  C_20
REMARK                            x       y       z     vdW  Elec       q    Type
REMARK                         _______ _______ _______ _____ _____    ______ ____
ROOT
ATOM      1  C   UNL     1       1.379   9.707  18.379  0.00  0.00    +0.000 C 
ATOM      2  O   UNL     1       1.516  10.892  18.089  0.00  0.00    +0.000 OA
ATOM      3  N   UNL     1       0.583   9.231  19.404  0.00  0.00    +0.000 N 
ATOM      4  C   UNL     1      -0.112  10.098  20.253  0.00  0.00    +0.000 A 
ATOM      5  C   UNL     1      -0.873  11.148  19.762  0.00  0.00    +0.000 A 
ATOM      6  C   UNL     1      -1.487  12.014  20.668  0.00  0.00    +0.000 A 
ATOM      7  C   UNL     1      -1.314  11.844  22.047  0.00  0.00    +0.000 A 
ATOM      8  C   UNL     1      -0.558  10.729  22.421  0.00  0.00    +0.000 A 
ATOM      9  N   UNL     1       0.008   9.834  21.566  0.00  0.00    +0.000 NA
ATOM     10  H   UNL     1       0.893   8.392  19.876  0.00  0.00    +0.000 HD
ENDROOT
BRANCH   7  11
ATOM     11  C   UNL     1      -1.880  12.792  23.031  0.00  0.00    +0.000 A 
ATOM     12  C   UNL     1      -1.150  13.910  23.475  0.00  0.00    +0.000 A 
ATOM     13  C   UNL     1      -1.665  14.789  24.433  0.00  0.00    +0.000 A 
ATOM     14  C   UNL     1      -2.933  14.576  24.964  0.00  0.00    +0.000 A 
ATOM     15  C   UNL     1      -3.684  13.486  24.535  0.00  0.00    +0.000 A 
ATOM     16  C   UNL     1      -3.161  12.602  23.584  0.00  0.00    +0.000 A 
ENDBRANCH   7  11
BRANCH   1  17
ATOM     17  C   UNL     1       2.083   8.616  17.598  0.00  0.00    +0.000 C 
BRANCH  17  18
ATOM     18  C   UNL     1       3.190   8.000  18.446  0.00  0.00    +0.000 C 
BRANCH  18  28
ATOM     19  C   UNL     1       1.130   3.372  20.901  0.00  0.00    +0.000 C 
ATOM     20  C   UNL     1       1.980   3.296  19.673  0.00  0.00    +0.000 A 
ATOM     21  C   UNL     1       2.268   2.067  19.054  0.00  0.00    +0.000 A 
ATOM     22  C   UNL     1       3.068   1.999  17.893  0.00  0.00    +0.000 A 
ATOM     23  C   UNL     1       3.617   3.155  17.334  0.00  0.00    +0.000 A 
ATOM     24  C   UNL     1       3.321   4.355  17.952  0.00  0.00    +0.000 A 
ATOM     25  C   UNL     1       2.526   4.431  19.085  0.00  0.00    +0.000 A 
ATOM     26  C   UNL     1       2.415   5.850  19.439  0.00  0.00    +0.000 C 
ATOM     27  O   UNL     1       1.807   6.281  20.400  0.00  0.00    +0.000 OA
ATOM     28  N   UNL     1       3.116   6.549  18.493  0.00  0.00    +0.000 N 
ATOM     29  C   UNL     1       3.717   5.718  17.591  0.00  0.00    +0.000 C 
ATOM     30  O   UNL     1       4.446   5.999  16.658  0.00  0.00    +0.000 OA
ENDBRANCH  18  28
ENDBRANCH  17  18
ENDBRANCH   1  17
TORSDOF 4
ENDMDL
MODEL 6
REMARK VINA RESULT:      -8.5      4.672      8.000
REMARK  Name = 
REMARK  5 active torsions:
REMARK  status: ('A' for Active; 'I' for Inactive)
REMARK    1  A    between atoms: C_1  and  C_2
REMARK    2  A    between atoms: N_10  and  C_11
REMARK    3  A    between atoms: C_11  and  C_12
REMARK    4  A    between atoms: C_12  and  C_13
REMARK    5  A    between atoms: C_19  and  C_20
REMARK                            x       y       z     vdW  Elec       q    Type
REMARK                         _______ _______ _______ _____ _____    ______ ____
ROOT
ATOM      1  C   UNL     1       2.158   7.354  19.314  0.00  0.00    +0.000 C 
ATOM      2  O   UNL     1       1.959   8.087  18.349  0.00  0.00    +0.000 OA
ATOM      3  N   UNL     1       3.073   6.319  19.345  0.00  0.00    +0.000 N 
ATOM      4  C   UNL     1       3.832   5.980  18.221  0.00  0.00    +0.000 A 
ATOM      5  C   UNL     1       4.508   6.938  17.480  0.00  0.00    +0.000 A 
ATOM      6  C   UNL     1       5.193   6.538  16.332  0.00  0.00    +0.000 A 
ATOM      7  C   UNL     1       5.176   5.201  15.919  0.00  0.00    +0.000 A 
ATOM      8  C   UNL     1       4.494   4.323  16.768  0.00  0.00    +0.000 A 
ATOM      9  N   UNL     1       3.863   4.670  17.922  0.00  0.00    +0.000 NA
ATOM     10  H   UNL     1       2.838   5.514  19.911  0.00  0.00    +0.000 HD
ENDROOT
BRANCH   7  11
ATOM     11  C   UNL     1       5.820   4.760  14.663  0.00  0.00    +0.000 A 
ATOM     12  C   UNL     1       7.081   5.250  14.277  0.00  0.00    +0.000 A 
ATOM     13  C   UNL     1       7.679   4.865  13.071  0.00  0.00    +0.000 A 
ATOM     14  C   UNL     1       7.032   3.969  12.228  0.00  0.00    +0.000 A 
ATOM     15  C   UNL     1       5.789   3.458  12.589  0.00  0.00    +0.000 A 
ATOM     16  C   UNL     1       5.189   3.854  13.790  0.00  0.00    +0.000 A 
ENDBRANCH   7  11
BRANCH   1  17
ATOM     17  C   UNL     1       1.403   7.538  20.615  0.00  0.00    +0.000 C 
BRANCH  17  18
ATOM     18  C   UNL     1       1.862   8.815  21.308  0.00  0.00    +0.000 C 
BRANCH  18  28
ATOM     19  C   UNL     1      -1.694  12.548  19.046  0.00  0.00    +0.000 C 
ATOM     20  C   UNL     1      -1.759  12.180  20.495  0.00  0.00    +0.000 A 
ATOM     21  C   UNL     1      -2.739  12.721  21.345  0.00  0.00    +0.000 A 
ATOM     22  C   UNL     1      -2.800  12.369  22.711  0.00  0.00    +0.000 A 
ATOM     23  C   UNL     1      -1.872  11.485  23.264  0.00  0.00    +0.000 A 
ATOM     24  C   UNL     1      -0.918  10.960  22.414  0.00  0.00    +0.000 A 
ATOM     25  C   UNL     1      -0.859  11.291  21.069  0.00  0.00    +0.000 A 
ATOM     26  C   UNL     1       0.253  10.533  20.487  0.00  0.00    +0.000 C 
ATOM     27  O   UNL     1       0.608  10.599  19.325  0.00  0.00    +0.000 OA
ATOM     28  N   UNL     1       0.781   9.769  21.494  0.00  0.00    +0.000 N 
ATOM     29  C   UNL     1       0.155  10.001  22.686  0.00  0.00    +0.000 C 
ATOM     30  O   UNL     1       0.399   9.532  23.783  0.00  0.00    +0.000 OA
ENDBRANCH  18  28
ENDBRANCH  17  18
ENDBRANCH   1  17
TORSDOF 4
ENDMDL
MODEL 7
REMARK VINA RESULT:      -8.5      5.750      8.798
REMARK  Name = 
REMARK  5 active torsions:
REMARK  status: ('A' for Active; 'I' for Inactive)
REMARK    1  A    between atoms: C_1  and  C_2
REMARK    2  A    between atoms: N_10  and  C_11
REMARK    3  A    between atoms: C_11  and  C_12
REMARK    4  A    between atoms: C_12  and  C_13
REMARK    5  A    between atoms: C_19  and  C_20
REMARK                            x       y       z     vdW  Elec       q    Type
REMARK                         _______ _______ _______ _____ _____    ______ ____
ROOT
ATOM      1  C   UNL     1       0.862   9.279  21.264  0.00  0.00    +0.000 C 
ATOM      2  O   UNL     1       1.702   8.871  22.063  0.00  0.00    +0.000 OA
ATOM      3  N   UNL     1       0.814   8.938  19.926  0.00  0.00    +0.000 N 
ATOM      4  C   UNL     1       1.782   8.113  19.346  0.00  0.00    +0.000 A 
ATOM      5  C   UNL     1       2.171   6.919  19.932  0.00  0.00    +0.000 A 
ATOM      6  C   UNL     1       3.190   6.177  19.333  0.00  0.00    +0.000 A 
ATOM      7  C   UNL     1       3.828   6.643  18.178  0.00  0.00    +0.000 A 
ATOM      8  C   UNL     1       3.322   7.839  17.658  0.00  0.00    +0.000 A 
ATOM      9  N   UNL     1       2.295   8.558  18.186  0.00  0.00    +0.000 NA
ATOM     10  H   UNL     1       0.467   9.639  19.285  0.00  0.00    +0.000 HD
ENDROOT
BRANCH   7  11
ATOM     11  C   UNL     1       4.966   5.924  17.566  0.00  0.00    +0.000 A 
ATOM     12  C   UNL     1       5.008   5.660  16.185  0.00  0.00    +0.000 A 
ATOM     13  C   UNL     1       6.064   4.947  15.606  0.00  0.00    +0.000 A 
ATOM     14  C   UNL     1       7.112   4.491  16.398  0.00  0.00    +0.000 A 
ATOM     15  C   UNL     1       7.105   4.747  17.765  0.00  0.00    +0.000 A 
ATOM     16  C   UNL     1       6.041   5.451  18.342  0.00  0.00    +0.000 A 
ENDBRANCH   7  11
BRANCH   1  17
ATOM     17  C   UNL     1      -0.248  10.215  21.695  0.00  0.00    +0.000 C 
BRANCH  17  18
ATOM     18  C   UNL     1      -0.212  11.488  20.858  0.00  0.00    +0.000 C 
BRANCH  18  28
ATOM     19  C   UNL     1      -2.877  10.607  15.978  0.00  0.00    +0.000 C 
ATOM     20  C   UNL     1      -3.559  11.261  17.137  0.00  0.00    +0.000 A 
ATOM     21  C   UNL     1      -4.909  11.647  17.072  0.00  0.00    +0.000 A 
ATOM     22  C   UNL     1      -5.551  12.261  18.169  0.00  0.00    +0.000 A 
ATOM     23  C   UNL     1      -4.854  12.522  19.351  0.00  0.00    +0.000 A 
ATOM     24  C   UNL     1      -3.529  12.133  19.400  0.00  0.00    +0.000 A 
ATOM     25  C   UNL     1      -2.896  11.519  18.331  0.00  0.00    +0.000 A 
ATOM     26  C   UNL     1      -1.520  11.233  18.751  0.00  0.00    +0.000 C 
ATOM     27  O   UNL     1      -0.671  10.717  18.050  0.00  0.00    +0.000 OA
ATOM     28  N   UNL     1      -1.407  11.658  20.049  0.00  0.00    +0.000 N 
ATOM     29  C   UNL     1      -2.560  12.243  20.492  0.00  0.00    +0.000 C 
ATOM     30  O   UNL     1      -2.789  12.765  21.568  0.00  0.00    +0.000 OA
ENDBRANCH  18  28
ENDBRANCH  17  18
ENDBRANCH   1  17
TORSDOF 4
ENDMDL
MODEL 8
REMARK VINA RESULT:      -8.5      6.584     10.240
REMARK  Name = 
REMARK  5 active torsions:
REMARK  status: ('A' for Active; 'I' for Inactive)
REMARK    1  A    between atoms: C_1  and  C_2
REMARK    2  A    between atoms: N_10  and  C_11
REMARK    3  A    between atoms: C_11  and  C_12
REMARK    4  A    between atoms: C_12  and  C_13
REMARK    5  A    between atoms: C_19  and  C_20
REMARK                            x       y       z     vdW  Elec       q    Type
REMARK                         _______ _______ _______ _____ _____    ______ ____
ROOT
ATOM      1  C   UNL     1      -0.624  11.165  19.342  0.00  0.00    +0.000 C 
ATOM      2  O   UNL     1      -0.978  10.852  18.209  0.00  0.00    +0.000 OA
ATOM      3  N   UNL     1       0.444  10.608  20.019  0.00  0.00    +0.000 N 
ATOM      4  C   UNL     1       1.200   9.570  19.465  0.00  0.00    +0.000 A 
ATOM      5  C   UNL     1       1.682   9.629  18.166  0.00  0.00    +0.000 A 
ATOM      6  C   UNL     1       2.372   8.530  17.655  0.00  0.00    +0.000 A 
ATOM      7  C   UNL     1       2.550   7.377  18.428  0.00  0.00    +0.000 A 
ATOM      8  C   UNL     1       2.054   7.450  19.733  0.00  0.00    +0.000 A 
ATOM      9  N   UNL     1       1.426   8.525  20.280  0.00  0.00    +0.000 NA
ATOM     10  H   UNL     1       0.365  10.535  21.025  0.00  0.00    +0.000 HD
ENDROOT
BRANCH   7  11
ATOM     11  C   UNL     1       3.203   6.164  17.888  0.00  0.00    +0.000 A 
ATOM     12  C   UNL     1       4.419   6.240  17.184  0.00  0.00    +0.000 A 
ATOM     13  C   UNL     1       5.022   5.101  16.638  0.00  0.00    +0.000 A 
ATOM     14  C   UNL     1       4.426   3.855  16.795  0.00  0.00    +0.000 A 
ATOM     15  C   UNL     1       3.230   3.746  17.497  0.00  0.00    +0.000 A 
ATOM     16  C   UNL     1       2.624   4.890  18.032  0.00  0.00    +0.000 A 
ENDBRANCH   7  11
BRANCH   1  17
ATOM     17  C   UNL     1      -1.343  12.246  20.124  0.00  0.00    +0.000 C 
BRANCH  17  18
ATOM     18  C   UNL     1      -0.338  13.070  20.920  0.00  0.00    +0.000 C 
BRANCH  18  28
ATOM     19  C   UNL     1       4.103  14.833  17.944  0.00  0.00    +0.000 C 
ATOM     20  C   UNL     1       2.852  15.647  18.044  0.00  0.00    +0.000 A 
ATOM     21  C   UNL     1       2.716  16.870  17.364  0.00  0.00    +0.000 A 
ATOM     22  C   UNL     1       1.533  17.634  17.457  0.00  0.00    +0.000 A 
ATOM     23  C   UNL     1       0.465  17.206  18.248  0.00  0.00    +0.000 A 
ATOM     24  C   UNL     1       0.613  16.000  18.906  0.00  0.00    +0.000 A 
ATOM     25  C   UNL     1       1.767  15.238  18.810  0.00  0.00    +0.000 A 
ATOM     26  C   UNL     1       1.555  14.030  19.614  0.00  0.00    +0.000 C 
ATOM     27  O   UNL     1       2.376  13.147  19.774  0.00  0.00    +0.000 OA
ATOM     28  N   UNL     1       0.285  14.112  20.123  0.00  0.00    +0.000 N 
ATOM     29  C   UNL     1      -0.325  15.283  19.772  0.00  0.00    +0.000 C 
ATOM     30  O   UNL     1      -1.426  15.697  20.087  0.00  0.00    +0.000 OA
ENDBRANCH  18  28
ENDBRANCH  17  18
ENDBRANCH   1  17
TORSDOF 4
ENDMDL
MODEL 9
REMARK VINA RESULT:      -8.4      7.242     10.402
REMARK  Name = 
REMARK  5 active torsions:
REMARK  status: ('A' for Active; 'I' for Inactive)
REMARK    1  A    between atoms: C_1  and  C_2
REMARK    2  A    between atoms: N_10  and  C_11
REMARK    3  A    between atoms: C_11  and  C_12
REMARK    4  A    between atoms: C_12  and  C_13
REMARK    5  A    between atoms: C_19  and  C_20
REMARK                            x       y       z     vdW  Elec       q    Type
REMARK                         _______ _______ _______ _____ _____    ______ ____
ROOT
ATOM      1  C   UNL     1      -0.477  10.901  19.987  0.00  0.00    +0.000 C 
ATOM      2  O   UNL     1      -1.005  10.612  18.916  0.00  0.00    +0.000 OA
ATOM      3  N   UNL     1       0.668  10.312  20.487  0.00  0.00    +0.000 N 
ATOM      4  C   UNL     1       1.308   9.268  19.814  0.00  0.00    +0.000 A 
ATOM      5  C   UNL     1       1.590   9.337  18.458  0.00  0.00    +0.000 A 
ATOM      6  C   UNL     1       2.172   8.232  17.835  0.00  0.00    +0.000 A 
ATOM      7  C   UNL     1       2.438   7.064  18.559  0.00  0.00    +0.000 A 
ATOM      8  C   UNL     1       2.146   7.128  19.924  0.00  0.00    +0.000 A 
ATOM      9  N   UNL     1       1.631   8.207  20.573  0.00  0.00    +0.000 NA
ATOM     10  H   UNL     1       0.739  10.226  21.493  0.00  0.00    +0.000 HD
ENDROOT
BRANCH   7  11
ATOM     11  C   UNL     1       2.975   5.847  17.912  0.00  0.00    +0.000 A 
ATOM     12  C   UNL     1       2.235   4.651  17.873  0.00  0.00    +0.000 A 
ATOM     13  C   UNL     1       2.753   3.486  17.297  0.00  0.00    +0.000 A 
ATOM     14  C   UNL     1       4.024   3.494  16.733  0.00  0.00    +0.000 A 
ATOM     15  C   UNL     1       4.775   4.665  16.745  0.00  0.00    +0.000 A 
ATOM     16  C   UNL     1       4.258   5.826  17.333  0.00  0.00    +0.000 A 
ENDBRANCH   7  11
BRANCH   1  17
ATOM     17  C   UNL     1      -1.047  11.984  20.881  0.00  0.00    +0.000 C 
BRANCH  17  18
ATOM     18  C   UNL     1      -1.907  12.938  20.061  0.00  0.00    +0.000 C 
BRANCH  18  28
ATOM     19  C   UNL     1      -6.902  11.007  18.326  0.00  0.00    +0.000 C 
ATOM     20  C   UNL     1      -6.725  11.623  19.678  0.00  0.00    +0.000 A 
ATOM     21  C   UNL     1      -7.791  11.709  20.590  0.00  0.00    +0.000 A 
ATOM     22  C   UNL     1      -7.621  12.288  21.866  0.00  0.00    +0.000 A 
ATOM     23  C   UNL     1      -6.387  12.813  22.254  0.00  0.00    +0.000 A 
ATOM     24  C   UNL     1      -5.349  12.718  21.347  0.00  0.00    +0.000 A 
ATOM     25  C   UNL     1      -5.506  12.139  20.097  0.00  0.00    +0.000 A 
ATOM     26  C   UNL     1      -4.200  12.194  19.430  0.00  0.00    +0.000 C 
ATOM     27  O   UNL     1      -3.978  11.795  18.303  0.00  0.00    +0.000 OA
ATOM     28  N   UNL     1      -3.327  12.769  20.316  0.00  0.00    +0.000 N 
ATOM     29  C   UNL     1      -3.953  13.143  21.472  0.00  0.00    +0.000 C 
ATOM     30  O   UNL     1      -3.491  13.717  22.441  0.00  0.00    +0.000 OA
ENDBRANCH  18  28
ENDBRANCH  17  18
ENDBRANCH   1  17
TORSDOF 4
ENDMDL
