MODEL 1
REMARK VINA RESULT:      -8.3      0.000      0.000
REMARK  Name = 
REMARK  4 active torsions:
REMARK  status: ('A' for Active; 'I' for Inactive)
REMARK    1  A    between atoms: C_1  and  C_2
REMARK    2  A    between atoms: C_7  and  C_8
REMARK    3  A    between atoms: C_14  and  N_15
REMARK    4  A    between atoms: C_16  and  C_18
REMARK                            x       y       z     vdW  Elec       q    Type
REMARK                         _______ _______ _______ _____ _____    ______ ____
ROOT
ATOM      1  C   UNL     1       2.295   5.408  20.099  0.00  0.00    +0.000 A 
ATOM      2  N   UNL     1       1.882   4.813  21.228  0.00  0.00    +0.000 NA
ATOM      3  N   UNL     1       2.276   3.538  21.075  0.00  0.00    +0.000 N 
ATOM      4  C   UNL     1       2.958   3.295  19.914  0.00  0.00    +0.000 A 
ATOM      5  C   UNL     1       3.534   2.130  19.411  0.00  0.00    +0.000 A 
ATOM      6  C   UNL     1       4.203   2.219  18.183  0.00  0.00    +0.000 A 
ATOM      7  C   UNL     1       4.300   3.418  17.472  0.00  0.00    +0.000 A 
ATOM      8  C   UNL     1       3.681   4.566  17.998  0.00  0.00    +0.000 A 
ATOM      9  C   UNL     1       3.001   4.511  19.240  0.00  0.00    +0.000 A 
ATOM     10  H   UNL     1       2.057   2.874  21.809  0.00  0.00    +0.000 HD
ENDROOT
BRANCH   1  17
ATOM     11  C   UNL     1       0.394  12.595  20.807  0.00  0.00    +0.000 C 
ATOM     12  C   UNL     1       0.846  11.304  20.186  0.00  0.00    +0.000 A 
ATOM     13  C   UNL     1       1.223  11.270  18.839  0.00  0.00    +0.000 A 
ATOM     14  C   UNL     1       1.671  10.087  18.246  0.00  0.00    +0.000 A 
ATOM     15  C   UNL     1       1.739   8.917  19.019  0.00  0.00    +0.000 A 
ATOM     16  C   UNL     1       2.153   7.590  18.738  0.00  0.00    +0.000 A 
ATOM     17  C   UNL     1       1.998   6.848  19.884  0.00  0.00    +0.000 A 
ATOM     18  N   UNL     1       1.484   7.678  20.849  0.00  0.00    +0.000 N 
ATOM     19  C   UNL     1       1.342   8.956  20.354  0.00  0.00    +0.000 A 
ATOM     20  C   UNL     1       0.895  10.136  20.967  0.00  0.00    +0.000 A 
ATOM     21  H   UNL     1       1.267   7.375  21.791  0.00  0.00    +0.000 HD
ENDBRANCH   1  17
BRANCH   7  22
ATOM     22  N   UNL     1       4.991   3.547  16.236  0.00  0.00    +0.000 N 
ATOM     23  C   UNL     1       6.196   4.194  16.031  0.00  0.00    +0.000 C 
ATOM     24  O   UNL     1       6.835   4.805  16.886  0.00  0.00    +0.000 OA
ATOM     25  H   UNL     1       4.537   3.142  15.426  0.00  0.00    +0.000 HD
BRANCH  23  26
ATOM     26  C   UNL     1       6.772   4.112  14.622  0.00  0.00    +0.000 C 
ATOM     27  C   UNL     1       7.426   5.401  14.123  0.00  0.00    +0.000 C 
ATOM     28  C   UNL     1       8.016   5.154  12.737  0.00  0.00    +0.000 C 
ATOM     29  O   UNL     1       7.001   4.700  11.839  0.00  0.00    +0.000 OA
ATOM     30  C   UNL     1       6.431   3.454  12.244  0.00  0.00    +0.000 C 
ATOM     31  C   UNL     1       5.755   3.600  13.602  0.00  0.00    +0.000 C 
ENDBRANCH  23  26
ENDBRANCH   7  22
TORSDOF 3
ENDMDL
MODEL 2
REMARK VINA RESULT:      -8.1      4.489      9.635
REMARK  Name = 
REMARK  4 active torsions:
REMARK  status: ('A' for Active; 'I' for Inactive)
REMARK    1  A    between atoms: C_1  and  C_2
REMARK    2  A    between atoms: C_7  and  C_8
REMARK    3  A    between atoms: C_14  and  N_15
REMARK    4  A    between atoms: C_16  and  C_18
REMARK                            x       y       z     vdW  Elec       q    Type
REMARK                         _______ _______ _______ _____ _____    ______ ____
ROOT
ATOM      1  C   UNL     1       0.404   9.003  21.390  0.00  0.00    +0.000 A 
ATOM      2  N   UNL     1      -0.408   8.328  22.215  0.00  0.00    +0.000 NA
ATOM      3  N   UNL     1      -1.035   9.297  22.904  0.00  0.00    +0.000 N 
ATOM      4  C   UNL     1      -0.689  10.566  22.529  0.00  0.00    +0.000 A 
ATOM      5  C   UNL     1      -1.124  11.811  22.981  0.00  0.00    +0.000 A 
ATOM      6  C   UNL     1      -0.589  12.947  22.358  0.00  0.00    +0.000 A 
ATOM      7  C   UNL     1       0.346  12.859  21.324  0.00  0.00    +0.000 A 
ATOM      8  C   UNL     1       0.782  11.586  20.915  0.00  0.00    +0.000 A 
ATOM      9  C   UNL     1       0.257  10.418  21.521  0.00  0.00    +0.000 A 
ATOM     10  H   UNL     1      -1.703   9.027  23.617  0.00  0.00    +0.000 HD
ENDROOT
BRANCH   1  17
ATOM     11  C   UNL     1       4.853   3.959  18.144  0.00  0.00    +0.000 C 
ATOM     12  C   UNL     1       4.073   5.222  18.370  0.00  0.00    +0.000 A 
ATOM     13  C   UNL     1       4.044   6.212  17.381  0.00  0.00    +0.000 A 
ATOM     14  C   UNL     1       3.305   7.384  17.557  0.00  0.00    +0.000 A 
ATOM     15  C   UNL     1       2.584   7.568  18.748  0.00  0.00    +0.000 A 
ATOM     16  C   UNL     1       1.743   8.604  19.225  0.00  0.00    +0.000 A 
ATOM     17  C   UNL     1       1.306   8.250  20.479  0.00  0.00    +0.000 A 
ATOM     18  N   UNL     1       1.871   7.038  20.788  0.00  0.00    +0.000 N 
ATOM     19  C   UNL     1       2.636   6.585  19.735  0.00  0.00    +0.000 A 
ATOM     20  C   UNL     1       3.368   5.399  19.573  0.00  0.00    +0.000 A 
ATOM     21  H   UNL     1       1.717   6.555  21.665  0.00  0.00    +0.000 HD
ENDBRANCH   1  17
BRANCH   7  22
ATOM     22  N   UNL     1       0.890  13.990  20.657  0.00  0.00    +0.000 N 
ATOM     23  C   UNL     1       0.472  14.511  19.445  0.00  0.00    +0.000 C 
ATOM     24  O   UNL     1      -0.411  14.039  18.730  0.00  0.00    +0.000 OA
ATOM     25  H   UNL     1       1.677  14.440  21.109  0.00  0.00    +0.000 HD
BRANCH  23  26
ATOM     26  C   UNL     1       1.164  15.790  18.988  0.00  0.00    +0.000 C 
ATOM     27  C   UNL     1       0.245  16.803  18.302  0.00  0.00    +0.000 C 
ATOM     28  C   UNL     1       1.052  18.053  17.962  0.00  0.00    +0.000 C 
ATOM     29  O   UNL     1       2.169  17.715  17.136  0.00  0.00    +0.000 OA
ATOM     30  C   UNL     1       3.082  16.831  17.787  0.00  0.00    +0.000 C 
ATOM     31  C   UNL     1       2.394  15.514  18.123  0.00  0.00    +0.000 C 
ENDBRANCH  23  26
ENDBRANCH   7  22
TORSDOF 3
ENDMDL
MODEL 3
REMARK VINA RESULT:      -8.1      0.574      1.086
REMARK  Name = 
REMARK  4 active torsions:
REMARK  status: ('A' for Active; 'I' for Inactive)
REMARK    1  A    between atoms: C_1  and  C_2
REMARK    2  A    between atoms: C_7  and  C_8
REMARK    3  A    between atoms: C_14  and  N_15
REMARK    4  A    between atoms: C_16  and  C_18
REMARK                            x       y       z     vdW  Elec       q    Type
REMARK                         _______ _______ _______ _____ _____    ______ ____
ROOT
ATOM      1  C   UNL     1       2.257   5.448  20.250  0.00  0.00    +0.000 A 
ATOM      2  N   UNL     1       2.022   4.785  21.390  0.00  0.00    +0.000 NA
ATOM      3  N   UNL     1       2.439   3.536  21.121  0.00  0.00    +0.000 N 
ATOM      4  C   UNL     1       2.967   3.377  19.869  0.00  0.00    +0.000 A 
ATOM      5  C   UNL     1       3.513   2.263  19.234  0.00  0.00    +0.000 A 
ATOM      6  C   UNL     1       4.007   2.438  17.935  0.00  0.00    +0.000 A 
ATOM      7  C   UNL     1       3.964   3.672  17.281  0.00  0.00    +0.000 A 
ATOM      8  C   UNL     1       3.379   4.766  17.943  0.00  0.00    +0.000 A 
ATOM      9  C   UNL     1       2.874   4.624  19.260  0.00  0.00    +0.000 A 
ATOM     10  H   UNL     1       2.345   2.830  21.842  0.00  0.00    +0.000 HD
ENDROOT
BRANCH   1  17
ATOM     11  C   UNL     1       0.008  12.451  21.541  0.00  0.00    +0.000 C 
ATOM     12  C   UNL     1       0.509  11.236  20.814  0.00  0.00    +0.000 A 
ATOM     13  C   UNL     1       0.852  11.323  19.460  0.00  0.00    +0.000 A 
ATOM     14  C   UNL     1       1.345  10.213  18.770  0.00  0.00    +0.000 A 
ATOM     15  C   UNL     1       1.494   8.993  19.450  0.00  0.00    +0.000 A 
ATOM     16  C   UNL     1       1.968   7.715  19.061  0.00  0.00    +0.000 A 
ATOM     17  C   UNL     1       1.881   6.882  20.150  0.00  0.00    +0.000 A 
ATOM     18  N   UNL     1       1.350   7.610  21.186  0.00  0.00    +0.000 N 
ATOM     19  C   UNL     1       1.129   8.912  20.793  0.00  0.00    +0.000 A 
ATOM     20  C   UNL     1       0.639  10.017  21.503  0.00  0.00    +0.000 A 
ATOM     21  H   UNL     1       1.173   7.226  22.107  0.00  0.00    +0.000 HD
ENDBRANCH   1  17
BRANCH   7  22
ATOM     22  N   UNL     1       4.477   3.888  15.973  0.00  0.00    +0.000 N 
ATOM     23  C   UNL     1       5.528   4.718  15.628  0.00  0.00    +0.000 C 
ATOM     24  O   UNL     1       6.154   5.440  16.403  0.00  0.00    +0.000 OA
ATOM     25  H   UNL     1       4.005   3.400  15.221  0.00  0.00    +0.000 HD
BRANCH  23  26
ATOM     26  C   UNL     1       5.944   4.704  14.161  0.00  0.00    +0.000 C 
ATOM     27  C   UNL     1       5.606   3.413  13.414  0.00  0.00    +0.000 C 
ATOM     28  C   UNL     1       6.014   3.566  11.951  0.00  0.00    +0.000 C 
ATOM     29  O   UNL     1       7.405   3.879  11.853  0.00  0.00    +0.000 OA
ATOM     30  C   UNL     1       7.730   5.122  12.477  0.00  0.00    +0.000 C 
ATOM     31  C   UNL     1       7.417   5.063  13.967  0.00  0.00    +0.000 C 
ENDBRANCH  23  26
ENDBRANCH   7  22
TORSDOF 3
ENDMDL
MODEL 4
REMARK VINA RESULT:      -8.1      4.514      9.678
REMARK  Name = 
REMARK  4 active torsions:
REMARK  status: ('A' for Active; 'I' for Inactive)
REMARK    1  A    between atoms: C_1  and  C_2
REMARK    2  A    between atoms: C_7  and  C_8
REMARK    3  A    between atoms: C_14  and  N_15
REMARK    4  A    between atoms: C_16  and  C_18
REMARK                            x       y       z     vdW  Elec       q    Type
REMARK                         _______ _______ _______ _____ _____    ______ ____
ROOT
ATOM      1  C   UNL     1       0.371   9.275  21.565  0.00  0.00    +0.000 A 
ATOM      2  N   UNL     1      -0.229   8.698  22.615  0.00  0.00    +0.000 NA
ATOM      3  N   UNL     1      -0.850   9.721  23.227  0.00  0.00    +0.000 N 
ATOM      4  C   UNL     1      -0.706  10.925  22.593  0.00  0.00    +0.000 A 
ATOM      5  C   UNL     1      -1.204  12.191  22.897  0.00  0.00    +0.000 A 
ATOM      6  C   UNL     1      -0.898  13.234  22.013  0.00  0.00    +0.000 A 
ATOM      7  C   UNL     1      -0.124  13.037  20.867  0.00  0.00    +0.000 A 
ATOM      8  C   UNL     1       0.385  11.751  20.609  0.00  0.00    +0.000 A 
ATOM      9  C   UNL     1       0.089  10.673  21.480  0.00  0.00    +0.000 A 
ATOM     10  H   UNL     1      -1.370   9.532  24.076  0.00  0.00    +0.000 HD
ENDROOT
BRANCH   1  17
ATOM     11  C   UNL     1       4.459   3.903  18.373  0.00  0.00    +0.000 C 
ATOM     12  C   UNL     1       3.749   5.210  18.575  0.00  0.00    +0.000 A 
ATOM     13  C   UNL     1       3.734   6.164  17.551  0.00  0.00    +0.000 A 
ATOM     14  C   UNL     1       3.059   7.377  17.706  0.00  0.00    +0.000 A 
ATOM     15  C   UNL     1       2.388   7.639  18.911  0.00  0.00    +0.000 A 
ATOM     16  C   UNL     1       1.614   8.732  19.375  0.00  0.00    +0.000 A 
ATOM     17  C   UNL     1       1.203   8.447  20.655  0.00  0.00    +0.000 A 
ATOM     18  N   UNL     1       1.719   7.220  20.992  0.00  0.00    +0.000 N 
ATOM     19  C   UNL     1       2.426   6.691  19.933  0.00  0.00    +0.000 A 
ATOM     20  C   UNL     1       3.094   5.466  19.793  0.00  0.00    +0.000 A 
ATOM     21  H   UNL     1       1.572   6.778  21.891  0.00  0.00    +0.000 HD
ENDBRANCH   1  17
BRANCH   7  22
ATOM     22  N   UNL     1       0.185  14.068  19.939  0.00  0.00    +0.000 N 
ATOM     23  C   UNL     1       1.417  14.672  19.760  0.00  0.00    +0.000 C 
ATOM     24  O   UNL     1       2.430  14.440  20.418  0.00  0.00    +0.000 OA
ATOM     25  H   UNL     1      -0.583  14.405  19.372  0.00  0.00    +0.000 HD
BRANCH  23  26
ATOM     26  C   UNL     1       1.509  15.693  18.631  0.00  0.00    +0.000 C 
ATOM     27  C   UNL     1       2.934  16.098  18.251  0.00  0.00    +0.000 C 
ATOM     28  C   UNL     1       2.876  17.065  17.072  0.00  0.00    +0.000 C 
ATOM     29  O   UNL     1       2.078  18.204  17.401  0.00  0.00    +0.000 OA
ATOM     30  C   UNL     1       0.721  17.857  17.682  0.00  0.00    +0.000 C 
ATOM     31  C   UNL     1       0.652  16.932  18.892  0.00  0.00    +0.000 C 
ENDBRANCH  23  26
ENDBRANCH   7  22
TORSDOF 3
ENDMDL
MODEL 5
REMARK VINA RESULT:      -8.0      7.332      8.746
REMARK  Name = 
REMARK  4 active torsions:
REMARK  status: ('A' for Active; 'I' for Inactive)
REMARK    1  A    between atoms: C_1  and  C_2
REMARK    2  A    between atoms: C_7  and  C_8
REMARK    3  A    between atoms: C_14  and  N_15
REMARK    4  A    between atoms: C_16  and  C_18
REMARK                            x       y       z     vdW  Elec       q    Type
REMARK                         _______ _______ _______ _____ _____    ______ ____
ROOT
ATOM      1  C   UNL     1       9.277  12.860  22.156  0.00  0.00    +0.000 A 
ATOM      2  N   UNL     1       9.935  14.023  22.049  0.00  0.00    +0.000 NA
ATOM      3  N   UNL     1      10.595  13.907  20.884  0.00  0.00    +0.000 N 
ATOM      4  C   UNL     1      10.360  12.733  20.220  0.00  0.00    +0.000 A 
ATOM      5  C   UNL     1      10.833  12.256  18.999  0.00  0.00    +0.000 A 
ATOM      6  C   UNL     1      10.370  11.004  18.572  0.00  0.00    +0.000 A 
ATOM      7  C   UNL     1       9.471  10.246  19.326  0.00  0.00    +0.000 A 
ATOM      8  C   UNL     1       9.039  10.748  20.567  0.00  0.00    +0.000 A 
ATOM      9  C   UNL     1       9.484  12.013  21.024  0.00  0.00    +0.000 A 
ATOM     10  H   UNL     1      11.189  14.672  20.587  0.00  0.00    +0.000 HD
ENDROOT
BRANCH   1  17
ATOM     11  C   UNL     1       4.249  10.387  27.092  0.00  0.00    +0.000 C 
ATOM     12  C   UNL     1       5.395  11.159  26.504  0.00  0.00    +0.000 A 
ATOM     13  C   UNL     1       6.137  12.030  27.310  0.00  0.00    +0.000 A 
ATOM     14  C   UNL     1       7.223  12.740  26.792  0.00  0.00    +0.000 A 
ATOM     15  C   UNL     1       7.570  12.574  25.441  0.00  0.00    +0.000 A 
ATOM     16  C   UNL     1       8.596  13.116  24.627  0.00  0.00    +0.000 A 
ATOM     17  C   UNL     1       8.450  12.600  23.362  0.00  0.00    +0.000 A 
ATOM     18  N   UNL     1       7.352  11.774  23.376  0.00  0.00    +0.000 N 
ATOM     19  C   UNL     1       6.811  11.719  24.642  0.00  0.00    +0.000 A 
ATOM     20  C   UNL     1       5.722  10.995  25.147  0.00  0.00    +0.000 A 
ATOM     21  H   UNL     1       7.018  11.272  22.562  0.00  0.00    +0.000 HD
ENDBRANCH   1  17
BRANCH   7  22
ATOM     22  N   UNL     1       8.965   8.984  18.911  0.00  0.00    +0.000 N 
ATOM     23  C   UNL     1       7.967   8.763  17.979  0.00  0.00    +0.000 C 
ATOM     24  O   UNL     1       7.325   9.636  17.398  0.00  0.00    +0.000 OA
ATOM     25  H   UNL     1       9.364   8.171  19.366  0.00  0.00    +0.000 HD
BRANCH  23  26
ATOM     26  C   UNL     1       7.670   7.306  17.644  0.00  0.00    +0.000 C 
ATOM     27  C   UNL     1       6.267   7.052  17.090  0.00  0.00    +0.000 C 
ATOM     28  C   UNL     1       6.134   5.573  16.737  0.00  0.00    +0.000 C 
ATOM     29  O   UNL     1       6.399   4.762  17.883  0.00  0.00    +0.000 OA
ATOM     30  C   UNL     1       7.732   4.924  18.371  0.00  0.00    +0.000 C 
ATOM     31  C   UNL     1       7.961   6.364  18.813  0.00  0.00    +0.000 C 
ENDBRANCH  23  26
ENDBRANCH   7  22
TORSDOF 3
ENDMDL
MODEL 6
REMARK VINA RESULT:      -8.0      4.495      5.615
REMARK  Name = 
REMARK  4 active torsions:
REMARK  status: ('A' for Active; 'I' for Inactive)
REMARK    1  A    between atoms: C_1  and  C_2
REMARK    2  A    between atoms: C_7  and  C_8
REMARK    3  A    between atoms: C_14  and  N_15
REMARK    4  A    between atoms: C_16  and  C_18
REMARK                            x       y       z     vdW  Elec       q    Type
REMARK                         _______ _______ _______ _____ _____    ______ ____
ROOT
ATOM      1  C   UNL     1       3.604   6.253  18.059  0.00  0.00    +0.000 A 
ATOM      2  N   UNL     1       3.112   5.123  17.533  0.00  0.00    +0.000 NA
ATOM      3  N   UNL     1       4.185   4.545  16.965  0.00  0.00    +0.000 N 
ATOM      4  C   UNL     1       5.353   5.237  17.138  0.00  0.00    +0.000 A 
ATOM      5  C   UNL     1       6.656   4.962  16.726  0.00  0.00    +0.000 A 
ATOM      6  C   UNL     1       7.655   5.871  17.097  0.00  0.00    +0.000 A 
ATOM      7  C   UNL     1       7.380   7.016  17.849  0.00  0.00    +0.000 A 
ATOM      8  C   UNL     1       6.049   7.274  18.221  0.00  0.00    +0.000 A 
ATOM      9  C   UNL     1       5.015   6.372  17.867  0.00  0.00    +0.000 A 
ATOM     10  H   UNL     1       4.058   3.666  16.478  0.00  0.00    +0.000 HD
ENDROOT
BRANCH   1  17
ATOM     11  C   UNL     1      -0.585   9.960  23.006  0.00  0.00    +0.000 C 
ATOM     12  C   UNL     1       0.053   9.565  21.706  0.00  0.00    +0.000 A 
ATOM     13  C   UNL     1      -0.181  10.323  20.553  0.00  0.00    +0.000 A 
ATOM     14  C   UNL     1       0.423   9.990  19.338  0.00  0.00    +0.000 A 
ATOM     15  C   UNL     1       1.275   8.875  19.278  0.00  0.00    +0.000 A 
ATOM     16  C   UNL     1       2.038   8.290  18.236  0.00  0.00    +0.000 A 
ATOM     17  C   UNL     1       2.687   7.194  18.752  0.00  0.00    +0.000 A 
ATOM     18  N   UNL     1       2.327   7.083  20.072  0.00  0.00    +0.000 N 
ATOM     19  C   UNL     1       1.485   8.114  20.427  0.00  0.00    +0.000 A 
ATOM     20  C   UNL     1       0.892   8.437  21.656  0.00  0.00    +0.000 A 
ATOM     21  H   UNL     1       2.661   6.348  20.684  0.00  0.00    +0.000 HD
ENDBRANCH   1  17
BRANCH   7  22
ATOM     22  N   UNL     1       8.374   7.945  18.260  0.00  0.00    +0.000 N 
ATOM     23  C   UNL     1       8.339   9.317  18.089  0.00  0.00    +0.000 C 
ATOM     24  O   UNL     1       7.456   9.943  17.503  0.00  0.00    +0.000 OA
ATOM     25  H   UNL     1       9.197   7.554  18.702  0.00  0.00    +0.000 HD
BRANCH  23  26
ATOM     26  C   UNL     1       9.492  10.103  18.704  0.00  0.00    +0.000 C 
ATOM     27  C   UNL     1       9.176  10.747  20.054  0.00  0.00    +0.000 C 
ATOM     28  C   UNL     1      10.432  11.437  20.580  0.00  0.00    +0.000 C 
ATOM     29  O   UNL     1      10.902  12.401  19.636  0.00  0.00    +0.000 OA
ATOM     30  C   UNL     1      11.278  11.809  18.392  0.00  0.00    +0.000 C 
ATOM     31  C   UNL     1      10.076  11.137  17.742  0.00  0.00    +0.000 C 
ENDBRANCH  23  26
ENDBRANCH   7  22
TORSDOF 3
ENDMDL
MODEL 7
REMARK VINA RESULT:      -8.0      0.707      1.580
REMARK  Name = 
REMARK  4 active torsions:
REMARK  status: ('A' for Active; 'I' for Inactive)
REMARK    1  A    between atoms: C_1  and  C_2
REMARK    2  A    between atoms: C_7  and  C_8
REMARK    3  A    between atoms: C_14  and  N_15
REMARK    4  A    between atoms: C_16  and  C_18
REMARK                            x       y       z     vdW  Elec       q    Type
REMARK                         _______ _______ _______ _____ _____    ______ ____
ROOT
ATOM      1  C   UNL     1       2.186   5.360  20.320  0.00  0.00    +0.000 A 
ATOM      2  N   UNL     1       1.941   4.629  21.416  0.00  0.00    +0.000 NA
ATOM      3  N   UNL     1       2.370   3.400  21.079  0.00  0.00    +0.000 N 
ATOM      4  C   UNL     1       2.915   3.320  19.826  0.00  0.00    +0.000 A 
ATOM      5  C   UNL     1       3.477   2.249  19.134  0.00  0.00    +0.000 A 
ATOM      6  C   UNL     1       3.987   2.504  17.853  0.00  0.00    +0.000 A 
ATOM      7  C   UNL     1       3.943   3.774  17.274  0.00  0.00    +0.000 A 
ATOM      8  C   UNL     1       3.342   4.824  17.992  0.00  0.00    +0.000 A 
ATOM      9  C   UNL     1       2.822   4.600  19.291  0.00  0.00    +0.000 A 
ATOM     10  H   UNL     1       2.272   2.653  21.755  0.00  0.00    +0.000 HD
ENDROOT
BRANCH   1  17
ATOM     11  C   UNL     1       0.877  12.483  18.498  0.00  0.00    +0.000 C 
ATOM     12  C   UNL     1       0.949  11.218  19.304  0.00  0.00    +0.000 A 
ATOM     13  C   UNL     1       0.449  11.192  20.611  0.00  0.00    +0.000 A 
ATOM     14  C   UNL     1       0.481  10.020  21.370  0.00  0.00    +0.000 A 
ATOM     15  C   UNL     1       1.027   8.854  20.809  0.00  0.00    +0.000 A 
ATOM     16  C   UNL     1       1.193   7.530  21.289  0.00  0.00    +0.000 A 
ATOM     17  C   UNL     1       1.801   6.795  20.301  0.00  0.00    +0.000 A 
ATOM     18  N   UNL     1       2.029   7.637  19.240  0.00  0.00    +0.000 N 
ATOM     19  C   UNL     1       1.540   8.895  19.514  0.00  0.00    +0.000 A 
ATOM     20  C   UNL     1       1.511  10.061  18.735  0.00  0.00    +0.000 A 
ATOM     21  H   UNL     1       2.478   7.345  18.380  0.00  0.00    +0.000 HD
ENDBRANCH   1  17
BRANCH   7  22
ATOM     22  N   UNL     1       4.471   4.071  15.988  0.00  0.00    +0.000 N 
ATOM     23  C   UNL     1       5.792   4.349  15.685  0.00  0.00    +0.000 C 
ATOM     24  O   UNL     1       6.711   4.432  16.498  0.00  0.00    +0.000 OA
ATOM     25  H   UNL     1       3.804   4.103  15.226  0.00  0.00    +0.000 HD
BRANCH  23  26
ATOM     26  C   UNL     1       6.117   4.546  14.208  0.00  0.00    +0.000 C 
ATOM     27  C   UNL     1       5.817   3.337  13.322  0.00  0.00    +0.000 C 
ATOM     28  C   UNL     1       6.124   3.698  11.870  0.00  0.00    +0.000 C 
ATOM     29  O   UNL     1       7.483   4.119  11.739  0.00  0.00    +0.000 OA
ATOM     30  C   UNL     1       7.766   5.295  12.498  0.00  0.00    +0.000 C 
ATOM     31  C   UNL     1       7.549   5.031  13.983  0.00  0.00    +0.000 C 
ENDBRANCH  23  26
ENDBRANCH   7  22
TORSDOF 3
ENDMDL
MODEL 8
REMARK VINA RESULT:      -8.0      4.527      9.540
REMARK  Name = 
REMARK  4 active torsions:
REMARK  status: ('A' for Active; 'I' for Inactive)
REMARK    1  A    between atoms: C_1  and  C_2
REMARK    2  A    between atoms: C_7  and  C_8
REMARK    3  A    between atoms: C_14  and  N_15
REMARK    4  A    between atoms: C_16  and  C_18
REMARK                            x       y       z     vdW  Elec       q    Type
REMARK                         _______ _______ _______ _____ _____    ______ ____
ROOT
ATOM      1  C   UNL     1       0.386   8.943  21.446  0.00  0.00    +0.000 A 
ATOM      2  N   UNL     1      -0.408   8.254  22.278  0.00  0.00    +0.000 NA
ATOM      3  N   UNL     1      -1.044   9.211  22.974  0.00  0.00    +0.000 N 
ATOM      4  C   UNL     1      -0.722  10.487  22.597  0.00  0.00    +0.000 A 
ATOM      5  C   UNL     1      -1.173  11.724  23.056  0.00  0.00    +0.000 A 
ATOM      6  C   UNL     1      -0.663  12.869  22.430  0.00  0.00    +0.000 A 
ATOM      7  C   UNL     1       0.264  12.798  21.387  0.00  0.00    +0.000 A 
ATOM      8  C   UNL     1       0.717  11.533  20.971  0.00  0.00    +0.000 A 
ATOM      9  C   UNL     1       0.217  10.355  21.580  0.00  0.00    +0.000 A 
ATOM     10  H   UNL     1      -1.700   8.930  23.693  0.00  0.00    +0.000 HD
ENDROOT
BRANCH   1  17
ATOM     11  C   UNL     1       4.800   3.933  18.103  0.00  0.00    +0.000 C 
ATOM     12  C   UNL     1       4.041   5.203  18.360  0.00  0.00    +0.000 A 
ATOM     13  C   UNL     1       4.052   6.229  17.408  0.00  0.00    +0.000 A 
ATOM     14  C   UNL     1       3.332   7.409  17.614  0.00  0.00    +0.000 A 
ATOM     15  C   UNL     1       2.591   7.563  18.796  0.00  0.00    +0.000 A 
ATOM     16  C   UNL     1       1.760   8.598  19.295  0.00  0.00    +0.000 A 
ATOM     17  C   UNL     1       1.291   8.207  20.526  0.00  0.00    +0.000 A 
ATOM     18  N   UNL     1       1.826   6.972  20.800  0.00  0.00    +0.000 N 
ATOM     19  C   UNL     1       2.603   6.543  19.747  0.00  0.00    +0.000 A 
ATOM     20  C   UNL     1       3.315   5.350  19.555  0.00  0.00    +0.000 A 
ATOM     21  H   UNL     1       1.644   6.461  21.656  0.00  0.00    +0.000 HD
ENDBRANCH   1  17
BRANCH   7  22
ATOM     22  N   UNL     1       0.783  13.939  20.716  0.00  0.00    +0.000 N 
ATOM     23  C   UNL     1       1.888  14.682  21.091  0.00  0.00    +0.000 C 
ATOM     24  O   UNL     1       2.566  14.496  22.101  0.00  0.00    +0.000 OA
ATOM     25  H   UNL     1       0.274  14.245  19.895  0.00  0.00    +0.000 HD
BRANCH  23  26
ATOM     26  C   UNL     1       2.294  15.808  20.147  0.00  0.00    +0.000 C 
ATOM     27  C   UNL     1       1.229  16.195  19.120  0.00  0.00    +0.000 C 
ATOM     28  C   UNL     1       1.742  17.372  18.294  0.00  0.00    +0.000 C 
ATOM     29  O   UNL     1       2.980  17.036  17.664  0.00  0.00    +0.000 OA
ATOM     30  C   UNL     1       4.012  16.748  18.609  0.00  0.00    +0.000 C 
ATOM     31  C   UNL     1       3.631  15.541  19.457  0.00  0.00    +0.000 C 
ENDBRANCH  23  26
ENDBRANCH   7  22
TORSDOF 3
ENDMDL
MODEL 9
REMARK VINA RESULT:      -7.8      5.385     11.213
REMARK  Name = 
REMARK  4 active torsions:
REMARK  status: ('A' for Active; 'I' for Inactive)
REMARK    1  A    between atoms: C_1  and  C_2
REMARK    2  A    between atoms: C_7  and  C_8
REMARK    3  A    between atoms: C_14  and  N_15
REMARK    4  A    between atoms: C_16  and  C_18
REMARK                            x       y       z     vdW  Elec       q    Type
REMARK                         _______ _______ _______ _____ _____    ______ ____
ROOT
ATOM      1  C   UNL     1       1.788  10.597  18.434  0.00  0.00    +0.000 A 
ATOM      2  N   UNL     1       2.719  11.259  17.734  0.00  0.00    +0.000 NA
ATOM      3  N   UNL     1       2.253  12.519  17.700  0.00  0.00    +0.000 N 
ATOM      4  C   UNL     1       1.081  12.703  18.381  0.00  0.00    +0.000 A 
ATOM      5  C   UNL     1       0.307  13.843  18.591  0.00  0.00    +0.000 A 
ATOM      6  C   UNL     1      -0.845  13.705  19.377  0.00  0.00    +0.000 A 
ATOM      7  C   UNL     1      -1.223  12.483  19.937  0.00  0.00    +0.000 A 
ATOM      8  C   UNL     1      -0.433  11.348  19.679  0.00  0.00    +0.000 A 
ATOM      9  C   UNL     1       0.741  11.455  18.892  0.00  0.00    +0.000 A 
ATOM     10  H   UNL     1       2.789  13.218  17.199  0.00  0.00    +0.000 HD
ENDROOT
BRANCH   1  17
ATOM     11  C   UNL     1       1.874   3.655  21.185  0.00  0.00    +0.000 C 
ATOM     12  C   UNL     1       2.053   4.803  20.235  0.00  0.00    +0.000 A 
ATOM     13  C   UNL     1       2.527   4.571  18.939  0.00  0.00    +0.000 A 
ATOM     14  C   UNL     1       2.677   5.620  18.028  0.00  0.00    +0.000 A 
ATOM     15  C   UNL     1       2.348   6.926  18.427  0.00  0.00    +0.000 A 
ATOM     16  C   UNL     1       2.368   8.179  17.763  0.00  0.00    +0.000 A 
ATOM     17  C   UNL     1       1.942   9.135  18.653  0.00  0.00    +0.000 A 
ATOM     18  N   UNL     1       1.682   8.506  19.845  0.00  0.00    +0.000 N 
ATOM     19  C   UNL     1       1.897   7.150  19.726  0.00  0.00    +0.000 A 
ATOM     20  C   UNL     1       1.734   6.108  20.651  0.00  0.00    +0.000 A 
ATOM     21  H   UNL     1       1.361   8.989  20.675  0.00  0.00    +0.000 HD
ENDBRANCH   1  17
BRANCH   7  22
ATOM     22  N   UNL     1      -2.373  12.314  20.757  0.00  0.00    +0.000 N 
ATOM     23  C   UNL     1      -2.529  12.761  22.056  0.00  0.00    +0.000 C 
ATOM     24  O   UNL     1      -1.670  13.334  22.724  0.00  0.00    +0.000 OA
ATOM     25  H   UNL     1      -3.140  11.794  20.349  0.00  0.00    +0.000 HD
BRANCH  23  26
ATOM     26  C   UNL     1      -3.898  12.531  22.687  0.00  0.00    +0.000 C 
ATOM     27  C   UNL     1      -5.023  13.385  22.102  0.00  0.00    +0.000 C 
ATOM     28  C   UNL     1      -6.338  13.003  22.776  0.00  0.00    +0.000 C 
ATOM     29  O   UNL     1      -6.237  13.169  24.192  0.00  0.00    +0.000 OA
ATOM     30  C   UNL     1      -5.245  12.320  24.771  0.00  0.00    +0.000 C 
ATOM     31  C   UNL     1      -3.869  12.657  24.211  0.00  0.00    +0.000 C 
ENDBRANCH  23  26
ENDBRANCH   7  22
TORSDOF 3
ENDMDL
