MODEL 1
REMARK VINA RESULT:      -7.7      0.000      0.000
REMARK  Name = 
REMARK  8 active torsions:
REMARK  status: ('A' for Active; 'I' for Inactive)
REMARK    1  A    between atoms: C_1  and  O_2
REMARK    2  A    between atoms: O_2  and  C_3
REMARK    3  A    between atoms: C_3  and  C_5
REMARK    4  A    between atoms: C_7  and  C_8
REMARK    5  A    between atoms: C_8  and  N_9
REMARK    6  A    between atoms: N_9  and  C_10
REMARK    7  A    between atoms: C_12  and  C_13
REMARK    8  A    between atoms: C_15  and  C_16
REMARK                            x       y       z     vdW  Elec       q    Type
REMARK                         _______ _______ _______ _____ _____    ______ ____
ROOT
ATOM      1  C   UNL     1       4.224   3.239  16.990  0.00  0.00    +0.000 C 
ENDROOT
BRANCH   1   4
ATOM      2  C   UNL     1       6.971   5.867  16.882  0.00  0.00    +0.000 A 
ATOM      3  C   UNL     1       5.950   5.060  17.381  0.00  0.00    +0.000 A 
ATOM      4  C   UNL     1       5.377   4.103  16.537  0.00  0.00    +0.000 A 
ATOM      5  C   UNL     1       5.884   3.973  15.239  0.00  0.00    +0.000 A 
ATOM      6  C   UNL     1       6.903   4.817  14.827  0.00  0.00    +0.000 A 
ATOM      7  N   UNL     1       7.451   5.763  15.614  0.00  0.00    +0.000 NA
BRANCH   2   8
ATOM      8  C   UNL     1       7.560   6.921  17.766  0.00  0.00    +0.000 C 
ATOM      9  O   UNL     1       8.128   6.683  18.822  0.00  0.00    +0.000 OA
BRANCH   8  11
ATOM     10  C   UNL     1       8.135   9.197  17.820  0.00  0.00    +0.000 C 
ATOM     11  O   UNL     1       7.362   8.153  17.230  0.00  0.00    +0.000 OA
ENDBRANCH   8  11
ENDBRANCH   2   8
ENDBRANCH   1   4
BRANCH   1  12
ATOM     12  N   UNL     1       3.020   4.038  17.115  0.00  0.00    +0.000 N 
ATOM     13  H   UNL     1       2.234   3.725  16.548  0.00  0.00    +0.000 HD
BRANCH  12  14
ATOM     14  C   UNL     1       2.532   4.307  18.395  0.00  0.00    +0.000 A 
ATOM     15  N   UNL     1       2.464   5.615  18.712  0.00  0.00    +0.000 NA
ATOM     16  C   UNL     1       2.061   5.939  19.958  0.00  0.00    +0.000 A 
ATOM     17  C   UNL     1       2.025   7.388  20.341  0.00  0.00    +0.000 C 
ATOM     18  N   UNL     1       1.707   5.053  20.908  0.00  0.00    +0.000 NA
ATOM     19  C   UNL     1       1.785   3.749  20.571  0.00  0.00    +0.000 A 
ATOM     20  C   UNL     1       1.404   2.740  21.611  0.00  0.00    +0.000 C 
ATOM     21  C   UNL     1       2.202   3.331  19.325  0.00  0.00    +0.000 A 
ATOM     22  F   UNL     1       2.280   2.019  19.054  0.00  0.00    +0.000 F 
ENDBRANCH  12  14
ENDBRANCH   1  12
TORSDOF 5
ENDMDL
MODEL 2
REMARK VINA RESULT:      -7.5      2.370      5.872
REMARK  Name = 
REMARK  8 active torsions:
REMARK  status: ('A' for Active; 'I' for Inactive)
REMARK    1  A    between atoms: C_1  and  O_2
REMARK    2  A    between atoms: O_2  and  C_3
REMARK    3  A    between atoms: C_3  and  C_5
REMARK    4  A    between atoms: C_7  and  C_8
REMARK    5  A    between atoms: C_8  and  N_9
REMARK    6  A    between atoms: N_9  and  C_10
REMARK    7  A    between atoms: C_12  and  C_13
REMARK    8  A    between atoms: C_15  and  C_16
REMARK                            x       y       z     vdW  Elec       q    Type
REMARK                         _______ _______ _______ _____ _____    ______ ____
ROOT
ATOM      1  C   UNL     1       3.145   3.473  17.244  0.00  0.00    +0.000 C 
ENDROOT
BRANCH   1   4
ATOM      2  C   UNL     1       2.125   6.294  19.582  0.00  0.00    +0.000 A 
ATOM      3  C   UNL     1       2.521   5.636  18.418  0.00  0.00    +0.000 A 
ATOM      4  C   UNL     1       2.658   4.245  18.447  0.00  0.00    +0.000 A 
ATOM      5  C   UNL     1       2.351   3.570  19.635  0.00  0.00    +0.000 A 
ATOM      6  C   UNL     1       1.963   4.305  20.744  0.00  0.00    +0.000 A 
ATOM      7  N   UNL     1       1.850   5.647  20.747  0.00  0.00    +0.000 NA
BRANCH   2   8
ATOM      8  C   UNL     1       2.018   7.786  19.571  0.00  0.00    +0.000 C 
ATOM      9  O   UNL     1       1.584   8.443  20.506  0.00  0.00    +0.000 OA
BRANCH   8  11
ATOM     10  C   UNL     1       1.695   9.375  17.873  0.00  0.00    +0.000 C 
ATOM     11  O   UNL     1       2.456   8.283  18.385  0.00  0.00    +0.000 OA
ENDBRANCH   8  11
ENDBRANCH   2   8
ENDBRANCH   1   4
BRANCH   1  12
ATOM     12  N   UNL     1       4.549   3.142  17.397  0.00  0.00    +0.000 N 
ATOM     13  H   UNL     1       4.827   2.246  17.000  0.00  0.00    +0.000 HD
BRANCH  12  14
ATOM     14  C   UNL     1       5.500   4.086  17.007  0.00  0.00    +0.000 A 
ATOM     15  N   UNL     1       5.811   4.067  15.695  0.00  0.00    +0.000 NA
ATOM     16  C   UNL     1       6.771   4.913  15.266  0.00  0.00    +0.000 A 
ATOM     17  C   UNL     1       7.162   4.871  13.819  0.00  0.00    +0.000 C 
ATOM     18  N   UNL     1       7.435   5.786  16.047  0.00  0.00    +0.000 NA
ATOM     19  C   UNL     1       7.110   5.787  17.356  0.00  0.00    +0.000 A 
ATOM     20  C   UNL     1       7.838   6.743  18.251  0.00  0.00    +0.000 C 
ATOM     21  C   UNL     1       6.153   4.944  17.881  0.00  0.00    +0.000 A 
ATOM     22  F   UNL     1       5.887   4.975  19.196  0.00  0.00    +0.000 F 
ENDBRANCH  12  14
ENDBRANCH   1  12
TORSDOF 5
ENDMDL
MODEL 3
REMARK VINA RESULT:      -7.5      2.496      5.918
REMARK  Name = 
REMARK  8 active torsions:
REMARK  status: ('A' for Active; 'I' for Inactive)
REMARK    1  A    between atoms: C_1  and  O_2
REMARK    2  A    between atoms: O_2  and  C_3
REMARK    3  A    between atoms: C_3  and  C_5
REMARK    4  A    between atoms: C_7  and  C_8
REMARK    5  A    between atoms: C_8  and  N_9
REMARK    6  A    between atoms: N_9  and  C_10
REMARK    7  A    between atoms: C_12  and  C_13
REMARK    8  A    between atoms: C_15  and  C_16
REMARK                            x       y       z     vdW  Elec       q    Type
REMARK                         _______ _______ _______ _____ _____    ______ ____
ROOT
ATOM      1  C   UNL     1       4.186   3.214  18.345  0.00  0.00    +0.000 C 
ENDROOT
BRANCH   1   4
ATOM      2  C   UNL     1       2.263   6.144  19.824  0.00  0.00    +0.000 A 
ATOM      3  C   UNL     1       3.056   5.408  18.944  0.00  0.00    +0.000 A 
ATOM      4  C   UNL     1       3.285   4.056  19.218  0.00  0.00    +0.000 A 
ATOM      5  C   UNL     1       2.673   3.492  20.344  0.00  0.00    +0.000 A 
ATOM      6  C   UNL     1       1.899   4.298  21.162  0.00  0.00    +0.000 A 
ATOM      7  N   UNL     1       1.686   5.608  20.933  0.00  0.00    +0.000 NA
BRANCH   2   8
ATOM      8  C   UNL     1       2.048   7.601  19.560  0.00  0.00    +0.000 C 
ATOM      9  O   UNL     1       1.616   8.385  20.392  0.00  0.00    +0.000 OA
BRANCH   8  11
ATOM     10  C   UNL     1       2.051   9.228  17.868  0.00  0.00    +0.000 C 
ATOM     11  O   UNL     1       2.388   7.905  18.281  0.00  0.00    +0.000 OA
ENDBRANCH   8  11
ENDBRANCH   2   8
ENDBRANCH   1   4
BRANCH   1  12
ATOM     12  N   UNL     1       5.575   3.556  18.585  0.00  0.00    +0.000 N 
ATOM     13  H   UNL     1       6.190   2.764  18.765  0.00  0.00    +0.000 HD
BRANCH  12  14
ATOM     14  C   UNL     1       6.222   4.386  17.668  0.00  0.00    +0.000 A 
ATOM     15  N   UNL     1       6.715   5.528  18.188  0.00  0.00    +0.000 NA
ATOM     16  C   UNL     1       7.296   6.404  17.341  0.00  0.00    +0.000 A 
ATOM     17  C   UNL     1       7.808   7.699  17.897  0.00  0.00    +0.000 C 
ATOM     18  N   UNL     1       7.433   6.218  16.015  0.00  0.00    +0.000 NA
ATOM     19  C   UNL     1       6.930   5.071  15.515  0.00  0.00    +0.000 A 
ATOM     20  C   UNL     1       7.061   4.841  14.040  0.00  0.00    +0.000 C 
ATOM     21  C   UNL     1       6.307   4.130  16.307  0.00  0.00    +0.000 A 
ATOM     22  F   UNL     1       5.807   3.016  15.750  0.00  0.00    +0.000 F 
ENDBRANCH  12  14
ENDBRANCH   1  12
TORSDOF 5
ENDMDL
MODEL 4
REMARK VINA RESULT:      -7.3      2.669      6.191
REMARK  Name = 
REMARK  8 active torsions:
REMARK  status: ('A' for Active; 'I' for Inactive)
REMARK    1  A    between atoms: C_1  and  O_2
REMARK    2  A    between atoms: O_2  and  C_3
REMARK    3  A    between atoms: C_3  and  C_5
REMARK    4  A    between atoms: C_7  and  C_8
REMARK    5  A    between atoms: C_8  and  N_9
REMARK    6  A    between atoms: N_9  and  C_10
REMARK    7  A    between atoms: C_12  and  C_13
REMARK    8  A    between atoms: C_15  and  C_16
REMARK                            x       y       z     vdW  Elec       q    Type
REMARK                         _______ _______ _______ _____ _____    ______ ____
ROOT
ATOM      1  C   UNL     1       4.410   2.910  18.648  0.00  0.00    +0.000 C 
ENDROOT
BRANCH   1   4
ATOM      2  C   UNL     1       2.124   5.661  19.939  0.00  0.00    +0.000 A 
ATOM      3  C   UNL     1       3.167   5.039  19.254  0.00  0.00    +0.000 A 
ATOM      4  C   UNL     1       3.270   3.645  19.310  0.00  0.00    +0.000 A 
ATOM      5  C   UNL     1       2.295   2.934  20.021  0.00  0.00    +0.000 A 
ATOM      6  C   UNL     1       1.292   3.635  20.671  0.00  0.00    +0.000 A 
ATOM      7  N   UNL     1       1.188   4.978  20.652  0.00  0.00    +0.000 NA
BRANCH   2   8
ATOM      8  C   UNL     1       2.032   7.155  19.917  0.00  0.00    +0.000 C 
ATOM      9  O   UNL     1       2.394   7.844  18.975  0.00  0.00    +0.000 OA
BRANCH   8  11
ATOM     10  C   UNL     1       1.017   8.952  21.036  0.00  0.00    +0.000 C 
ATOM     11  O   UNL     1       1.505   7.613  21.083  0.00  0.00    +0.000 OA
ENDBRANCH   8  11
ENDBRANCH   2   8
ENDBRANCH   1   4
BRANCH   1  12
ATOM     12  N   UNL     1       5.671   3.548  18.970  0.00  0.00    +0.000 N 
ATOM     13  H   UNL     1       6.429   2.911  19.210  0.00  0.00    +0.000 HD
BRANCH  12  14
ATOM     14  C   UNL     1       6.185   4.490  18.078  0.00  0.00    +0.000 A 
ATOM     15  N   UNL     1       6.111   4.140  16.778  0.00  0.00    +0.000 NA
ATOM     16  C   UNL     1       6.649   4.981  15.870  0.00  0.00    +0.000 A 
ATOM     17  C   UNL     1       6.616   4.582  14.425  0.00  0.00    +0.000 C 
ATOM     18  N   UNL     1       7.243   6.153  16.162  0.00  0.00    +0.000 NA
ATOM     19  C   UNL     1       7.309   6.483  17.467  0.00  0.00    +0.000 A 
ATOM     20  C   UNL     1       7.972   7.779  17.823  0.00  0.00    +0.000 C 
ATOM     21  C   UNL     1       6.799   5.674  18.462  0.00  0.00    +0.000 A 
ATOM     22  F   UNL     1       6.913   6.046  19.746  0.00  0.00    +0.000 F 
ENDBRANCH  12  14
ENDBRANCH   1  12
TORSDOF 5
ENDMDL
MODEL 5
REMARK VINA RESULT:      -7.2      2.507      6.068
REMARK  Name = 
REMARK  8 active torsions:
REMARK  status: ('A' for Active; 'I' for Inactive)
REMARK    1  A    between atoms: C_1  and  O_2
REMARK    2  A    between atoms: O_2  and  C_3
REMARK    3  A    between atoms: C_3  and  C_5
REMARK    4  A    between atoms: C_7  and  C_8
REMARK    5  A    between atoms: C_8  and  N_9
REMARK    6  A    between atoms: N_9  and  C_10
REMARK    7  A    between atoms: C_12  and  C_13
REMARK    8  A    between atoms: C_15  and  C_16
REMARK                            x       y       z     vdW  Elec       q    Type
REMARK                         _______ _______ _______ _____ _____    ______ ____
ROOT
ATOM      1  C   UNL     1       4.424   3.189  18.722  0.00  0.00    +0.000 C 
ENDROOT
BRANCH   1   4
ATOM      2  C   UNL     1       2.185   6.009  19.945  0.00  0.00    +0.000 A 
ATOM      3  C   UNL     1       3.195   5.347  19.248  0.00  0.00    +0.000 A 
ATOM      4  C   UNL     1       3.314   3.961  19.394  0.00  0.00    +0.000 A 
ATOM      5  C   UNL     1       2.386   3.295  20.203  0.00  0.00    +0.000 A 
ATOM      6  C   UNL     1       1.413   4.033  20.857  0.00  0.00    +0.000 A 
ATOM      7  N   UNL     1       1.295   5.371  20.753  0.00  0.00    +0.000 NA
BRANCH   2   8
ATOM      8  C   UNL     1       2.077   7.497  19.827  0.00  0.00    +0.000 C 
ATOM      9  O   UNL     1       2.270   8.111  18.788  0.00  0.00    +0.000 OA
BRANCH   8  11
ATOM     10  C   UNL     1       0.561   8.832  21.023  0.00  0.00    +0.000 C 
ATOM     11  O   UNL     1       1.750   8.044  21.026  0.00  0.00    +0.000 OA
ENDBRANCH   8  11
ENDBRANCH   2   8
ENDBRANCH   1   4
BRANCH   1  12
ATOM     12  N   UNL     1       5.702   3.822  18.981  0.00  0.00    +0.000 N 
ATOM     13  H   UNL     1       6.425   3.204  19.346  0.00  0.00    +0.000 HD
BRANCH  12  14
ATOM     14  C   UNL     1       6.281   4.588  17.967  0.00  0.00    +0.000 A 
ATOM     15  N   UNL     1       6.823   5.753  18.376  0.00  0.00    +0.000 NA
ATOM     16  C   UNL     1       7.342   6.568  17.434  0.00  0.00    +0.000 A 
ATOM     17  C   UNL     1       7.906   7.888  17.868  0.00  0.00    +0.000 C 
ATOM     18  N   UNL     1       7.372   6.301  16.115  0.00  0.00    +0.000 NA
ATOM     19  C   UNL     1       6.822   5.132  15.727  0.00  0.00    +0.000 A 
ATOM     20  C   UNL     1       6.834   4.812  14.264  0.00  0.00    +0.000 C 
ATOM     21  C   UNL     1       6.256   4.248  16.622  0.00  0.00    +0.000 A 
ATOM     22  F   UNL     1       5.705   3.109  16.175  0.00  0.00    +0.000 F 
ENDBRANCH  12  14
ENDBRANCH   1  12
TORSDOF 5
ENDMDL
MODEL 6
REMARK VINA RESULT:      -7.2      2.349      3.538
REMARK  Name = 
REMARK  8 active torsions:
REMARK  status: ('A' for Active; 'I' for Inactive)
REMARK    1  A    between atoms: C_1  and  O_2
REMARK    2  A    between atoms: O_2  and  C_3
REMARK    3  A    between atoms: C_3  and  C_5
REMARK    4  A    between atoms: C_7  and  C_8
REMARK    5  A    between atoms: C_8  and  N_9
REMARK    6  A    between atoms: N_9  and  C_10
REMARK    7  A    between atoms: C_12  and  C_13
REMARK    8  A    between atoms: C_15  and  C_16
REMARK                            x       y       z     vdW  Elec       q    Type
REMARK                         _______ _______ _______ _____ _____    ______ ____
ROOT
ATOM      1  C   UNL     1       4.037   6.785  17.912  0.00  0.00    +0.000 C 
ENDROOT
BRANCH   1   4
ATOM      2  C   UNL     1       6.807   5.197  15.845  0.00  0.00    +0.000 A 
ATOM      3  C   UNL     1       5.627   5.873  16.155  0.00  0.00    +0.000 A 
ATOM      4  C   UNL     1       5.327   6.117  17.499  0.00  0.00    +0.000 A 
ATOM      5  C   UNL     1       6.247   5.707  18.471  0.00  0.00    +0.000 A 
ATOM      6  C   UNL     1       7.395   5.043  18.072  0.00  0.00    +0.000 A 
ATOM      7  N   UNL     1       7.692   4.774  16.786  0.00  0.00    +0.000 NA
BRANCH   2   8
ATOM      8  C   UNL     1       7.114   4.895  14.412  0.00  0.00    +0.000 C 
ATOM      9  O   UNL     1       7.918   5.527  13.742  0.00  0.00    +0.000 OA
BRANCH   8  11
ATOM     10  C   UNL     1       6.377   3.642  12.569  0.00  0.00    +0.000 C 
ATOM     11  O   UNL     1       6.372   3.843  13.981  0.00  0.00    +0.000 OA
ENDBRANCH   8  11
ENDBRANCH   2   8
ENDBRANCH   1   4
BRANCH   1  12
ATOM     12  N   UNL     1       2.918   5.886  17.699  0.00  0.00    +0.000 N 
ATOM     13  H   UNL     1       2.700   5.691  16.724  0.00  0.00    +0.000 HD
BRANCH  12  14
ATOM     14  C   UNL     1       2.907   4.668  18.382  0.00  0.00    +0.000 A 
ATOM     15  N   UNL     1       2.481   4.739  19.659  0.00  0.00    +0.000 NA
ATOM     16  C   UNL     1       2.507   3.606  20.392  0.00  0.00    +0.000 A 
ATOM     17  C   UNL     1       2.081   3.679  21.829  0.00  0.00    +0.000 C 
ATOM     18  N   UNL     1       2.913   2.405  19.941  0.00  0.00    +0.000 NA
ATOM     19  C   UNL     1       3.338   2.357  18.662  0.00  0.00    +0.000 A 
ATOM     20  C   UNL     1       3.803   1.034  18.135  0.00  0.00    +0.000 C 
ATOM     21  C   UNL     1       3.360   3.470  17.848  0.00  0.00    +0.000 A 
ATOM     22  F   UNL     1       3.812   3.366  16.589  0.00  0.00    +0.000 F 
ENDBRANCH  12  14
ENDBRANCH   1  12
TORSDOF 5
ENDMDL
MODEL 7
REMARK VINA RESULT:      -7.2      2.447      3.711
REMARK  Name = 
REMARK  8 active torsions:
REMARK  status: ('A' for Active; 'I' for Inactive)
REMARK    1  A    between atoms: C_1  and  O_2
REMARK    2  A    between atoms: O_2  and  C_3
REMARK    3  A    between atoms: C_3  and  C_5
REMARK    4  A    between atoms: C_7  and  C_8
REMARK    5  A    between atoms: C_8  and  N_9
REMARK    6  A    between atoms: N_9  and  C_10
REMARK    7  A    between atoms: C_12  and  C_13
REMARK    8  A    between atoms: C_15  and  C_16
REMARK                            x       y       z     vdW  Elec       q    Type
REMARK                         _______ _______ _______ _____ _____    ______ ____
ROOT
ATOM      1  C   UNL     1       3.977   6.750  17.858  0.00  0.00    +0.000 C 
ENDROOT
BRANCH   1   4
ATOM      2  C   UNL     1       6.706   5.166  15.734  0.00  0.00    +0.000 A 
ATOM      3  C   UNL     1       5.532   5.841  16.068  0.00  0.00    +0.000 A 
ATOM      4  C   UNL     1       5.259   6.084  17.418  0.00  0.00    +0.000 A 
ATOM      5  C   UNL     1       6.199   5.673  18.372  0.00  0.00    +0.000 A 
ATOM      6  C   UNL     1       7.339   5.010  17.949  0.00  0.00    +0.000 A 
ATOM      7  N   UNL     1       7.610   4.742  16.657  0.00  0.00    +0.000 NA
BRANCH   2   8
ATOM      8  C   UNL     1       6.984   4.866  14.295  0.00  0.00    +0.000 C 
ATOM      9  O   UNL     1       7.837   5.440  13.634  0.00  0.00    +0.000 OA
BRANCH   8  11
ATOM     10  C   UNL     1       6.373   3.488  12.495  0.00  0.00    +0.000 C 
ATOM     11  O   UNL     1       6.155   3.888  13.847  0.00  0.00    +0.000 OA
ENDBRANCH   8  11
ENDBRANCH   2   8
ENDBRANCH   1   4
BRANCH   1  12
ATOM     12  N   UNL     1       2.870   5.818  17.762  0.00  0.00    +0.000 N 
ATOM     13  H   UNL     1       2.638   5.519  16.816  0.00  0.00    +0.000 HD
BRANCH  12  14
ATOM     14  C   UNL     1       2.891   4.678  18.567  0.00  0.00    +0.000 A 
ATOM     15  N   UNL     1       3.361   3.567  17.965  0.00  0.00    +0.000 NA
ATOM     16  C   UNL     1       3.347   2.417  18.671  0.00  0.00    +0.000 A 
ATOM     17  C   UNL     1       3.823   1.164  17.998  0.00  0.00    +0.000 C 
ATOM     18  N   UNL     1       2.912   2.297  19.939  0.00  0.00    +0.000 NA
ATOM     19  C   UNL     1       2.444   3.419  20.522  0.00  0.00    +0.000 A 
ATOM     20  C   UNL     1       1.945   3.313  21.930  0.00  0.00    +0.000 C 
ATOM     21  C   UNL     1       2.406   4.632  19.867  0.00  0.00    +0.000 A 
ATOM     22  F   UNL     1       1.910   5.711  20.491  0.00  0.00    +0.000 F 
ENDBRANCH  12  14
ENDBRANCH   1  12
TORSDOF 5
ENDMDL
MODEL 8
REMARK VINA RESULT:      -7.2      2.820      4.156
REMARK  Name = 
REMARK  8 active torsions:
REMARK  status: ('A' for Active; 'I' for Inactive)
REMARK    1  A    between atoms: C_1  and  O_2
REMARK    2  A    between atoms: O_2  and  C_3
REMARK    3  A    between atoms: C_3  and  C_5
REMARK    4  A    between atoms: C_7  and  C_8
REMARK    5  A    between atoms: C_8  and  N_9
REMARK    6  A    between atoms: N_9  and  C_10
REMARK    7  A    between atoms: C_12  and  C_13
REMARK    8  A    between atoms: C_15  and  C_16
REMARK                            x       y       z     vdW  Elec       q    Type
REMARK                         _______ _______ _______ _____ _____    ______ ____
ROOT
ATOM      1  C   UNL     1       4.520   3.302  17.116  0.00  0.00    +0.000 C 
ENDROOT
BRANCH   1   4
ATOM      2  C   UNL     1       6.512   4.281  14.027  0.00  0.00    +0.000 A 
ATOM      3  C   UNL     1       5.547   3.663  14.822  0.00  0.00    +0.000 A 
ATOM      4  C   UNL     1       5.495   3.981  16.183  0.00  0.00    +0.000 A 
ATOM      5  C   UNL     1       6.389   4.938  16.678  0.00  0.00    +0.000 A 
ATOM      6  C   UNL     1       7.314   5.503  15.814  0.00  0.00    +0.000 A 
ATOM      7  N   UNL     1       7.400   5.192  14.507  0.00  0.00    +0.000 NA
BRANCH   2   8
ATOM      8  C   UNL     1       6.601   3.914  12.579  0.00  0.00    +0.000 C 
ATOM      9  O   UNL     1       7.351   4.463  11.785  0.00  0.00    +0.000 OA
BRANCH   8  11
ATOM     10  C   UNL     1       4.597   3.299  11.521  0.00  0.00    +0.000 C 
ATOM     11  O   UNL     1       5.733   2.910  12.291  0.00  0.00    +0.000 OA
ENDBRANCH   8  11
ENDBRANCH   2   8
ENDBRANCH   1   4
BRANCH   1  12
ATOM     12  N   UNL     1       4.845   3.618  18.494  0.00  0.00    +0.000 N 
ATOM     13  H   UNL     1       5.685   4.180  18.622  0.00  0.00    +0.000 HD
BRANCH  12  14
ATOM     14  C   UNL     1       3.847   4.168  19.301  0.00  0.00    +0.000 A 
ATOM     15  N   UNL     1       3.202   3.282  20.086  0.00  0.00    +0.000 NA
ATOM     16  C   UNL     1       2.183   3.741  20.843  0.00  0.00    +0.000 A 
ATOM     17  C   UNL     1       1.425   2.759  21.686  0.00  0.00    +0.000 C 
ATOM     18  N   UNL     1       1.770   5.022  20.886  0.00  0.00    +0.000 NA
ATOM     19  C   UNL     1       2.427   5.890  20.092  0.00  0.00    +0.000 A 
ATOM     20  C   UNL     1       1.984   7.321  20.113  0.00  0.00    +0.000 C 
ATOM     21  C   UNL     1       3.469   5.503  19.274  0.00  0.00    +0.000 A 
ATOM     22  F   UNL     1       4.072   6.409  18.490  0.00  0.00    +0.000 F 
ENDBRANCH  12  14
ENDBRANCH   1  12
TORSDOF 5
ENDMDL
MODEL 9
REMARK VINA RESULT:      -7.1      2.663      6.045
REMARK  Name = 
REMARK  8 active torsions:
REMARK  status: ('A' for Active; 'I' for Inactive)
REMARK    1  A    between atoms: C_1  and  O_2
REMARK    2  A    between atoms: O_2  and  C_3
REMARK    3  A    between atoms: C_3  and  C_5
REMARK    4  A    between atoms: C_7  and  C_8
REMARK    5  A    between atoms: C_8  and  N_9
REMARK    6  A    between atoms: N_9  and  C_10
REMARK    7  A    between atoms: C_12  and  C_13
REMARK    8  A    between atoms: C_15  and  C_16
REMARK                            x       y       z     vdW  Elec       q    Type
REMARK                         _______ _______ _______ _____ _____    ______ ____
ROOT
ATOM      1  C   UNL     1       4.423   2.994  18.653  0.00  0.00    +0.000 C 
ENDROOT
BRANCH   1   4
ATOM      2  C   UNL     1       2.207   5.826  19.888  0.00  0.00    +0.000 A 
ATOM      3  C   UNL     1       3.153   5.140  19.128  0.00  0.00    +0.000 A 
ATOM      4  C   UNL     1       3.369   3.784  19.391  0.00  0.00    +0.000 A 
ATOM      5  C   UNL     1       2.595   3.166  20.381  0.00  0.00    +0.000 A 
ATOM      6  C   UNL     1       1.676   3.925  21.086  0.00  0.00    +0.000 A 
ATOM      7  N   UNL     1       1.469   5.238  20.868  0.00  0.00    +0.000 NA
BRANCH   2   8
ATOM      8  C   UNL     1       1.999   7.287  19.641  0.00  0.00    +0.000 C 
ATOM      9  O   UNL     1       1.901   8.120  20.530  0.00  0.00    +0.000 OA
BRANCH   8  11
ATOM     10  C   UNL     1       2.781   8.583  17.846  0.00  0.00    +0.000 C 
ATOM     11  O   UNL     1       1.930   7.536  18.307  0.00  0.00    +0.000 OA
ENDBRANCH   8  11
ENDBRANCH   2   8
ENDBRANCH   1   4
BRANCH   1  12
ATOM     12  N   UNL     1       5.740   3.535  18.930  0.00  0.00    +0.000 N 
ATOM     13  H   UNL     1       6.469   2.841  19.086  0.00  0.00    +0.000 HD
BRANCH  12  14
ATOM     14  C   UNL     1       6.258   4.498  18.062  0.00  0.00    +0.000 A 
ATOM     15  N   UNL     1       6.229   4.158  16.757  0.00  0.00    +0.000 NA
ATOM     16  C   UNL     1       6.774   5.019  15.872  0.00  0.00    +0.000 A 
ATOM     17  C   UNL     1       6.792   4.633  14.423  0.00  0.00    +0.000 C 
ATOM     18  N   UNL     1       7.333   6.201  16.191  0.00  0.00    +0.000 NA
ATOM     19  C   UNL     1       7.354   6.521  17.501  0.00  0.00    +0.000 A 
ATOM     20  C   UNL     1       7.977   7.827  17.887  0.00  0.00    +0.000 C 
ATOM     21  C   UNL     1       6.834   5.691  18.473  0.00  0.00    +0.000 A 
ATOM     22  F   UNL     1       6.902   6.053  19.764  0.00  0.00    +0.000 F 
ENDBRANCH  12  14
ENDBRANCH   1  12
TORSDOF 5
ENDMDL
