MODEL 1
REMARK VINA RESULT:      -6.6      0.000      0.000
REMARK  Name = 
REMARK  6 active torsions:
REMARK  status: ('A' for Active; 'I' for Inactive)
REMARK    1  A    between atoms: N_1  and  C_2
REMARK    2  A    between atoms: C_3  and  S_4
REMARK    3  A    between atoms: S_4  and  N_5
REMARK    4  A    between atoms: C_9  and  S_10
REMARK    5  A    between atoms: S_10  and  N_11
REMARK    6  A    between atoms: C_14  and  N_15
REMARK                            x       y       z     vdW  Elec       q    Type
REMARK                         _______ _______ _______ _____ _____    ______ ____
ROOT
ATOM      1  C   UNL     1       3.042   4.950  18.716  0.00  0.00    +0.000 A 
ATOM      2  C   UNL     1       3.888   3.841  18.614  0.00  0.00    +0.000 A 
ATOM      3  C   UNL     1       5.074   3.905  17.877  0.00  0.00    +0.000 A 
ATOM      4  C   UNL     1       5.436   5.073  17.199  0.00  0.00    +0.000 A 
ATOM      5  C   UNL     1       4.612   6.201  17.217  0.00  0.00    +0.000 A 
ATOM      6  C   UNL     1       3.425   6.116  17.996  0.00  0.00    +0.000 A 
ATOM      7 CL   UNL     1       2.384   7.519  18.078  0.00  0.00    +0.000 Cl
ENDROOT
BRANCH   1   8
ATOM      8  N   UNL     1       1.764   4.872  19.299  0.00  0.00    +0.000 N 
ATOM      9  H   UNL     1       1.074   4.321  18.778  0.00  0.00    +0.000 HD
ATOM     10  H   UNL     1       1.776   4.650  20.292  0.00  0.00    +0.000 HD
ENDBRANCH   1   8
BRANCH   2  11
ATOM     11  S   UNL     1       3.603   2.315  19.455  0.00  0.00    +0.000 S 
ATOM     12  O   UNL     1       2.784   2.533  20.625  0.00  0.00    +0.000 OA
ATOM     13  O   UNL     1       3.331   1.293  18.477  0.00  0.00    +0.000 OA
BRANCH  11  14
ATOM     14  N   UNL     1       5.143   1.995  20.052  0.00  0.00    +0.000 NA
ATOM     15  H   UNL     1       5.848   2.502  19.517  0.00  0.00    +0.000 HD
ATOM     16  H   UNL     1       5.186   2.149  21.060  0.00  0.00    +0.000 HD
ENDBRANCH  11  14
ENDBRANCH   2  11
BRANCH   4  17
ATOM     17  S   UNL     1       6.936   4.976  16.272  0.00  0.00    +0.000 S 
ATOM     18  O   UNL     1       6.772   4.093  15.140  0.00  0.00    +0.000 OA
ATOM     19  O   UNL     1       7.499   6.302  16.167  0.00  0.00    +0.000 OA
BRANCH  17  20
ATOM     20  N   UNL     1       7.918   4.135  17.349  0.00  0.00    +0.000 NA
ATOM     21  H   UNL     1       8.425   4.786  17.948  0.00  0.00    +0.000 HD
ATOM     22  H   UNL     1       7.383   3.427  17.853  0.00  0.00    +0.000 HD
ENDBRANCH  17  20
ENDBRANCH   4  17
BRANCH   5  23
ATOM     23  N   UNL     1       5.022   7.441  16.693  0.00  0.00    +0.000 N 
ATOM     24  H   UNL     1       5.849   7.412  16.090  0.00  0.00    +0.000 HD
ATOM     25  H   UNL     1       4.263   7.991  16.292  0.00  0.00    +0.000 HD
ENDBRANCH   5  23
TORSDOF 6
ENDMDL
MODEL 2
REMARK VINA RESULT:      -6.6      0.045      4.606
REMARK  Name = 
REMARK  6 active torsions:
REMARK  status: ('A' for Active; 'I' for Inactive)
REMARK    1  A    between atoms: N_1  and  C_2
REMARK    2  A    between atoms: C_3  and  S_4
REMARK    3  A    between atoms: S_4  and  N_5
REMARK    4  A    between atoms: C_9  and  S_10
REMARK    5  A    between atoms: S_10  and  N_11
REMARK    6  A    between atoms: C_14  and  N_15
REMARK                            x       y       z     vdW  Elec       q    Type
REMARK                         _______ _______ _______ _____ _____    ______ ____
ROOT
ATOM      1  C   UNL     1       4.605   6.229  17.190  0.00  0.00    +0.000 A 
ATOM      2  C   UNL     1       5.431   5.101  17.166  0.00  0.00    +0.000 A 
ATOM      3  C   UNL     1       5.073   3.931  17.840  0.00  0.00    +0.000 A 
ATOM      4  C   UNL     1       3.889   3.863  18.581  0.00  0.00    +0.000 A 
ATOM      5  C   UNL     1       3.042   4.969  18.689  0.00  0.00    +0.000 A 
ATOM      6  C   UNL     1       3.418   6.137  17.970  0.00  0.00    +0.000 A 
ATOM      7 CL   UNL     1       2.367   7.533  18.047  0.00  0.00    +0.000 Cl
ENDROOT
BRANCH   1   8
ATOM      8  N   UNL     1       5.011   7.473  16.672  0.00  0.00    +0.000 N 
ATOM      9  H   UNL     1       5.880   7.462  16.128  0.00  0.00    +0.000 HD
ATOM     10  H   UNL     1       4.265   7.992  16.213  0.00  0.00    +0.000 HD
ENDBRANCH   1   8
BRANCH   2  11
ATOM     11  S   UNL     1       6.927   5.007  16.233  0.00  0.00    +0.000 S 
ATOM     12  O   UNL     1       6.754   4.134  15.094  0.00  0.00    +0.000 OA
ATOM     13  O   UNL     1       7.497   6.326  16.139  0.00  0.00    +0.000 OA
BRANCH  11  14
ATOM     14  N   UNL     1       7.906   4.147  17.298  0.00  0.00    +0.000 NA
ATOM     15  H   UNL     1       8.849   4.535  17.310  0.00  0.00    +0.000 HD
ATOM     16  H   UNL     1       7.470   4.070  18.217  0.00  0.00    +0.000 HD
ENDBRANCH  11  14
ENDBRANCH   2  11
BRANCH   4  17
ATOM     17  S   UNL     1       3.605   2.333  19.417  0.00  0.00    +0.000 S 
ATOM     18  O   UNL     1       2.754   2.539  20.567  0.00  0.00    +0.000 OA
ATOM     19  O   UNL     1       3.368   1.306  18.430  0.00  0.00    +0.000 OA
BRANCH  17  20
ATOM     20  N   UNL     1       5.135   2.031  20.049  0.00  0.00    +0.000 NA
ATOM     21  H   UNL     1       5.325   2.656  20.831  0.00  0.00    +0.000 HD
ATOM     22  H   UNL     1       5.252   1.041  20.262  0.00  0.00    +0.000 HD
ENDBRANCH  17  20
ENDBRANCH   4  17
BRANCH   5  23
ATOM     23  N   UNL     1       1.767   4.887  19.279  0.00  0.00    +0.000 N 
ATOM     24  H   UNL     1       1.417   5.755  19.694  0.00  0.00    +0.000 HD
ATOM     25  H   UNL     1       1.072   4.423  18.696  0.00  0.00    +0.000 HD
ENDBRANCH   5  23
TORSDOF 6
ENDMDL
MODEL 3
REMARK VINA RESULT:      -6.5      1.392      1.600
REMARK  Name = 
REMARK  6 active torsions:
REMARK  status: ('A' for Active; 'I' for Inactive)
REMARK    1  A    between atoms: N_1  and  C_2
REMARK    2  A    between atoms: C_3  and  S_4
REMARK    3  A    between atoms: S_4  and  N_5
REMARK    4  A    between atoms: C_9  and  S_10
REMARK    5  A    between atoms: S_10  and  N_11
REMARK    6  A    between atoms: C_14  and  N_15
REMARK                            x       y       z     vdW  Elec       q    Type
REMARK                         _______ _______ _______ _____ _____    ______ ____
ROOT
ATOM      1  C   UNL     1       3.022   4.855  18.905  0.00  0.00    +0.000 A 
ATOM      2  C   UNL     1       4.034   3.913  19.115  0.00  0.00    +0.000 A 
ATOM      3  C   UNL     1       5.341   4.151  18.682  0.00  0.00    +0.000 A 
ATOM      4  C   UNL     1       5.669   5.328  18.002  0.00  0.00    +0.000 A 
ATOM      5  C   UNL     1       4.696   6.289  17.714  0.00  0.00    +0.000 A 
ATOM      6  C   UNL     1       3.381   6.032  18.191  0.00  0.00    +0.000 A 
ATOM      7 CL   UNL     1       2.140   7.227  17.886  0.00  0.00    +0.000 Cl
ENDROOT
BRANCH   1   8
ATOM      8  N   UNL     1       1.668   4.579  19.169  0.00  0.00    +0.000 N 
ATOM      9  H   UNL     1       1.483   3.692  19.648  0.00  0.00    +0.000 HD
ATOM     10  H   UNL     1       1.159   5.361  19.577  0.00  0.00    +0.000 HD
ENDBRANCH   1   8
BRANCH   2  11
ATOM     11  S   UNL     1       3.796   2.407  20.004  0.00  0.00    +0.000 S 
ATOM     12  O   UNL     1       5.062   1.739  20.207  0.00  0.00    +0.000 OA
ATOM     13  O   UNL     1       2.846   2.640  21.061  0.00  0.00    +0.000 OA
BRANCH  11  14
ATOM     14  N   UNL     1       2.995   1.484  18.848  0.00  0.00    +0.000 NA
ATOM     15  H   UNL     1       2.968   1.973  17.954  0.00  0.00    +0.000 HD
ATOM     16  H   UNL     1       3.379   0.539  18.801  0.00  0.00    +0.000 HD
ENDBRANCH  11  14
ENDBRANCH   2  11
BRANCH   4  17
ATOM     17  S   UNL     1       7.350   5.456  17.476  0.00  0.00    +0.000 S 
ATOM     18  O   UNL     1       8.103   4.302  17.914  0.00  0.00    +0.000 OA
ATOM     19  O   UNL     1       7.372   5.946  16.118  0.00  0.00    +0.000 OA
BRANCH  17  20
ATOM     20  N   UNL     1       7.887   6.726  18.440  0.00  0.00    +0.000 NA
ATOM     21  H   UNL     1       7.243   6.877  19.216  0.00  0.00    +0.000 HD
ATOM     22  H   UNL     1       8.858   6.587  18.719  0.00  0.00    +0.000 HD
ENDBRANCH  17  20
ENDBRANCH   4  17
BRANCH   5  23
ATOM     23  N   UNL     1       5.019   7.553  17.188  0.00  0.00    +0.000 N 
ATOM     24  H   UNL     1       5.205   8.285  17.881  0.00  0.00    +0.000 HD
ATOM     25  H   UNL     1       5.720   7.526  16.450  0.00  0.00    +0.000 HD
ENDBRANCH   5  23
TORSDOF 6
ENDMDL
MODEL 4
REMARK VINA RESULT:      -6.5      1.393      4.692
REMARK  Name = 
REMARK  6 active torsions:
REMARK  status: ('A' for Active; 'I' for Inactive)
REMARK    1  A    between atoms: N_1  and  C_2
REMARK    2  A    between atoms: C_3  and  S_4
REMARK    3  A    between atoms: S_4  and  N_5
REMARK    4  A    between atoms: C_9  and  S_10
REMARK    5  A    between atoms: S_10  and  N_11
REMARK    6  A    between atoms: C_14  and  N_15
REMARK                            x       y       z     vdW  Elec       q    Type
REMARK                         _______ _______ _______ _____ _____    ______ ____
ROOT
ATOM      1  C   UNL     1       4.716   6.249  17.728  0.00  0.00    +0.000 A 
ATOM      2  C   UNL     1       5.676   5.279  18.027  0.00  0.00    +0.000 A 
ATOM      3  C   UNL     1       5.331   4.110  18.712  0.00  0.00    +0.000 A 
ATOM      4  C   UNL     1       4.018   3.891  19.140  0.00  0.00    +0.000 A 
ATOM      5  C   UNL     1       3.019   4.843  18.919  0.00  0.00    +0.000 A 
ATOM      6  C   UNL     1       3.394   6.009  18.197  0.00  0.00    +0.000 A 
ATOM      7 CL   UNL     1       2.166   7.209  17.864  0.00  0.00    +0.000 Cl
ENDROOT
BRANCH   1   8
ATOM      8  N   UNL     1       5.055   7.509  17.199  0.00  0.00    +0.000 N 
ATOM      9  H   UNL     1       4.351   8.244  17.322  0.00  0.00    +0.000 HD
ATOM     10  H   UNL     1       5.995   7.818  17.442  0.00  0.00    +0.000 HD
ENDBRANCH   1   8
BRANCH   2  11
ATOM     11  S   UNL     1       7.360   5.379  17.508  0.00  0.00    +0.000 S 
ATOM     12  O   UNL     1       8.080   4.191  17.907  0.00  0.00    +0.000 OA
ATOM     13  O   UNL     1       7.401   5.917  16.173  0.00  0.00    +0.000 OA
BRANCH  11  14
ATOM     14  N   UNL     1       7.929   6.596  18.521  0.00  0.00    +0.000 NA
ATOM     15  H   UNL     1       8.718   6.262  19.075  0.00  0.00    +0.000 HD
ATOM     16  H   UNL     1       8.112   7.453  17.999  0.00  0.00    +0.000 HD
ENDBRANCH  11  14
ENDBRANCH   2  11
BRANCH   4  17
ATOM     17  S   UNL     1       3.754   2.392  20.036  0.00  0.00    +0.000 S 
ATOM     18  O   UNL     1       5.008   1.704  20.245  0.00  0.00    +0.000 OA
ATOM     19  O   UNL     1       2.805   2.648  21.094  0.00  0.00    +0.000 OA
BRANCH  17  20
ATOM     20  N   UNL     1       2.935   1.477  18.885  0.00  0.00    +0.000 NA
ATOM     21  H   UNL     1       3.591   1.098  18.203  0.00  0.00    +0.000 HD
ATOM     22  H   UNL     1       2.339   0.780  19.331  0.00  0.00    +0.000 HD
ENDBRANCH  17  20
ENDBRANCH   4  17
BRANCH   5  23
ATOM     23  N   UNL     1       1.661   4.584  19.181  0.00  0.00    +0.000 N 
ATOM     24  H   UNL     1       1.039   5.396  19.126  0.00  0.00    +0.000 HD
ATOM     25  H   UNL     1       1.293   3.773  18.687  0.00  0.00    +0.000 HD
ENDBRANCH   5  23
TORSDOF 6
ENDMDL
MODEL 5
REMARK VINA RESULT:      -6.5      1.541      4.715
REMARK  Name = 
REMARK  6 active torsions:
REMARK  status: ('A' for Active; 'I' for Inactive)
REMARK    1  A    between atoms: N_1  and  C_2
REMARK    2  A    between atoms: C_3  and  S_4
REMARK    3  A    between atoms: S_4  and  N_5
REMARK    4  A    between atoms: C_9  and  S_10
REMARK    5  A    between atoms: S_10  and  N_11
REMARK    6  A    between atoms: C_14  and  N_15
REMARK                            x       y       z     vdW  Elec       q    Type
REMARK                         _______ _______ _______ _____ _____    ______ ____
ROOT
ATOM      1  C   UNL     1       4.718   6.310  17.843  0.00  0.00    +0.000 A 
ATOM      2  C   UNL     1       5.698   5.385  18.215  0.00  0.00    +0.000 A 
ATOM      3  C   UNL     1       5.356   4.194  18.861  0.00  0.00    +0.000 A 
ATOM      4  C   UNL     1       4.025   3.906  19.178  0.00  0.00    +0.000 A 
ATOM      5  C   UNL     1       3.002   4.809  18.881  0.00  0.00    +0.000 A 
ATOM      6  C   UNL     1       3.376   6.000  18.200  0.00  0.00    +0.000 A 
ATOM      7 CL   UNL     1       2.121   7.142  17.774  0.00  0.00    +0.000 Cl
ENDROOT
BRANCH   1   8
ATOM      8  N   UNL     1       5.037   7.590  17.352  0.00  0.00    +0.000 N 
ATOM      9  H   UNL     1       4.289   8.064  16.837  0.00  0.00    +0.000 HD
ATOM     10  H   UNL     1       5.488   8.194  18.037  0.00  0.00    +0.000 HD
ENDBRANCH   1   8
BRANCH   2  11
ATOM     11  S   UNL     1       7.412   5.573  17.837  0.00  0.00    +0.000 S 
ATOM     12  O   UNL     1       7.918   6.805  18.398  0.00  0.00    +0.000 OA
ATOM     13  O   UNL     1       8.065   4.300  18.006  0.00  0.00    +0.000 OA
BRANCH  11  14
ATOM     14  N   UNL     1       7.339   5.845  16.178  0.00  0.00    +0.000 NA
ATOM     15  H   UNL     1       8.124   5.395  15.706  0.00  0.00    +0.000 HD
ATOM     16  H   UNL     1       6.423   5.596  15.804  0.00  0.00    +0.000 HD
ENDBRANCH  11  14
ENDBRANCH   2  11
BRANCH   4  17
ATOM     17  S   UNL     1       3.763   2.386  20.040  0.00  0.00    +0.000 S 
ATOM     18  O   UNL     1       5.026   1.738  20.311  0.00  0.00    +0.000 OA
ATOM     19  O   UNL     1       2.748   2.595  21.045  0.00  0.00    +0.000 OA
BRANCH  17  20
ATOM     20  N   UNL     1       3.043   1.460  18.833  0.00  0.00    +0.000 NA
ATOM     21  H   UNL     1       2.861   0.516  19.172  0.00  0.00    +0.000 HD
ATOM     22  H   UNL     1       2.226   1.935  18.448  0.00  0.00    +0.000 HD
ENDBRANCH  17  20
ENDBRANCH   4  17
BRANCH   5  23
ATOM     23  N   UNL     1       1.641   4.482  19.028  0.00  0.00    +0.000 N 
ATOM     24  H   UNL     1       1.399   3.982  19.889  0.00  0.00    +0.000 HD
ATOM     25  H   UNL     1       1.007   5.254  18.831  0.00  0.00    +0.000 HD
ENDBRANCH   5  23
TORSDOF 6
ENDMDL
MODEL 6
REMARK VINA RESULT:      -6.5      1.074      4.630
REMARK  Name = 
REMARK  6 active torsions:
REMARK  status: ('A' for Active; 'I' for Inactive)
REMARK    1  A    between atoms: N_1  and  C_2
REMARK    2  A    between atoms: C_3  and  S_4
REMARK    3  A    between atoms: S_4  and  N_5
REMARK    4  A    between atoms: C_9  and  S_10
REMARK    5  A    between atoms: S_10  and  N_11
REMARK    6  A    between atoms: C_14  and  N_15
REMARK                            x       y       z     vdW  Elec       q    Type
REMARK                         _______ _______ _______ _____ _____    ______ ____
ROOT
ATOM      1  C   UNL     1       4.731   6.299  17.713  0.00  0.00    +0.000 A 
ATOM      2  C   UNL     1       5.652   5.276  17.959  0.00  0.00    +0.000 A 
ATOM      3  C   UNL     1       5.254   4.076  18.555  0.00  0.00    +0.000 A 
ATOM      4  C   UNL     1       3.927   3.874  18.946  0.00  0.00    +0.000 A 
ATOM      5  C   UNL     1       2.966   4.874  18.776  0.00  0.00    +0.000 A 
ATOM      6  C   UNL     1       3.394   6.074  18.143  0.00  0.00    +0.000 A 
ATOM      7 CL   UNL     1       2.214   7.337  17.875  0.00  0.00    +0.000 Cl
ENDROOT
BRANCH   1   8
ATOM      8  N   UNL     1       5.123   7.579  17.278  0.00  0.00    +0.000 N 
ATOM      9  H   UNL     1       4.636   8.364  17.722  0.00  0.00    +0.000 HD
ATOM     10  H   UNL     1       6.133   7.711  17.243  0.00  0.00    +0.000 HD
ENDBRANCH   1   8
BRANCH   2  11
ATOM     11  S   UNL     1       7.348   5.352  17.475  0.00  0.00    +0.000 S 
ATOM     12  O   UNL     1       8.042   4.154  17.889  0.00  0.00    +0.000 OA
ATOM     13  O   UNL     1       7.424   5.889  16.140  0.00  0.00    +0.000 OA
BRANCH  11  14
ATOM     14  N   UNL     1       7.913   6.561  18.499  0.00  0.00    +0.000 NA
ATOM     15  H   UNL     1       8.285   7.343  17.960  0.00  0.00    +0.000 HD
ATOM     16  H   UNL     1       7.204   6.822  19.186  0.00  0.00    +0.000 HD
ENDBRANCH  11  14
ENDBRANCH   2  11
BRANCH   4  17
ATOM     17  S   UNL     1       3.596   2.327  19.731  0.00  0.00    +0.000 S 
ATOM     18  O   UNL     1       2.882   2.535  20.971  0.00  0.00    +0.000 OA
ATOM     19  O   UNL     1       3.176   1.381  18.725  0.00  0.00    +0.000 OA
BRANCH  17  20
ATOM     20  N   UNL     1       5.149   1.867  20.188  0.00  0.00    +0.000 NA
ATOM     21  H   UNL     1       5.840   2.295  19.572  0.00  0.00    +0.000 HD
ATOM     22  H   UNL     1       5.303   2.041  21.181  0.00  0.00    +0.000 HD
ENDBRANCH  17  20
ENDBRANCH   4  17
BRANCH   5  23
ATOM     23  N   UNL     1       1.595   4.646  18.998  0.00  0.00    +0.000 N 
ATOM     24  H   UNL     1       1.161   5.235  19.714  0.00  0.00    +0.000 HD
ATOM     25  H   UNL     1       1.042   4.595  18.144  0.00  0.00    +0.000 HD
ENDBRANCH   5  23
TORSDOF 6
ENDMDL
MODEL 7
REMARK VINA RESULT:      -6.5      1.492      1.839
REMARK  Name = 
REMARK  6 active torsions:
REMARK  status: ('A' for Active; 'I' for Inactive)
REMARK    1  A    between atoms: N_1  and  C_2
REMARK    2  A    between atoms: C_3  and  S_4
REMARK    3  A    between atoms: S_4  and  N_5
REMARK    4  A    between atoms: C_9  and  S_10
REMARK    5  A    between atoms: S_10  and  N_11
REMARK    6  A    between atoms: C_14  and  N_15
REMARK                            x       y       z     vdW  Elec       q    Type
REMARK                         _______ _______ _______ _____ _____    ______ ____
ROOT
ATOM      1  C   UNL     1       3.044   4.774  18.885  0.00  0.00    +0.000 A 
ATOM      2  C   UNL     1       4.067   3.858  19.148  0.00  0.00    +0.000 A 
ATOM      3  C   UNL     1       5.389   4.132  18.790  0.00  0.00    +0.000 A 
ATOM      4  C   UNL     1       5.723   5.320  18.132  0.00  0.00    +0.000 A 
ATOM      5  C   UNL     1       4.743   6.255  17.792  0.00  0.00    +0.000 A 
ATOM      6  C   UNL     1       3.411   5.963  18.194  0.00  0.00    +0.000 A 
ATOM      7 CL   UNL     1       2.158   7.125  17.823  0.00  0.00    +0.000 Cl
ENDROOT
BRANCH   1   8
ATOM      8  N   UNL     1       1.684   4.461  19.072  0.00  0.00    +0.000 N 
ATOM      9  H   UNL     1       1.043   5.261  19.074  0.00  0.00    +0.000 HD
ATOM     10  H   UNL     1       1.354   3.693  18.490  0.00  0.00    +0.000 HD
ENDBRANCH   1   8
BRANCH   2  11
ATOM     11  S   UNL     1       3.820   2.343  20.020  0.00  0.00    +0.000 S 
ATOM     12  O   UNL     1       5.087   1.697  20.273  0.00  0.00    +0.000 OA
ATOM     13  O   UNL     1       2.822   2.553  21.037  0.00  0.00    +0.000 OA
BRANCH  11  14
ATOM     14  N   UNL     1       3.084   1.411  18.827  0.00  0.00    +0.000 NA
ATOM     15  H   UNL     1       3.371   0.436  18.907  0.00  0.00    +0.000 HD
ATOM     16  H   UNL     1       2.074   1.555  18.819  0.00  0.00    +0.000 HD
ENDBRANCH  11  14
ENDBRANCH   2  11
BRANCH   4  17
ATOM     17  S   UNL     1       7.427   5.493  17.700  0.00  0.00    +0.000 S 
ATOM     18  O   UNL     1       7.968   6.708  18.265  0.00  0.00    +0.000 OA
ATOM     19  O   UNL     1       8.068   4.205  17.830  0.00  0.00    +0.000 OA
BRANCH  17  20
ATOM     20  N   UNL     1       7.305   5.790  16.048  0.00  0.00    +0.000 NA
ATOM     21  H   UNL     1       7.705   6.700  15.822  0.00  0.00    +0.000 HD
ATOM     22  H   UNL     1       7.690   5.014  15.509  0.00  0.00    +0.000 HD
ENDBRANCH  17  20
ENDBRANCH   4  17
BRANCH   5  23
ATOM     23  N   UNL     1       5.062   7.530  17.288  0.00  0.00    +0.000 N 
ATOM     24  H   UNL     1       5.401   8.205  17.979  0.00  0.00    +0.000 HD
ATOM     25  H   UNL     1       5.635   7.509  16.446  0.00  0.00    +0.000 HD
ENDBRANCH   5  23
TORSDOF 6
ENDMDL
MODEL 8
REMARK VINA RESULT:      -6.4      1.069      1.105
REMARK  Name = 
REMARK  6 active torsions:
REMARK  status: ('A' for Active; 'I' for Inactive)
REMARK    1  A    between atoms: N_1  and  C_2
REMARK    2  A    between atoms: C_3  and  S_4
REMARK    3  A    between atoms: S_4  and  N_5
REMARK    4  A    between atoms: C_9  and  S_10
REMARK    5  A    between atoms: S_10  and  N_11
REMARK    6  A    between atoms: C_14  and  N_15
REMARK                            x       y       z     vdW  Elec       q    Type
REMARK                         _______ _______ _______ _____ _____    ______ ____
ROOT
ATOM      1  C   UNL     1       2.968   4.858  18.732  0.00  0.00    +0.000 A 
ATOM      2  C   UNL     1       3.931   3.859  18.902  0.00  0.00    +0.000 A 
ATOM      3  C   UNL     1       5.260   4.068  18.526  0.00  0.00    +0.000 A 
ATOM      4  C   UNL     1       5.660   5.275  17.944  0.00  0.00    +0.000 A 
ATOM      5  C   UNL     1       4.739   6.296  17.699  0.00  0.00    +0.000 A 
ATOM      6  C   UNL     1       3.400   6.066  18.116  0.00  0.00    +0.000 A 
ATOM      7 CL   UNL     1       2.222   7.333  17.863  0.00  0.00    +0.000 Cl
ENDROOT
BRANCH   1   8
ATOM      8  N   UNL     1       1.595   4.624  18.935  0.00  0.00    +0.000 N 
ATOM      9  H   UNL     1       1.066   4.345  18.102  0.00  0.00    +0.000 HD
ATOM     10  H   UNL     1       1.391   4.042  19.745  0.00  0.00    +0.000 HD
ENDBRANCH   1   8
BRANCH   2  11
ATOM     11  S   UNL     1       3.600   2.305  19.672  0.00  0.00    +0.000 S 
ATOM     12  O   UNL     1       2.815   2.496  20.871  0.00  0.00    +0.000 OA
ATOM     13  O   UNL     1       3.266   1.345  18.651  0.00  0.00    +0.000 OA
BRANCH  11  14
ATOM     14  N   UNL     1       5.137   1.892  20.218  0.00  0.00    +0.000 NA
ATOM     15  H   UNL     1       5.197   1.992  21.231  0.00  0.00    +0.000 HD
ATOM     16  H   UNL     1       5.419   0.976  19.867  0.00  0.00    +0.000 HD
ENDBRANCH  11  14
ENDBRANCH   2  11
BRANCH   4  17
ATOM     17  S   UNL     1       7.361   5.363  17.477  0.00  0.00    +0.000 S 
ATOM     18  O   UNL     1       8.057   4.163  17.882  0.00  0.00    +0.000 OA
ATOM     19  O   UNL     1       7.446   5.917  16.146  0.00  0.00    +0.000 OA
BRANCH  17  20
ATOM     20  N   UNL     1       7.911   6.565  18.520  0.00  0.00    +0.000 NA
ATOM     21  H   UNL     1       7.263   7.351  18.526  0.00  0.00    +0.000 HD
ATOM     22  H   UNL     1       8.119   6.180  19.441  0.00  0.00    +0.000 HD
ENDBRANCH  17  20
ENDBRANCH   4  17
BRANCH   5  23
ATOM     23  N   UNL     1       5.133   7.579  17.276  0.00  0.00    +0.000 N 
ATOM     24  H   UNL     1       4.827   8.353  17.873  0.00  0.00    +0.000 HD
ATOM     25  H   UNL     1       6.117   7.646  17.020  0.00  0.00    +0.000 HD
ENDBRANCH   5  23
TORSDOF 6
ENDMDL
MODEL 9
REMARK VINA RESULT:      -6.4      1.385      1.498
REMARK  Name = 
REMARK  6 active torsions:
REMARK  status: ('A' for Active; 'I' for Inactive)
REMARK    1  A    between atoms: N_1  and  C_2
REMARK    2  A    between atoms: C_3  and  S_4
REMARK    3  A    between atoms: S_4  and  N_5
REMARK    4  A    between atoms: C_9  and  S_10
REMARK    5  A    between atoms: S_10  and  N_11
REMARK    6  A    between atoms: C_14  and  N_15
REMARK                            x       y       z     vdW  Elec       q    Type
REMARK                         _______ _______ _______ _____ _____    ______ ____
ROOT
ATOM      1  C   UNL     1       3.025   4.824  18.804  0.00  0.00    +0.000 A 
ATOM      2  C   UNL     1       4.019   3.858  18.986  0.00  0.00    +0.000 A 
ATOM      3  C   UNL     1       5.337   4.096  18.585  0.00  0.00    +0.000 A 
ATOM      4  C   UNL     1       5.692   5.298  17.965  0.00  0.00    +0.000 A 
ATOM      5  C   UNL     1       4.738   6.285  17.706  0.00  0.00    +0.000 A 
ATOM      6  C   UNL     1       3.412   6.027  18.150  0.00  0.00    +0.000 A 
ATOM      7 CL   UNL     1       2.193   7.252  17.880  0.00  0.00    +0.000 Cl
ENDROOT
BRANCH   1   8
ATOM      8  N   UNL     1       1.662   4.556  19.033  0.00  0.00    +0.000 N 
ATOM      9  H   UNL     1       1.276   3.757  18.519  0.00  0.00    +0.000 HD
ATOM     10  H   UNL     1       1.402   4.552  20.018  0.00  0.00    +0.000 HD
ENDBRANCH   1   8
BRANCH   2  11
ATOM     11  S   UNL     1       3.746   2.317  19.802  0.00  0.00    +0.000 S 
ATOM     12  O   UNL     1       2.841   1.495  19.032  0.00  0.00    +0.000 OA
ATOM     13  O   UNL     1       5.002   1.840  20.321  0.00  0.00    +0.000 OA
BRANCH  11  14
ATOM     14  N   UNL     1       2.850   2.823  21.134  0.00  0.00    +0.000 NA
ATOM     15  H   UNL     1       2.457   3.750  20.971  0.00  0.00    +0.000 HD
ATOM     16  H   UNL     1       2.165   2.116  21.406  0.00  0.00    +0.000 HD
ENDBRANCH  11  14
ENDBRANCH   2  11
BRANCH   4  17
ATOM     17  S   UNL     1       7.383   5.424  17.472  0.00  0.00    +0.000 S 
ATOM     18  O   UNL     1       8.100   4.218  17.819  0.00  0.00    +0.000 OA
ATOM     19  O   UNL     1       7.437   6.027  16.161  0.00  0.00    +0.000 OA
BRANCH  17  20
ATOM     20  N   UNL     1       7.939   6.593  18.547  0.00  0.00    +0.000 NA
ATOM     21  H   UNL     1       8.850   6.326  18.920  0.00  0.00    +0.000 HD
ATOM     22  H   UNL     1       7.911   7.520  18.124  0.00  0.00    +0.000 HD
ENDBRANCH  17  20
ENDBRANCH   4  17
BRANCH   5  23
ATOM     23  N   UNL     1       5.088   7.567  17.243  0.00  0.00    +0.000 N 
ATOM     24  H   UNL     1       4.645   8.349  17.736  0.00  0.00    +0.000 HD
ATOM     25  H   UNL     1       6.089   7.701  17.115  0.00  0.00    +0.000 HD
ENDBRANCH   5  23
TORSDOF 6
ENDMDL
