MODEL 1
REMARK VINA RESULT:      -8.3      0.000      0.000
REMARK  Name = 
REMARK  6 active torsions:
REMARK  status: ('A' for Active; 'I' for Inactive)
REMARK    1  A    between atoms: C_1  and  O_2
REMARK    2  A    between atoms: O_2  and  C_3
REMARK    3  A    between atoms: C_7  and  N_8
REMARK    4  A    between atoms: N_8  and  C_9
REMARK    5  A    between atoms: N_16  and  C_17
REMARK    6  A    between atoms: C_17  and  C_18
REMARK                            x       y       z     vdW  Elec       q    Type
REMARK                         _______ _______ _______ _____ _____    ______ ____
ROOT
ATOM      1  C   UNL     1       3.554   6.660  17.934  0.00  0.00    +0.000 C 
ATOM      2  C   UNL     1       4.585   5.829  17.700  0.00  0.00    +0.000 C 
ATOM      3  C   UNL     1       4.907   4.742  18.633  0.00  0.00    +0.000 C 
ATOM      4  O   UNL     1       4.109   4.266  19.431  0.00  0.00    +0.000 OA
ATOM      5  N   UNL     1       6.192   4.303  18.541  0.00  0.00    +0.000 N 
ATOM      6  C   UNL     1       7.102   4.601  17.567  0.00  0.00    +0.000 C 
ATOM      7  O   UNL     1       8.211   4.072  17.617  0.00  0.00    +0.000 OA
ATOM      8  N   UNL     1       6.683   5.445  16.557  0.00  0.00    +0.000 N 
ATOM      9  C   UNL     1       5.449   6.074  16.522  0.00  0.00    +0.000 C 
ATOM     10  O   UNL     1       5.065   6.777  15.590  0.00  0.00    +0.000 OA
ATOM     11  H   UNL     1       6.477   3.600  19.207  0.00  0.00    +0.000 HD
ENDROOT
BRANCH   1  12
ATOM     12  N   UNL     1       2.682   6.700  18.996  0.00  0.00    +0.000 N 
ATOM     13  H   UNL     1       2.636   5.866  19.581  0.00  0.00    +0.000 HD
BRANCH  12  18
ATOM     14  C   UNL     1       0.661   8.958  21.167  0.00  0.00    +0.000 A 
ATOM     15  C   UNL     1       0.357   9.972  20.258  0.00  0.00    +0.000 A 
ATOM     16  C   UNL     1       0.864   9.931  18.960  0.00  0.00    +0.000 A 
ATOM     17  C   UNL     1       1.671   8.864  18.559  0.00  0.00    +0.000 A 
ATOM     18  C   UNL     1       1.987   7.835  19.454  0.00  0.00    +0.000 A 
ATOM     19  C   UNL     1       1.482   7.909  20.763  0.00  0.00    +0.000 A 
BRANCH  14  21
ATOM     20  C   UNL     1      -0.477  10.360  22.716  0.00  0.00    +0.000 C 
ATOM     21  O   UNL     1       0.087   9.090  22.403  0.00  0.00    +0.000 OA
ENDBRANCH  14  21
ENDBRANCH  12  18
ENDBRANCH   1  12
BRANCH   8  22
ATOM     22  C   UNL     1       7.564   5.620  15.409  0.00  0.00    +0.000 C 
BRANCH  22  23
ATOM     23  C   UNL     1       7.061   4.892  14.211  0.00  0.00    +0.000 A 
ATOM     24  C   UNL     1       6.155   3.863  14.039  0.00  0.00    +0.000 A 
ATOM     25  C   UNL     1       6.203   3.511  12.670  0.00  0.00    +0.000 A 
ATOM     26  C   UNL     1       7.116   4.359  12.089  0.00  0.00    +0.000 A 
ATOM     27  O   UNL     1       7.637   5.204  13.015  0.00  0.00    +0.000 OA
ENDBRANCH  22  23
ENDBRANCH   8  22
TORSDOF 5
ENDMDL
MODEL 2
REMARK VINA RESULT:      -8.1      1.002      1.573
REMARK  Name = 
REMARK  6 active torsions:
REMARK  status: ('A' for Active; 'I' for Inactive)
REMARK    1  A    between atoms: C_1  and  O_2
REMARK    2  A    between atoms: O_2  and  C_3
REMARK    3  A    between atoms: C_7  and  N_8
REMARK    4  A    between atoms: N_8  and  C_9
REMARK    5  A    between atoms: N_16  and  C_17
REMARK    6  A    between atoms: C_17  and  C_18
REMARK                            x       y       z     vdW  Elec       q    Type
REMARK                         _______ _______ _______ _____ _____    ______ ____
ROOT
ATOM      1  C   UNL     1       3.597   6.663  18.199  0.00  0.00    +0.000 C 
ATOM      2  C   UNL     1       4.610   5.837  17.880  0.00  0.00    +0.000 C 
ATOM      3  C   UNL     1       4.964   4.706  18.746  0.00  0.00    +0.000 C 
ATOM      4  O   UNL     1       4.199   4.198  19.556  0.00  0.00    +0.000 OA
ATOM      5  N   UNL     1       6.240   4.264  18.576  0.00  0.00    +0.000 N 
ATOM      6  C   UNL     1       7.109   4.603  17.577  0.00  0.00    +0.000 C 
ATOM      7  O   UNL     1       8.214   4.066  17.553  0.00  0.00    +0.000 OA
ATOM      8  N   UNL     1       6.651   5.496  16.627  0.00  0.00    +0.000 N 
ATOM      9  C   UNL     1       5.422   6.133  16.677  0.00  0.00    +0.000 C 
ATOM     10  O   UNL     1       5.002   6.881  15.797  0.00  0.00    +0.000 OA
ATOM     11  H   UNL     1       6.549   3.529  19.195  0.00  0.00    +0.000 HD
ENDROOT
BRANCH   1  12
ATOM     12  N   UNL     1       2.773   6.657  19.299  0.00  0.00    +0.000 N 
ATOM     13  H   UNL     1       2.897   5.890  19.959  0.00  0.00    +0.000 HD
BRANCH  12  18
ATOM     14  C   UNL     1       0.950   9.910  19.316  0.00  0.00    +0.000 A 
ATOM     15  C   UNL     1       0.416   9.890  20.604  0.00  0.00    +0.000 A 
ATOM     16  C   UNL     1       0.614   8.787  21.433  0.00  0.00    +0.000 A 
ATOM     17  C   UNL     1       1.362   7.697  20.979  0.00  0.00    +0.000 A 
ATOM     18  C   UNL     1       1.907   7.697  19.691  0.00  0.00    +0.000 A 
ATOM     19  C   UNL     1       1.676   8.810  18.866  0.00  0.00    +0.000 A 
BRANCH  14  21
ATOM     20  C   UNL     1      -0.637  11.499  18.532  0.00  0.00    +0.000 C 
ATOM     21  O   UNL     1       0.714  11.054  18.602  0.00  0.00    +0.000 OA
ENDBRANCH  14  21
ENDBRANCH  12  18
ENDBRANCH   1  12
BRANCH   8  22
ATOM     22  C   UNL     1       7.481   5.720  15.451  0.00  0.00    +0.000 C 
BRANCH  22  23
ATOM     23  C   UNL     1       7.002   4.934  14.280  0.00  0.00    +0.000 A 
ATOM     24  C   UNL     1       6.118   3.882  14.143  0.00  0.00    +0.000 A 
ATOM     25  C   UNL     1       6.182   3.476  12.789  0.00  0.00    +0.000 A 
ATOM     26  C   UNL     1       7.083   4.319  12.181  0.00  0.00    +0.000 A 
ATOM     27  O   UNL     1       7.581   5.210  13.076  0.00  0.00    +0.000 OA
ENDBRANCH  22  23
ENDBRANCH   8  22
TORSDOF 5
ENDMDL
MODEL 3
REMARK VINA RESULT:      -8.0      2.699      3.907
REMARK  Name = 
REMARK  6 active torsions:
REMARK  status: ('A' for Active; 'I' for Inactive)
REMARK    1  A    between atoms: C_1  and  O_2
REMARK    2  A    between atoms: O_2  and  C_3
REMARK    3  A    between atoms: C_7  and  N_8
REMARK    4  A    between atoms: N_8  and  C_9
REMARK    5  A    between atoms: N_16  and  C_17
REMARK    6  A    between atoms: C_17  and  C_18
REMARK                            x       y       z     vdW  Elec       q    Type
REMARK                         _______ _______ _______ _____ _____    ______ ____
ROOT
ATOM      1  C   UNL     1       1.858   7.693  20.073  0.00  0.00    +0.000 C 
ATOM      2  C   UNL     1       2.423   6.581  19.571  0.00  0.00    +0.000 C 
ATOM      3  C   UNL     1       2.147   5.263  20.154  0.00  0.00    +0.000 C 
ATOM      4  O   UNL     1       1.158   5.007  20.829  0.00  0.00    +0.000 OA
ATOM      5  N   UNL     1       3.102   4.332  19.883  0.00  0.00    +0.000 N 
ATOM      6  C   UNL     1       4.127   4.433  18.984  0.00  0.00    +0.000 C 
ATOM      7  O   UNL     1       4.873   3.468  18.834  0.00  0.00    +0.000 OA
ATOM      8  N   UNL     1       4.214   5.609  18.265  0.00  0.00    +0.000 N 
ATOM      9  C   UNL     1       3.399   6.712  18.464  0.00  0.00    +0.000 C 
ATOM     10  O   UNL     1       3.448   7.732  17.779  0.00  0.00    +0.000 OA
ATOM     11  H   UNL     1       2.987   3.428  20.317  0.00  0.00    +0.000 HD
ENDROOT
BRANCH   1  12
ATOM     12  N   UNL     1       1.012   7.840  21.146  0.00  0.00    +0.000 N 
ATOM     13  H   UNL     1       1.053   7.116  21.863  0.00  0.00    +0.000 HD
BRANCH  12  18
ATOM     14  C   UNL     1      -0.704  11.128  20.770  0.00  0.00    +0.000 A 
ATOM     15  C   UNL     1      -1.073  11.370  22.093  0.00  0.00    +0.000 A 
ATOM     16  C   UNL     1      -0.804  10.427  23.084  0.00  0.00    +0.000 A 
ATOM     17  C   UNL     1      -0.150   9.237  22.757  0.00  0.00    +0.000 A 
ATOM     18  C   UNL     1       0.231   8.975  21.436  0.00  0.00    +0.000 A 
ATOM     19  C   UNL     1      -0.070   9.931  20.451  0.00  0.00    +0.000 A 
BRANCH  14  21
ATOM     20  C   UNL     1      -1.929  11.832  18.856  0.00  0.00    +0.000 C 
ATOM     21  O   UNL     1      -0.995  12.135  19.889  0.00  0.00    +0.000 OA
ENDBRANCH  14  21
ENDBRANCH  12  18
ENDBRANCH   1  12
BRANCH   8  22
ATOM     22  C   UNL     1       5.171   5.664  17.168  0.00  0.00    +0.000 C 
BRANCH  22  23
ATOM     23  C   UNL     1       6.418   6.378  17.559  0.00  0.00    +0.000 A 
ATOM     24  C   UNL     1       7.391   6.135  18.508  0.00  0.00    +0.000 A 
ATOM     25  C   UNL     1       8.259   7.252  18.491  0.00  0.00    +0.000 A 
ATOM     26  C   UNL     1       7.775   8.096  17.519  0.00  0.00    +0.000 A 
ATOM     27  O   UNL     1       6.662   7.571  16.945  0.00  0.00    +0.000 OA
ENDBRANCH  22  23
ENDBRANCH   8  22
TORSDOF 5
ENDMDL
MODEL 4
REMARK VINA RESULT:      -7.9      3.047      8.043
REMARK  Name = 
REMARK  6 active torsions:
REMARK  status: ('A' for Active; 'I' for Inactive)
REMARK    1  A    between atoms: C_1  and  O_2
REMARK    2  A    between atoms: O_2  and  C_3
REMARK    3  A    between atoms: C_7  and  N_8
REMARK    4  A    between atoms: N_8  and  C_9
REMARK    5  A    between atoms: N_16  and  C_17
REMARK    6  A    between atoms: C_17  and  C_18
REMARK                            x       y       z     vdW  Elec       q    Type
REMARK                         _______ _______ _______ _____ _____    ______ ____
ROOT
ATOM      1  C   UNL     1       5.836   5.494  15.076  0.00  0.00    +0.000 C 
ATOM      2  C   UNL     1       5.853   5.344  16.413  0.00  0.00    +0.000 C 
ATOM      3  C   UNL     1       6.918   4.580  17.074  0.00  0.00    +0.000 C 
ATOM      4  O   UNL     1       8.016   4.364  16.577  0.00  0.00    +0.000 OA
ATOM      5  N   UNL     1       6.575   4.116  18.307  0.00  0.00    +0.000 N 
ATOM      6  C   UNL     1       5.479   4.460  19.047  0.00  0.00    +0.000 C 
ATOM      7  O   UNL     1       5.352   3.975  20.169  0.00  0.00    +0.000 OA
ATOM      8  N   UNL     1       4.612   5.380  18.489  0.00  0.00    +0.000 N 
ATOM      9  C   UNL     1       4.732   5.894  17.209  0.00  0.00    +0.000 C 
ATOM     10  O   UNL     1       3.988   6.756  16.744  0.00  0.00    +0.000 OA
ATOM     11  H   UNL     1       7.252   3.530  18.773  0.00  0.00    +0.000 HD
ENDROOT
BRANCH   1  12
ATOM     12  N   UNL     1       6.696   4.997  14.126  0.00  0.00    +0.000 N 
ATOM     13  H   UNL     1       7.691   5.149  14.286  0.00  0.00    +0.000 HD
BRANCH  12  18
ATOM     14  C   UNL     1       4.652   3.109  11.644  0.00  0.00    +0.000 A 
ATOM     15  C   UNL     1       5.620   2.249  11.126  0.00  0.00    +0.000 A 
ATOM     16  C   UNL     1       6.943   2.335  11.556  0.00  0.00    +0.000 A 
ATOM     17  C   UNL     1       7.304   3.279  12.522  0.00  0.00    +0.000 A 
ATOM     18  C   UNL     1       6.348   4.150  13.056  0.00  0.00    +0.000 A 
ATOM     19  C   UNL     1       5.025   4.059  12.592  0.00  0.00    +0.000 A 
BRANCH  14  21
ATOM     20  C   UNL     1       3.023   3.634   9.992  0.00  0.00    +0.000 C 
ATOM     21  O   UNL     1       3.383   2.916  11.168  0.00  0.00    +0.000 OA
ENDBRANCH  14  21
ENDBRANCH  12  18
ENDBRANCH   1  12
BRANCH   8  22
ATOM     22  C   UNL     1       3.548   5.908  19.334  0.00  0.00    +0.000 C 
BRANCH  22  23
ATOM     23  C   UNL     1       2.454   4.916  19.528  0.00  0.00    +0.000 A 
ATOM     24  C   UNL     1       1.759   4.477  20.638  0.00  0.00    +0.000 A 
ATOM     25  C   UNL     1       0.929   3.419  20.200  0.00  0.00    +0.000 A 
ATOM     26  C   UNL     1       1.152   3.293  18.849  0.00  0.00    +0.000 A 
ATOM     27  O   UNL     1       2.071   4.201  18.431  0.00  0.00    +0.000 OA
ENDBRANCH  22  23
ENDBRANCH   8  22
TORSDOF 5
ENDMDL
MODEL 5
REMARK VINA RESULT:      -7.9      3.895      6.293
REMARK  Name = 
REMARK  6 active torsions:
REMARK  status: ('A' for Active; 'I' for Inactive)
REMARK    1  A    between atoms: C_1  and  O_2
REMARK    2  A    between atoms: O_2  and  C_3
REMARK    3  A    between atoms: C_7  and  N_8
REMARK    4  A    between atoms: N_8  and  C_9
REMARK    5  A    between atoms: N_16  and  C_17
REMARK    6  A    between atoms: C_17  and  C_18
REMARK                            x       y       z     vdW  Elec       q    Type
REMARK                         _______ _______ _______ _____ _____    ______ ____
ROOT
ATOM      1  C   UNL     1       0.434   9.588  19.685  0.00  0.00    +0.000 C 
ATOM      2  C   UNL     1       1.459   8.831  19.253  0.00  0.00    +0.000 C 
ATOM      3  C   UNL     1       2.144   9.135  17.991  0.00  0.00    +0.000 C 
ATOM      4  O   UNL     1       2.130  10.235  17.452  0.00  0.00    +0.000 OA
ATOM      5  N   UNL     1       2.803   8.071  17.455  0.00  0.00    +0.000 N 
ATOM      6  C   UNL     1       3.065   6.871  18.053  0.00  0.00    +0.000 C 
ATOM      7  O   UNL     1       3.720   6.036  17.433  0.00  0.00    +0.000 OA
ATOM      8  N   UNL     1       2.612   6.707  19.349  0.00  0.00    +0.000 N 
ATOM      9  C   UNL     1       1.839   7.630  20.032  0.00  0.00    +0.000 C 
ATOM     10  O   UNL     1       1.490   7.498  21.204  0.00  0.00    +0.000 OA
ATOM     11  H   UNL     1       3.235   8.216  16.554  0.00  0.00    +0.000 HD
ENDROOT
BRANCH   1  12
ATOM     12  N   UNL     1      -0.161  10.678  19.095  0.00  0.00    +0.000 N 
ATOM     13  H   UNL     1       0.410  11.517  19.004  0.00  0.00    +0.000 HD
BRANCH  12  18
ATOM     14  C   UNL     1      -2.812  10.128  16.531  0.00  0.00    +0.000 A 
ATOM     15  C   UNL     1      -3.816  10.958  17.028  0.00  0.00    +0.000 A 
ATOM     16  C   UNL     1      -3.634  11.647  18.227  0.00  0.00    +0.000 A 
ATOM     17  C   UNL     1      -2.434  11.516  18.932  0.00  0.00    +0.000 A 
ATOM     18  C   UNL     1      -1.413  10.689  18.450  0.00  0.00    +0.000 A 
ATOM     19  C   UNL     1      -1.628   9.989  17.251  0.00  0.00    +0.000 A 
BRANCH  14  21
ATOM     20  C   UNL     1      -3.416  10.381  14.245  0.00  0.00    +0.000 C 
ATOM     21  O   UNL     1      -3.091   9.524  15.335  0.00  0.00    +0.000 OA
ENDBRANCH  14  21
ENDBRANCH  12  18
ENDBRANCH   1  12
BRANCH   8  22
ATOM     22  C   UNL     1       3.047   5.520  20.073  0.00  0.00    +0.000 C 
BRANCH  22  23
ATOM     23  C   UNL     1       2.199   4.337  19.755  0.00  0.00    +0.000 A 
ATOM     24  C   UNL     1       0.902   3.987  20.076  0.00  0.00    +0.000 A 
ATOM     25  C   UNL     1       0.709   2.672  19.592  0.00  0.00    +0.000 A 
ATOM     26  C   UNL     1       1.891   2.310  18.989  0.00  0.00    +0.000 A 
ATOM     27  O   UNL     1       2.798   3.316  19.078  0.00  0.00    +0.000 OA
ENDBRANCH  22  23
ENDBRANCH   8  22
TORSDOF 5
ENDMDL
MODEL 6
REMARK VINA RESULT:      -7.9      3.901      6.131
REMARK  Name = 
REMARK  6 active torsions:
REMARK  status: ('A' for Active; 'I' for Inactive)
REMARK    1  A    between atoms: C_1  and  O_2
REMARK    2  A    between atoms: O_2  and  C_3
REMARK    3  A    between atoms: C_7  and  N_8
REMARK    4  A    between atoms: N_8  and  C_9
REMARK    5  A    between atoms: N_16  and  C_17
REMARK    6  A    between atoms: C_17  and  C_18
REMARK                            x       y       z     vdW  Elec       q    Type
REMARK                         _______ _______ _______ _____ _____    ______ ____
ROOT
ATOM      1  C   UNL     1       0.400   9.651  19.712  0.00  0.00    +0.000 C 
ATOM      2  C   UNL     1       1.452   8.940  19.269  0.00  0.00    +0.000 C 
ATOM      3  C   UNL     1       2.172   9.332  18.052  0.00  0.00    +0.000 C 
ATOM      4  O   UNL     1       2.155  10.463  17.581  0.00  0.00    +0.000 OA
ATOM      5  N   UNL     1       2.868   8.315  17.474  0.00  0.00    +0.000 N 
ATOM      6  C   UNL     1       3.133   7.085  18.006  0.00  0.00    +0.000 C 
ATOM      7  O   UNL     1       3.824   6.301  17.358  0.00  0.00    +0.000 OA
ATOM      8  N   UNL     1       2.642   6.833  19.273  0.00  0.00    +0.000 N 
ATOM      9  C   UNL     1       1.830   7.699  19.985  0.00  0.00    +0.000 C 
ATOM     10  O   UNL     1       1.446   7.489  21.134  0.00  0.00    +0.000 OA
ATOM     11  H   UNL     1       3.327   8.522  16.599  0.00  0.00    +0.000 HD
ENDROOT
BRANCH   1  12
ATOM     12  N   UNL     1      -0.196  10.765  19.171  0.00  0.00    +0.000 N 
ATOM     13  H   UNL     1       0.323  11.639  19.235  0.00  0.00    +0.000 HD
BRANCH  12  18
ATOM     14  C   UNL     1      -3.693  11.432  18.061  0.00  0.00    +0.000 A 
ATOM     15  C   UNL     1      -3.777  10.569  16.969  0.00  0.00    +0.000 A 
ATOM     16  C   UNL     1      -2.670   9.819  16.575  0.00  0.00    +0.000 A 
ATOM     17  C   UNL     1      -1.470   9.920  17.284  0.00  0.00    +0.000 A 
ATOM     18  C   UNL     1      -1.364  10.779  18.383  0.00  0.00    +0.000 A 
ATOM     19  C   UNL     1      -2.487  11.541  18.748  0.00  0.00    +0.000 A 
BRANCH  14  21
ATOM     20  C   UNL     1      -6.068  11.389  18.174  0.00  0.00    +0.000 C 
ATOM     21  O   UNL     1      -4.848  12.097  18.371  0.00  0.00    +0.000 OA
ENDBRANCH  14  21
ENDBRANCH  12  18
ENDBRANCH   1  12
BRANCH   8  22
ATOM     22  C   UNL     1       3.076   5.611  19.938  0.00  0.00    +0.000 C 
BRANCH  22  23
ATOM     23  C   UNL     1       2.167   4.469  19.640  0.00  0.00    +0.000 A 
ATOM     24  C   UNL     1       0.988   4.023  20.205  0.00  0.00    +0.000 A 
ATOM     25  C   UNL     1       0.673   2.801  19.566  0.00  0.00    +0.000 A 
ATOM     26  C   UNL     1       1.665   2.588  18.638  0.00  0.00    +0.000 A 
ATOM     27  O   UNL     1       2.573   3.597  18.672  0.00  0.00    +0.000 OA
ENDBRANCH  22  23
ENDBRANCH   8  22
TORSDOF 5
ENDMDL
MODEL 7
REMARK VINA RESULT:      -7.9      1.473      1.759
REMARK  Name = 
REMARK  6 active torsions:
REMARK  status: ('A' for Active; 'I' for Inactive)
REMARK    1  A    between atoms: C_1  and  O_2
REMARK    2  A    between atoms: O_2  and  C_3
REMARK    3  A    between atoms: C_7  and  N_8
REMARK    4  A    between atoms: N_8  and  C_9
REMARK    5  A    between atoms: N_16  and  C_17
REMARK    6  A    between atoms: C_17  and  C_18
REMARK                            x       y       z     vdW  Elec       q    Type
REMARK                         _______ _______ _______ _____ _____    ______ ____
ROOT
ATOM      1  C   UNL     1       2.744   7.964  17.774  0.00  0.00    +0.000 C 
ATOM      2  C   UNL     1       3.573   6.930  17.996  0.00  0.00    +0.000 C 
ATOM      3  C   UNL     1       3.309   5.965  19.071  0.00  0.00    +0.000 C 
ATOM      4  O   UNL     1       2.204   5.780  19.567  0.00  0.00    +0.000 OA
ATOM      5  N   UNL     1       4.414   5.286  19.483  0.00  0.00    +0.000 N 
ATOM      6  C   UNL     1       5.638   5.251  18.879  0.00  0.00    +0.000 C 
ATOM      7  O   UNL     1       6.514   4.540  19.367  0.00  0.00    +0.000 OA
ATOM      8  N   UNL     1       5.784   5.986  17.717  0.00  0.00    +0.000 N 
ATOM      9  C   UNL     1       4.811   6.818  17.190  0.00  0.00    +0.000 C 
ATOM     10  O   UNL     1       4.930   7.423  16.126  0.00  0.00    +0.000 OA
ATOM     11  H   UNL     1       4.292   4.658  20.265  0.00  0.00    +0.000 HD
ENDROOT
BRANCH   1  12
ATOM     12  N   UNL     1       1.603   8.334  18.446  0.00  0.00    +0.000 N 
ATOM     13  H   UNL     1       0.878   7.624  18.542  0.00  0.00    +0.000 HD
BRANCH  12  18
ATOM     14  C   UNL     1       0.637  10.710  21.153  0.00  0.00    +0.000 A 
ATOM     15  C   UNL     1       0.769  11.923  20.479  0.00  0.00    +0.000 A 
ATOM     16  C   UNL     1       1.227  11.953  19.162  0.00  0.00    +0.000 A 
ATOM     17  C   UNL     1       1.543  10.761  18.505  0.00  0.00    +0.000 A 
ATOM     18  C   UNL     1       1.416   9.532  19.162  0.00  0.00    +0.000 A 
ATOM     19  C   UNL     1       0.974   9.529  20.496  0.00  0.00    +0.000 A 
BRANCH  14  21
ATOM     20  C   UNL     1      -0.110   9.573  23.104  0.00  0.00    +0.000 C 
ATOM     21  O   UNL     1       0.154  10.800  22.430  0.00  0.00    +0.000 OA
ENDBRANCH  14  21
ENDBRANCH  12  18
ENDBRANCH   1  12
BRANCH   8  22
ATOM     22  C   UNL     1       7.010   5.808  16.952  0.00  0.00    +0.000 C 
BRANCH  22  23
ATOM     23  C   UNL     1       6.760   5.101  15.664  0.00  0.00    +0.000 A 
ATOM     24  C   UNL     1       5.979   4.017  15.315  0.00  0.00    +0.000 A 
ATOM     25  C   UNL     1       6.266   3.735  13.959  0.00  0.00    +0.000 A 
ATOM     26  C   UNL     1       7.186   4.675  13.560  0.00  0.00    +0.000 A 
ATOM     27  O   UNL     1       7.487   5.512  14.586  0.00  0.00    +0.000 OA
ENDBRANCH  22  23
ENDBRANCH   8  22
TORSDOF 5
ENDMDL
MODEL 8
REMARK VINA RESULT:      -7.8      2.776      8.100
REMARK  Name = 
REMARK  6 active torsions:
REMARK  status: ('A' for Active; 'I' for Inactive)
REMARK    1  A    between atoms: C_1  and  O_2
REMARK    2  A    between atoms: O_2  and  C_3
REMARK    3  A    between atoms: C_7  and  N_8
REMARK    4  A    between atoms: N_8  and  C_9
REMARK    5  A    between atoms: N_16  and  C_17
REMARK    6  A    between atoms: C_17  and  C_18
REMARK                            x       y       z     vdW  Elec       q    Type
REMARK                         _______ _______ _______ _____ _____    ______ ____
ROOT
ATOM      1  C   UNL     1       6.685   4.905  16.642  0.00  0.00    +0.000 C 
ATOM      2  C   UNL     1       5.514   5.398  17.083  0.00  0.00    +0.000 C 
ATOM      3  C   UNL     1       4.859   6.519  16.398  0.00  0.00    +0.000 C 
ATOM      4  O   UNL     1       5.075   6.828  15.232  0.00  0.00    +0.000 OA
ATOM      5  N   UNL     1       3.982   7.203  17.180  0.00  0.00    +0.000 N 
ATOM      6  C   UNL     1       3.505   6.837  18.408  0.00  0.00    +0.000 C 
ATOM      7  O   UNL     1       2.674   7.559  18.954  0.00  0.00    +0.000 OA
ATOM      8  N   UNL     1       3.961   5.639  18.923  0.00  0.00    +0.000 N 
ATOM      9  C   UNL     1       4.928   4.847  18.327  0.00  0.00    +0.000 C 
ATOM     10  O   UNL     1       5.285   3.755  18.765  0.00  0.00    +0.000 OA
ATOM     11  H   UNL     1       3.555   8.022  16.771  0.00  0.00    +0.000 HD
ENDROOT
BRANCH   1  12
ATOM     12  N   UNL     1       7.466   5.310  15.586  0.00  0.00    +0.000 N 
ATOM     13  H   UNL     1       8.348   5.765  15.817  0.00  0.00    +0.000 HD
BRANCH  12  18
ATOM     14  C   UNL     1       6.248   3.580  12.516  0.00  0.00    +0.000 A 
ATOM     15  C   UNL     1       7.050   4.189  11.551  0.00  0.00    +0.000 A 
ATOM     16  C   UNL     1       7.941   5.199  11.910  0.00  0.00    +0.000 A 
ATOM     17  C   UNL     1       8.045   5.597  13.245  0.00  0.00    +0.000 A 
ATOM     18  C   UNL     1       7.251   4.998  14.229  0.00  0.00    +0.000 A 
ATOM     19  C   UNL     1       6.344   3.998  13.840  0.00  0.00    +0.000 A 
BRANCH  14  21
ATOM     20  C   UNL     1       4.262   2.991  11.345  0.00  0.00    +0.000 C 
ATOM     21  O   UNL     1       5.430   2.584  12.052  0.00  0.00    +0.000 OA
ENDBRANCH  14  21
ENDBRANCH  12  18
ENDBRANCH   1  12
BRANCH   8  22
ATOM     22  C   UNL     1       3.323   5.133  20.131  0.00  0.00    +0.000 C 
BRANCH  22  23
ATOM     23  C   UNL     1       2.340   4.056  19.826  0.00  0.00    +0.000 A 
ATOM     24  C   UNL     1       1.418   3.873  18.814  0.00  0.00    +0.000 A 
ATOM     25  C   UNL     1       0.679   2.714  19.147  0.00  0.00    +0.000 A 
ATOM     26  C   UNL     1       1.210   2.249  20.328  0.00  0.00    +0.000 A 
ATOM     27  O   UNL     1       2.222   3.054  20.744  0.00  0.00    +0.000 OA
ENDBRANCH  22  23
ENDBRANCH   8  22
TORSDOF 5
ENDMDL
MODEL 9
REMARK VINA RESULT:      -7.8      2.291      8.192
REMARK  Name = 
REMARK  6 active torsions:
REMARK  status: ('A' for Active; 'I' for Inactive)
REMARK    1  A    between atoms: C_1  and  O_2
REMARK    2  A    between atoms: O_2  and  C_3
REMARK    3  A    between atoms: C_7  and  N_8
REMARK    4  A    between atoms: N_8  and  C_9
REMARK    5  A    between atoms: N_16  and  C_17
REMARK    6  A    between atoms: C_17  and  C_18
REMARK                            x       y       z     vdW  Elec       q    Type
REMARK                         _______ _______ _______ _____ _____    ______ ____
ROOT
ATOM      1  C   UNL     1       2.818   6.709  17.598  0.00  0.00    +0.000 C 
ATOM      2  C   UNL     1       2.401   7.408  18.668  0.00  0.00    +0.000 C 
ATOM      3  C   UNL     1       2.365   6.799  20.003  0.00  0.00    +0.000 C 
ATOM      4  O   UNL     1       3.029   5.822  20.327  0.00  0.00    +0.000 OA
ATOM      5  N   UNL     1       1.513   7.417  20.866  0.00  0.00    +0.000 N 
ATOM      6  C   UNL     1       0.887   8.619  20.694  0.00  0.00    +0.000 C 
ATOM      7  O   UNL     1       0.184   9.051  21.605  0.00  0.00    +0.000 OA
ATOM      8  N   UNL     1       1.138   9.292  19.513  0.00  0.00    +0.000 N 
ATOM      9  C   UNL     1       1.896   8.787  18.469  0.00  0.00    +0.000 C 
ATOM     10  O   UNL     1       2.161   9.417  17.447  0.00  0.00    +0.000 OA
ATOM     11  H   UNL     1       1.407   6.994  21.776  0.00  0.00    +0.000 HD
ENDROOT
BRANCH   1  12
ATOM     12  N   UNL     1       3.231   5.401  17.511  0.00  0.00    +0.000 N 
ATOM     13  H   UNL     1       2.506   4.687  17.574  0.00  0.00    +0.000 HD
BRANCH  12  18
ATOM     14  C   UNL     1       6.877   4.651  17.736  0.00  0.00    +0.000 A 
ATOM     15  C   UNL     1       7.156   4.366  16.400  0.00  0.00    +0.000 A 
ATOM     16  C   UNL     1       6.136   4.369  15.450  0.00  0.00    +0.000 A 
ATOM     17  C   UNL     1       4.826   4.671  15.832  0.00  0.00    +0.000 A 
ATOM     18  C   UNL     1       4.525   4.962  17.167  0.00  0.00    +0.000 A 
ATOM     19  C   UNL     1       5.565   4.931  18.111  0.00  0.00    +0.000 A 
BRANCH  14  21
ATOM     20  C   UNL     1       8.064   5.726  19.495  0.00  0.00    +0.000 C 
ATOM     21  O   UNL     1       7.960   4.644  18.574  0.00  0.00    +0.000 OA
ENDBRANCH  14  21
ENDBRANCH  12  18
ENDBRANCH   1  12
BRANCH   8  22
ATOM     22  C   UNL     1       0.643  10.656  19.391  0.00  0.00    +0.000 C 
BRANCH  22  23
ATOM     23  C   UNL     1      -0.728  10.696  18.810  0.00  0.00    +0.000 A 
ATOM     24  C   UNL     1      -1.318  10.067  17.731  0.00  0.00    +0.000 A 
ATOM     25  C   UNL     1      -2.615  10.618  17.604  0.00  0.00    +0.000 A 
ATOM     26  C   UNL     1      -2.743  11.531  18.625  0.00  0.00    +0.000 A 
ATOM     27  O   UNL     1      -1.605  11.580  19.365  0.00  0.00    +0.000 OA
ENDBRANCH  22  23
ENDBRANCH   8  22
TORSDOF 5
ENDMDL
