MODEL 1
REMARK VINA RESULT:      -7.6      0.000      0.000
REMARK  Name = 
REMARK  7 active torsions:
REMARK  status: ('A' for Active; 'I' for Inactive)
REMARK    1  A    between atoms: C_1  and  C_2
REMARK    2  A    between atoms: N_4  and  C_5
REMARK    3  A    between atoms: C_5  and  C_6
REMARK    4  A    between atoms: C_5  and  C_7
REMARK    5  A    between atoms: C_10  and  O_11
REMARK    6  A    between atoms: O_11  and  C_12
REMARK    7  A    between atoms: C_18  and  C_19
REMARK                            x       y       z     vdW  Elec       q    Type
REMARK                         _______ _______ _______ _____ _____    ______ ____
ROOT
ATOM      1  O   UNL     1       4.857   5.588  18.460  0.00  0.00    +0.000 OA
ENDROOT
BRANCH   1   2
ATOM      2  C   UNL     1       3.454   5.944  18.551  0.00  0.00    +0.000 C 
ATOM      3  C   UNL     1       2.839   6.213  19.944  0.00  0.00    +0.000 C 
ATOM      4  N   UNL     1       2.307   7.406  19.416  0.00  0.00    +0.000 N 
ATOM      5  C   UNL     1       1.517   8.389  19.986  0.00  0.00    +0.000 A 
ATOM      6  N   UNL     1       1.058   8.218  21.238  0.00  0.00    +0.000 NA
ATOM      7  C   UNL     1       0.226   9.169  21.724  0.00  0.00    +0.000 A 
ATOM      8  C   UNL     1      -0.192  10.286  21.028  0.00  0.00    +0.000 A 
ATOM      9  C   UNL     1       0.349  10.351  19.758  0.00  0.00    +0.000 A 
ATOM     10  N   UNL     1       1.197   9.447  19.228  0.00  0.00    +0.000 NA
ATOM     11  C   UNL     1       3.119   7.423  18.256  0.00  0.00    +0.000 C 
BRANCH   8  12
ATOM     12  C   UNL     1      -1.176  11.296  21.549  0.00  0.00    +0.000 C 
ATOM     13  C   UNL     1      -1.502  11.394  23.019  0.00  0.00    +0.000 C 
ATOM     14  C   UNL     1      -0.673  12.462  22.373  0.00  0.00    +0.000 C 
ENDBRANCH   8  12
ENDBRANCH   1   2
BRANCH   1  18
ATOM     15  C   UNL     1       6.046   4.239  14.684  0.00  0.00    +0.000 A 
ATOM     16  C   UNL     1       4.828   3.839  15.256  0.00  0.00    +0.000 A 
ATOM     17  C   UNL     1       4.464   4.283  16.533  0.00  0.00    +0.000 A 
ATOM     18  C   UNL     1       5.310   5.128  17.248  0.00  0.00    +0.000 A 
ATOM     19  C   UNL     1       6.521   5.527  16.689  0.00  0.00    +0.000 A 
ATOM     20  C   UNL     1       6.891   5.078  15.424  0.00  0.00    +0.000 A 
BRANCH  15  21
ATOM     21  C   UNL     1       6.418   3.815  13.273  0.00  0.00    +0.000 C 
ATOM     22  C   UNL     1       7.482   4.742  12.679  0.00  0.00    +0.000 C 
BRANCH  21  26
ATOM     23  C   UNL     1       3.648   3.006  10.815  0.00  0.00    +0.000 C 
ATOM     24  C   UNL     1       4.946   2.794  11.550  0.00  0.00    +0.000 C 
ATOM     25  O   UNL     1       5.662   1.818  11.367  0.00  0.00    +0.000 OA
ATOM     26  N   UNL     1       5.219   3.794  12.447  0.00  0.00    +0.000 N 
ATOM     27  H   UNL     1       4.564   4.560  12.534  0.00  0.00    +0.000 HD
ENDBRANCH  21  26
ENDBRANCH  15  21
ENDBRANCH   1  18
TORSDOF 5
ENDMDL
MODEL 2
REMARK VINA RESULT:      -7.4      0.981      1.130
REMARK  Name = 
REMARK  7 active torsions:
REMARK  status: ('A' for Active; 'I' for Inactive)
REMARK    1  A    between atoms: C_1  and  C_2
REMARK    2  A    between atoms: N_4  and  C_5
REMARK    3  A    between atoms: C_5  and  C_6
REMARK    4  A    between atoms: C_5  and  C_7
REMARK    5  A    between atoms: C_10  and  O_11
REMARK    6  A    between atoms: O_11  and  C_12
REMARK    7  A    between atoms: C_18  and  C_19
REMARK                            x       y       z     vdW  Elec       q    Type
REMARK                         _______ _______ _______ _____ _____    ______ ____
ROOT
ATOM      1  O   UNL     1       3.954   4.692  19.573  0.00  0.00    +0.000 OA
ENDROOT
BRANCH   1   2
ATOM      2  C   UNL     1       2.668   5.359  19.500  0.00  0.00    +0.000 C 
ATOM      3  C   UNL     1       2.077   5.985  20.784  0.00  0.00    +0.000 C 
ATOM      4  N   UNL     1       1.856   7.161  20.040  0.00  0.00    +0.000 N 
ATOM      5  C   UNL     1       1.291   8.375  20.390  0.00  0.00    +0.000 A 
ATOM      6  N   UNL     1       0.755   8.521  21.614  0.00  0.00    +0.000 NA
ATOM      7  C   UNL     1       0.145   9.699  21.884  0.00  0.00    +0.000 A 
ATOM      8  C   UNL     1       0.024  10.749  20.995  0.00  0.00    +0.000 A 
ATOM      9  C   UNL     1       0.616  10.480  19.776  0.00  0.00    +0.000 A 
ATOM     10  N   UNL     1       1.254   9.337  19.457  0.00  0.00    +0.000 NA
ATOM     11  C   UNL     1       2.695   6.805  18.957  0.00  0.00    +0.000 C 
BRANCH   8  12
ATOM     12  C   UNL     1      -0.721  12.024  21.278  0.00  0.00    +0.000 C 
ATOM     13  C   UNL     1      -0.953  12.505  22.689  0.00  0.00    +0.000 C 
ATOM     14  C   UNL     1       0.036  13.218  21.818  0.00  0.00    +0.000 C 
ENDBRANCH   8  12
ENDBRANCH   1   2
BRANCH   1  18
ATOM     15  C   UNL     1       5.820   4.144  15.870  0.00  0.00    +0.000 A 
ATOM     16  C   UNL     1       4.584   3.548  16.164  0.00  0.00    +0.000 A 
ATOM     17  C   UNL     1       3.991   3.724  17.420  0.00  0.00    +0.000 A 
ATOM     18  C   UNL     1       4.627   4.495  18.392  0.00  0.00    +0.000 A 
ATOM     19  C   UNL     1       5.854   5.087  18.109  0.00  0.00    +0.000 A 
ATOM     20  C   UNL     1       6.451   4.904  16.864  0.00  0.00    +0.000 A 
BRANCH  15  21
ATOM     21  C   UNL     1       6.437   4.011  14.488  0.00  0.00    +0.000 C 
ATOM     22  C   UNL     1       7.356   5.195  14.176  0.00  0.00    +0.000 C 
BRANCH  21  26
ATOM     23  C   UNL     1       4.312   3.331  11.424  0.00  0.00    +0.000 C 
ATOM     24  C   UNL     1       5.561   3.325  12.265  0.00  0.00    +0.000 C 
ATOM     25  O   UNL     1       6.620   2.844  11.881  0.00  0.00    +0.000 OA
ATOM     26  N   UNL     1       5.376   3.895  13.498  0.00  0.00    +0.000 N 
ATOM     27  H   UNL     1       4.463   4.263  13.729  0.00  0.00    +0.000 HD
ENDBRANCH  21  26
ENDBRANCH  15  21
ENDBRANCH   1  18
TORSDOF 5
ENDMDL
MODEL 3
REMARK VINA RESULT:      -7.4      2.117      3.386
REMARK  Name = 
REMARK  7 active torsions:
REMARK  status: ('A' for Active; 'I' for Inactive)
REMARK    1  A    between atoms: C_1  and  C_2
REMARK    2  A    between atoms: N_4  and  C_5
REMARK    3  A    between atoms: C_5  and  C_6
REMARK    4  A    between atoms: C_5  and  C_7
REMARK    5  A    between atoms: C_10  and  O_11
REMARK    6  A    between atoms: O_11  and  C_12
REMARK    7  A    between atoms: C_18  and  C_19
REMARK                            x       y       z     vdW  Elec       q    Type
REMARK                         _______ _______ _______ _____ _____    ______ ____
ROOT
ATOM      1  O   UNL     1       2.023   7.395  18.119  0.00  0.00    +0.000 OA
ENDROOT
BRANCH   1   2
ATOM      2  C   UNL     1       2.075   8.533  19.016  0.00  0.00    +0.000 C 
ATOM      3  C   UNL     1       1.090   9.704  18.795  0.00  0.00    +0.000 C 
ATOM      4  N   UNL     1       0.777   9.624  20.167  0.00  0.00    +0.000 N 
ATOM      5  C   UNL     1      -0.083  10.368  20.957  0.00  0.00    +0.000 A 
ATOM      6  N   UNL     1      -0.710  11.430  20.423  0.00  0.00    +0.000 NA
ATOM      7  C   UNL     1      -1.480  12.172  21.254  0.00  0.00    +0.000 A 
ATOM      8  C   UNL     1      -1.655  11.927  22.601  0.00  0.00    +0.000 A 
ATOM      9  C   UNL     1      -0.963  10.810  23.029  0.00  0.00    +0.000 A 
ATOM     10  N   UNL     1      -0.200  10.021  22.246  0.00  0.00    +0.000 NA
ATOM     11  C   UNL     1       1.357   8.349  20.372  0.00  0.00    +0.000 C 
BRANCH   8  12
ATOM     12  C   UNL     1      -2.450  12.801  23.530  0.00  0.00    +0.000 C 
ATOM     13  C   UNL     1      -3.620  13.617  23.038  0.00  0.00    +0.000 C 
ATOM     14  C   UNL     1      -3.867  12.405  23.886  0.00  0.00    +0.000 C 
ENDBRANCH   8  12
ENDBRANCH   1   2
BRANCH   1  18
ATOM     15  C   UNL     1       5.531   5.349  17.118  0.00  0.00    +0.000 A 
ATOM     16  C   UNL     1       4.493   4.723  17.826  0.00  0.00    +0.000 A 
ATOM     17  C   UNL     1       3.338   5.436  18.173  0.00  0.00    +0.000 A 
ATOM     18  C   UNL     1       3.212   6.778  17.817  0.00  0.00    +0.000 A 
ATOM     19  C   UNL     1       4.238   7.407  17.118  0.00  0.00    +0.000 A 
ATOM     20  C   UNL     1       5.392   6.703  16.782  0.00  0.00    +0.000 A 
BRANCH  15  21
ATOM     21  C   UNL     1       6.756   4.565  16.682  0.00  0.00    +0.000 C 
ATOM     22  C   UNL     1       7.816   4.532  17.786  0.00  0.00    +0.000 C 
BRANCH  21  26
ATOM     23  C   UNL     1       7.693   5.432  13.112  0.00  0.00    +0.000 C 
ATOM     24  C   UNL     1       7.019   4.653  14.211  0.00  0.00    +0.000 C 
ATOM     25  O   UNL     1       6.295   3.689  13.996  0.00  0.00    +0.000 OA
ATOM     26  N   UNL     1       7.289   5.150  15.460  0.00  0.00    +0.000 N 
ATOM     27  H   UNL     1       7.896   5.955  15.539  0.00  0.00    +0.000 HD
ENDBRANCH  21  26
ENDBRANCH  15  21
ENDBRANCH   1  18
TORSDOF 5
ENDMDL
MODEL 4
REMARK VINA RESULT:      -7.3      1.068      1.143
REMARK  Name = 
REMARK  7 active torsions:
REMARK  status: ('A' for Active; 'I' for Inactive)
REMARK    1  A    between atoms: C_1  and  C_2
REMARK    2  A    between atoms: N_4  and  C_5
REMARK    3  A    between atoms: C_5  and  C_6
REMARK    4  A    between atoms: C_5  and  C_7
REMARK    5  A    between atoms: C_10  and  O_11
REMARK    6  A    between atoms: O_11  and  C_12
REMARK    7  A    between atoms: C_18  and  C_19
REMARK                            x       y       z     vdW  Elec       q    Type
REMARK                         _______ _______ _______ _____ _____    ______ ____
ROOT
ATOM      1  O   UNL     1       4.310   6.388  18.348  0.00  0.00    +0.000 OA
ENDROOT
BRANCH   1   2
ATOM      2  C   UNL     1       2.918   6.794  18.340  0.00  0.00    +0.000 C 
ATOM      3  C   UNL     1       2.245   7.184  19.676  0.00  0.00    +0.000 C 
ATOM      4  N   UNL     1       1.783   8.352  19.037  0.00  0.00    +0.000 N 
ATOM      5  C   UNL     1       1.001   9.399  19.493  0.00  0.00    +0.000 A 
ATOM      6  N   UNL     1       0.474   9.335  20.728  0.00  0.00    +0.000 NA
ATOM      7  C   UNL     1      -0.347  10.345  21.101  0.00  0.00    +0.000 A 
ATOM      8  C   UNL     1      -0.690  11.421  20.306  0.00  0.00    +0.000 A 
ATOM      9  C   UNL     1      -0.084  11.375  19.065  0.00  0.00    +0.000 A 
ATOM     10  N   UNL     1       0.757  10.408  18.646  0.00  0.00    +0.000 NA
ATOM     11  C   UNL     1       2.651   8.258  17.923  0.00  0.00    +0.000 C 
BRANCH   8  12
ATOM     12  C   UNL     1      -1.661  12.497  20.701  0.00  0.00    +0.000 C 
ATOM     13  C   UNL     1      -1.914  12.840  22.149  0.00  0.00    +0.000 C 
ATOM     14  C   UNL     1      -1.135  13.789  21.289  0.00  0.00    +0.000 C 
ENDBRANCH   8  12
ENDBRANCH   1   2
BRANCH   1  18
ATOM     15  C   UNL     1       5.652   4.531  14.849  0.00  0.00    +0.000 A 
ATOM     16  C   UNL     1       5.290   3.786  15.983  0.00  0.00    +0.000 A 
ATOM     17  C   UNL     1       4.869   4.432  17.152  0.00  0.00    +0.000 A 
ATOM     18  C   UNL     1       4.807   5.823  17.199  0.00  0.00    +0.000 A 
ATOM     19  C   UNL     1       5.167   6.569  16.081  0.00  0.00    +0.000 A 
ATOM     20  C   UNL     1       5.597   5.930  14.920  0.00  0.00    +0.000 A 
BRANCH  15  21
ATOM     21  C   UNL     1       6.046   3.837  13.557  0.00  0.00    +0.000 C 
ATOM     22  C   UNL     1       7.287   4.485  12.937  0.00  0.00    +0.000 C 
BRANCH  21  26
ATOM     23  C   UNL     1       3.488   3.174  10.840  0.00  0.00    +0.000 C 
ATOM     24  C   UNL     1       4.719   2.914  11.669  0.00  0.00    +0.000 C 
ATOM     25  O   UNL     1       5.443   1.942  11.498  0.00  0.00    +0.000 OA
ATOM     26  N   UNL     1       4.921   3.867  12.634  0.00  0.00    +0.000 N 
ATOM     27  H   UNL     1       4.265   4.633  12.703  0.00  0.00    +0.000 HD
ENDBRANCH  21  26
ENDBRANCH  15  21
ENDBRANCH   1  18
TORSDOF 5
ENDMDL
MODEL 5
REMARK VINA RESULT:      -7.2      4.184      6.568
REMARK  Name = 
REMARK  7 active torsions:
REMARK  status: ('A' for Active; 'I' for Inactive)
REMARK    1  A    between atoms: C_1  and  C_2
REMARK    2  A    between atoms: N_4  and  C_5
REMARK    3  A    between atoms: C_5  and  C_6
REMARK    4  A    between atoms: C_5  and  C_7
REMARK    5  A    between atoms: C_10  and  O_11
REMARK    6  A    between atoms: O_11  and  C_12
REMARK    7  A    between atoms: C_18  and  C_19
REMARK                            x       y       z     vdW  Elec       q    Type
REMARK                         _______ _______ _______ _____ _____    ______ ____
ROOT
ATOM      1  O   UNL     1       0.601   9.558  20.250  0.00  0.00    +0.000 OA
ENDROOT
BRANCH   1   2
ATOM      2  C   UNL     1      -0.070  10.579  19.468  0.00  0.00    +0.000 C 
ATOM      3  C   UNL     1      -1.068  10.145  18.370  0.00  0.00    +0.000 C 
ATOM      4  N   UNL     1      -1.985  11.063  18.919  0.00  0.00    +0.000 N 
ATOM      5  C   UNL     1      -3.271  11.411  18.544  0.00  0.00    +0.000 A 
ATOM      6  N   UNL     1      -3.789  10.890  17.418  0.00  0.00    +0.000 NA
ATOM      7  C   UNL     1      -5.020  11.319  17.051  0.00  0.00    +0.000 A 
ATOM      8  C   UNL     1      -5.770  12.253  17.737  0.00  0.00    +0.000 A 
ATOM      9  C   UNL     1      -5.133  12.709  18.875  0.00  0.00    +0.000 A 
ATOM     10  N   UNL     1      -3.920  12.305  19.302  0.00  0.00    +0.000 NA
ATOM     11  C   UNL     1      -1.293  11.241  20.142  0.00  0.00    +0.000 C 
BRANCH   8  12
ATOM     12  C   UNL     1      -7.102  12.779  17.281  0.00  0.00    +0.000 C 
ATOM     13  C   UNL     1      -7.797  13.904  18.008  0.00  0.00    +0.000 C 
ATOM     14  C   UNL     1      -7.181  14.160  16.666  0.00  0.00    +0.000 C 
ENDBRANCH   8  12
ENDBRANCH   1   2
BRANCH   1  18
ATOM     15  C   UNL     1       3.142   6.887  18.275  0.00  0.00    +0.000 A 
ATOM     16  C   UNL     1       2.649   6.617  19.561  0.00  0.00    +0.000 A 
ATOM     17  C   UNL     1       1.821   7.539  20.213  0.00  0.00    +0.000 A 
ATOM     18  C   UNL     1       1.479   8.736  19.588  0.00  0.00    +0.000 A 
ATOM     19  C   UNL     1       1.965   9.014  18.314  0.00  0.00    +0.000 A 
ATOM     20  C   UNL     1       2.799   8.103  17.667  0.00  0.00    +0.000 A 
BRANCH  15  21
ATOM     21  C   UNL     1       3.986   5.864  17.535  0.00  0.00    +0.000 C 
ATOM     22  C   UNL     1       3.297   4.498  17.499  0.00  0.00    +0.000 C 
BRANCH  21  26
ATOM     23  C   UNL     1       7.631   6.182  18.524  0.00  0.00    +0.000 C 
ATOM     24  C   UNL     1       6.398   6.443  17.700  0.00  0.00    +0.000 C 
ATOM     25  O   UNL     1       6.394   7.186  16.727  0.00  0.00    +0.000 OA
ATOM     26  N   UNL     1       5.295   5.776  18.167  0.00  0.00    +0.000 N 
ATOM     27  H   UNL     1       5.394   5.186  18.982  0.00  0.00    +0.000 HD
ENDBRANCH  21  26
ENDBRANCH  15  21
ENDBRANCH   1  18
TORSDOF 5
ENDMDL
MODEL 6
REMARK VINA RESULT:      -7.2      4.116      6.505
REMARK  Name = 
REMARK  7 active torsions:
REMARK  status: ('A' for Active; 'I' for Inactive)
REMARK    1  A    between atoms: C_1  and  C_2
REMARK    2  A    between atoms: N_4  and  C_5
REMARK    3  A    between atoms: C_5  and  C_6
REMARK    4  A    between atoms: C_5  and  C_7
REMARK    5  A    between atoms: C_10  and  O_11
REMARK    6  A    between atoms: O_11  and  C_12
REMARK    7  A    between atoms: C_18  and  C_19
REMARK                            x       y       z     vdW  Elec       q    Type
REMARK                         _______ _______ _______ _____ _____    ______ ____
ROOT
ATOM      1  O   UNL     1       0.804   9.910  20.403  0.00  0.00    +0.000 OA
ENDROOT
BRANCH   1   2
ATOM      2  C   UNL     1       0.064  10.871  19.608  0.00  0.00    +0.000 C 
ATOM      3  C   UNL     1      -0.925  10.353  18.538  0.00  0.00    +0.000 C 
ATOM      4  N   UNL     1      -1.884  11.232  19.081  0.00  0.00    +0.000 N 
ATOM      5  C   UNL     1      -3.194  11.496  18.721  0.00  0.00    +0.000 A 
ATOM      6  N   UNL     1      -3.699  10.919  17.617  0.00  0.00    +0.000 NA
ATOM      7  C   UNL     1      -4.958  11.268  17.261  0.00  0.00    +0.000 A 
ATOM      8  C   UNL     1      -5.750  12.175  17.937  0.00  0.00    +0.000 A 
ATOM      9  C   UNL     1      -5.121  12.695  19.053  0.00  0.00    +0.000 A 
ATOM     10  N   UNL     1      -3.880  12.371  19.468  0.00  0.00    +0.000 NA
ATOM     11  C   UNL     1      -1.184  11.479  20.287  0.00  0.00    +0.000 C 
BRANCH   8  12
ATOM     12  C   UNL     1      -7.116  12.613  17.492  0.00  0.00    +0.000 C 
ATOM     13  C   UNL     1      -7.878  13.690  18.224  0.00  0.00    +0.000 C 
ATOM     14  C   UNL     1      -7.290  13.986  16.878  0.00  0.00    +0.000 C 
ENDBRANCH   8  12
ENDBRANCH   1   2
BRANCH   1  18
ATOM     15  C   UNL     1       2.889   6.958  18.297  0.00  0.00    +0.000 A 
ATOM     16  C   UNL     1       2.599   8.204  17.720  0.00  0.00    +0.000 A 
ATOM     17  C   UNL     1       1.877   9.168  18.436  0.00  0.00    +0.000 A 
ATOM     18  C   UNL     1       1.437   8.894  19.730  0.00  0.00    +0.000 A 
ATOM     19  C   UNL     1       1.718   7.659  20.308  0.00  0.00    +0.000 A 
ATOM     20  C   UNL     1       2.427   6.696  19.594  0.00  0.00    +0.000 A 
BRANCH  15  21
ATOM     21  C   UNL     1       3.729   5.934  17.553  0.00  0.00    +0.000 C 
ATOM     22  C   UNL     1       3.332   4.507  17.939  0.00  0.00    +0.000 C 
BRANCH  21  26
ATOM     23  C   UNL     1       7.424   6.762  17.396  0.00  0.00    +0.000 C 
ATOM     24  C   UNL     1       6.027   6.581  16.863  0.00  0.00    +0.000 C 
ATOM     25  O   UNL     1       5.730   6.791  15.694  0.00  0.00    +0.000 OA
ATOM     26  N   UNL     1       5.137   6.180  17.825  0.00  0.00    +0.000 N 
ATOM     27  H   UNL     1       5.475   6.036  18.768  0.00  0.00    +0.000 HD
ENDBRANCH  21  26
ENDBRANCH  15  21
ENDBRANCH   1  18
TORSDOF 5
ENDMDL
MODEL 7
REMARK VINA RESULT:      -7.2      3.285     11.083
REMARK  Name = 
REMARK  7 active torsions:
REMARK  status: ('A' for Active; 'I' for Inactive)
REMARK    1  A    between atoms: C_1  and  C_2
REMARK    2  A    between atoms: N_4  and  C_5
REMARK    3  A    between atoms: C_5  and  C_6
REMARK    4  A    between atoms: C_5  and  C_7
REMARK    5  A    between atoms: C_10  and  O_11
REMARK    6  A    between atoms: O_11  and  C_12
REMARK    7  A    between atoms: C_18  and  C_19
REMARK                            x       y       z     vdW  Elec       q    Type
REMARK                         _______ _______ _______ _____ _____    ______ ____
ROOT
ATOM      1  O   UNL     1       1.364   7.886  21.461  0.00  0.00    +0.000 OA
ENDROOT
BRANCH   1   2
ATOM      2  C   UNL     1       1.368   7.259  20.154  0.00  0.00    +0.000 C 
ATOM      3  C   UNL     1       2.363   7.764  19.085  0.00  0.00    +0.000 C 
ATOM      4  N   UNL     1       2.729   6.419  18.872  0.00  0.00    +0.000 N 
ATOM      5  C   UNL     1       3.632   5.842  17.996  0.00  0.00    +0.000 A 
ATOM      6  N   UNL     1       4.256   6.617  17.092  0.00  0.00    +0.000 NA
ATOM      7  C   UNL     1       5.071   5.996  16.207  0.00  0.00    +0.000 A 
ATOM      8  C   UNL     1       5.295   4.634  16.157  0.00  0.00    +0.000 A 
ATOM      9  C   UNL     1       4.601   3.949  17.136  0.00  0.00    +0.000 A 
ATOM     10  N   UNL     1       3.794   4.513  18.056  0.00  0.00    +0.000 NA
ATOM     11  C   UNL     1       2.135   5.921  20.056  0.00  0.00    +0.000 C 
BRANCH   8  12
ATOM     12  C   UNL     1       6.141   3.947  15.122  0.00  0.00    +0.000 C 
ATOM     13  C   UNL     1       5.743   3.922  13.667  0.00  0.00    +0.000 C 
ATOM     14  C   UNL     1       6.889   4.782  14.106  0.00  0.00    +0.000 C 
ENDBRANCH   8  12
ENDBRANCH   1   2
BRANCH   1  18
ATOM     15  C   UNL     1      -1.063  11.280  21.750  0.00  0.00    +0.000 A 
ATOM     16  C   UNL     1      -0.525  10.865  20.522  0.00  0.00    +0.000 A 
ATOM     17  C   UNL     1       0.307   9.740  20.455  0.00  0.00    +0.000 A 
ATOM     18  C   UNL     1       0.608   9.023  21.611  0.00  0.00    +0.000 A 
ATOM     19  C   UNL     1       0.081   9.429  22.833  0.00  0.00    +0.000 A 
ATOM     20  C   UNL     1      -0.737  10.554  22.905  0.00  0.00    +0.000 A 
BRANCH  15  21
ATOM     21  C   UNL     1      -2.018  12.459  21.822  0.00  0.00    +0.000 C 
ATOM     22  C   UNL     1      -1.288  13.779  21.564  0.00  0.00    +0.000 C 
BRANCH  21  26
ATOM     23  C   UNL     1      -4.466  12.478  24.716  0.00  0.00    +0.000 C 
ATOM     24  C   UNL     1      -4.037  12.464  23.272  0.00  0.00    +0.000 C 
ATOM     25  O   UNL     1      -4.833  12.437  22.342  0.00  0.00    +0.000 OA
ATOM     26  N   UNL     1      -2.675  12.466  23.121  0.00  0.00    +0.000 N 
ATOM     27  H   UNL     1      -2.096  12.484  23.950  0.00  0.00    +0.000 HD
ENDBRANCH  21  26
ENDBRANCH  15  21
ENDBRANCH   1  18
TORSDOF 5
ENDMDL
MODEL 8
REMARK VINA RESULT:      -7.1      2.761      4.980
REMARK  Name = 
REMARK  7 active torsions:
REMARK  status: ('A' for Active; 'I' for Inactive)
REMARK    1  A    between atoms: C_1  and  C_2
REMARK    2  A    between atoms: N_4  and  C_5
REMARK    3  A    between atoms: C_5  and  C_6
REMARK    4  A    between atoms: C_5  and  C_7
REMARK    5  A    between atoms: C_10  and  O_11
REMARK    6  A    between atoms: O_11  and  C_12
REMARK    7  A    between atoms: C_18  and  C_19
REMARK                            x       y       z     vdW  Elec       q    Type
REMARK                         _______ _______ _______ _____ _____    ______ ____
ROOT
ATOM      1  O   UNL     1       1.467   7.467  21.397  0.00  0.00    +0.000 OA
ENDROOT
BRANCH   1   2
ATOM      2  C   UNL     1       0.556   8.534  21.030  0.00  0.00    +0.000 C 
ATOM      3  C   UNL     1      -0.591   8.905  21.998  0.00  0.00    +0.000 C 
ATOM      4  N   UNL     1      -0.193  10.250  21.864  0.00  0.00    +0.000 N 
ATOM      5  C   UNL     1      -0.704  11.416  22.407  0.00  0.00    +0.000 A 
ATOM      6  N   UNL     1      -1.830  11.360  23.139  0.00  0.00    +0.000 NA
ATOM      7  C   UNL     1      -2.334  12.535  23.584  0.00  0.00    +0.000 A 
ATOM      8  C   UNL     1      -1.787  13.778  23.332  0.00  0.00    +0.000 A 
ATOM      9  C   UNL     1      -0.633  13.703  22.575  0.00  0.00    +0.000 A 
ATOM     10  N   UNL     1      -0.073  12.564  22.122  0.00  0.00    +0.000 NA
ATOM     11  C   UNL     1       1.070   9.969  21.288  0.00  0.00    +0.000 C 
BRANCH   8  12
ATOM     12  C   UNL     1      -2.396  15.081  23.766  0.00  0.00    +0.000 C 
ATOM     13  C   UNL     1      -3.536  15.130  24.753  0.00  0.00    +0.000 C 
ATOM     14  C   UNL     1      -2.168  15.569  25.181  0.00  0.00    +0.000 C 
ENDBRANCH   8  12
ENDBRANCH   1   2
BRANCH   1  18
ATOM     15  C   UNL     1       2.803   4.903  18.375  0.00  0.00    +0.000 A 
ATOM     16  C   UNL     1       2.938   6.295  18.268  0.00  0.00    +0.000 A 
ATOM     17  C   UNL     1       2.459   7.135  19.281  0.00  0.00    +0.000 A 
ATOM     18  C   UNL     1       1.842   6.592  20.406  0.00  0.00    +0.000 A 
ATOM     19  C   UNL     1       1.700   5.213  20.518  0.00  0.00    +0.000 A 
ATOM     20  C   UNL     1       2.166   4.375  19.507  0.00  0.00    +0.000 A 
BRANCH  15  21
ATOM     21  C   UNL     1       3.378   3.982  17.312  0.00  0.00    +0.000 C 
ATOM     22  C   UNL     1       2.962   2.529  17.553  0.00  0.00    +0.000 C 
BRANCH  21  26
ATOM     23  C   UNL     1       7.029   4.415  16.391  0.00  0.00    +0.000 C 
ATOM     24  C   UNL     1       5.547   4.312  16.143  0.00  0.00    +0.000 C 
ATOM     25  O   UNL     1       5.051   4.409  15.028  0.00  0.00    +0.000 OA
ATOM     26  N   UNL     1       4.827   4.118  17.294  0.00  0.00    +0.000 N 
ATOM     27  H   UNL     1       5.325   4.055  18.172  0.00  0.00    +0.000 HD
ENDBRANCH  21  26
ENDBRANCH  15  21
ENDBRANCH   1  18
TORSDOF 5
ENDMDL
MODEL 9
REMARK VINA RESULT:      -7.1      3.973     11.559
REMARK  Name = 
REMARK  7 active torsions:
REMARK  status: ('A' for Active; 'I' for Inactive)
REMARK    1  A    between atoms: C_1  and  C_2
REMARK    2  A    between atoms: N_4  and  C_5
REMARK    3  A    between atoms: C_5  and  C_6
REMARK    4  A    between atoms: C_5  and  C_7
REMARK    5  A    between atoms: C_10  and  O_11
REMARK    6  A    between atoms: O_11  and  C_12
REMARK    7  A    between atoms: C_18  and  C_19
REMARK                            x       y       z     vdW  Elec       q    Type
REMARK                         _______ _______ _______ _____ _____    ______ ____
ROOT
ATOM      1  O   UNL     1       0.673  10.450  21.290  0.00  0.00    +0.000 OA
ENDROOT
BRANCH   1   2
ATOM      2  C   UNL     1       0.626   9.311  20.394  0.00  0.00    +0.000 C 
ATOM      3  C   UNL     1       1.526   9.312  19.137  0.00  0.00    +0.000 C 
ATOM      4  N   UNL     1       1.945   8.018  19.506  0.00  0.00    +0.000 N 
ATOM      5  C   UNL     1       2.820   7.130  18.904  0.00  0.00    +0.000 A 
ATOM      6  N   UNL     1       3.347   7.439  17.706  0.00  0.00    +0.000 NA
ATOM      7  C   UNL     1       4.135   6.507  17.121  0.00  0.00    +0.000 A 
ATOM      8  C   UNL     1       4.424   5.266  17.655  0.00  0.00    +0.000 A 
ATOM      9  C   UNL     1       3.828   5.069  18.886  0.00  0.00    +0.000 A 
ATOM     10  N   UNL     1       3.053   5.967  19.527  0.00  0.00    +0.000 NA
ATOM     11  C   UNL     1       1.453   8.081  20.832  0.00  0.00    +0.000 C 
BRANCH   8  12
ATOM     12  C   UNL     1       5.238   4.209  16.963  0.00  0.00    +0.000 C 
ATOM     13  C   UNL     1       5.722   4.388  15.545  0.00  0.00    +0.000 C 
ATOM     14  C   UNL     1       6.701   4.471  16.677  0.00  0.00    +0.000 C 
ENDBRANCH   8  12
ENDBRANCH   1   2
BRANCH   1  18
ATOM     15  C   UNL     1      -2.860  12.418  22.358  0.00  0.00    +0.000 A 
ATOM     16  C   UNL     1      -2.146  11.640  23.282  0.00  0.00    +0.000 A 
ATOM     17  C   UNL     1      -0.979  10.968  22.894  0.00  0.00    +0.000 A 
ATOM     18  C   UNL     1      -0.518  11.068  21.583  0.00  0.00    +0.000 A 
ATOM     19  C   UNL     1      -1.222  11.835  20.660  0.00  0.00    +0.000 A 
ATOM     20  C   UNL     1      -2.389  12.495  21.040  0.00  0.00    +0.000 A 
BRANCH  15  21
ATOM     21  C   UNL     1      -4.088  13.202  22.787  0.00  0.00    +0.000 C 
ATOM     22  C   UNL     1      -4.053  13.510  24.286  0.00  0.00    +0.000 C 
BRANCH  21  26
ATOM     23  C   UNL     1      -7.284  11.870  21.244  0.00  0.00    +0.000 C 
ATOM     24  C   UNL     1      -6.114  12.805  21.402  0.00  0.00    +0.000 C 
ATOM     25  O   UNL     1      -5.928  13.767  20.668  0.00  0.00    +0.000 OA
ATOM     26  N   UNL     1      -5.284  12.450  22.434  0.00  0.00    +0.000 N 
ATOM     27  H   UNL     1      -5.517  11.634  22.984  0.00  0.00    +0.000 HD
ENDBRANCH  21  26
ENDBRANCH  15  21
ENDBRANCH   1  18
TORSDOF 5
ENDMDL
