MODEL 1
REMARK VINA RESULT:      -6.7      0.000      0.000
REMARK  Name = 
REMARK  6 active torsions:
REMARK  status: ('A' for Active; 'I' for Inactive)
REMARK    1  A    between atoms: C_1  and  C_2
REMARK    2  A    between atoms: C_2  and  C_3
REMARK    3  A    between atoms: C_3  and  C_6
REMARK    4  A    between atoms: N_4  and  O_5
REMARK    5  A    between atoms: C_6  and  C_7
REMARK    6  A    between atoms: C_8  and  C_9
REMARK                            x       y       z     vdW  Elec       q    Type
REMARK                         _______ _______ _______ _____ _____    ______ ____
ROOT
ATOM      1  C   UNL     1       5.187   4.951  16.198  0.00  0.00    +0.000 C 
ATOM      2  C   UNL     1       4.759   6.312  16.659  0.00  0.00    +0.000 C 
ATOM      3  C   UNL     1       4.677   3.803  16.695  0.00  0.00    +0.000 C 
ENDROOT
BRANCH   3   4
ATOM      4  C   UNL     1       3.652   3.740  17.739  0.00  0.00    +0.000 A 
ATOM      5  C   UNL     1       4.023   3.691  19.087  0.00  0.00    +0.000 A 
ATOM      6  C   UNL     1       3.042   3.620  20.080  0.00  0.00    +0.000 A 
ATOM      7  C   UNL     1       1.701   3.599  19.719  0.00  0.00    +0.000 A 
ATOM      8  F   UNL     1       0.763   3.525  20.674  0.00  0.00    +0.000 F 
ATOM      9  C   UNL     1       1.316   3.652  18.385  0.00  0.00    +0.000 A 
ATOM     10  C   UNL     1       2.293   3.723  17.390  0.00  0.00    +0.000 A 
ENDBRANCH   3   4
BRANCH   1  11
ATOM     11  C   UNL     1       6.278   4.814  15.156  0.00  0.00    +0.000 C 
ATOM     12  N   UNL     1       7.241   5.700  15.150  0.00  0.00    +0.000 NA
BRANCH  11  14
ATOM     13  C   UNL     1       5.223   3.924  13.008  0.00  0.00    +0.000 C 
ATOM     14  C   UNL     1       6.193   3.662  14.147  0.00  0.00    +0.000 C 
ENDBRANCH  11  14
BRANCH  12  15
ATOM     15  O   UNL     1       8.182   5.480  14.144  0.00  0.00    +0.000 OA
ATOM     16  H   UNL     1       8.162   4.509  14.049  0.00  0.00    +0.000 HD
ENDBRANCH  12  15
ENDBRANCH   1  11
TORSDOF 4
ENDMDL
MODEL 2
REMARK VINA RESULT:      -6.7      0.151      1.258
REMARK  Name = 
REMARK  6 active torsions:
REMARK  status: ('A' for Active; 'I' for Inactive)
REMARK    1  A    between atoms: C_1  and  C_2
REMARK    2  A    between atoms: C_2  and  C_3
REMARK    3  A    between atoms: C_3  and  C_6
REMARK    4  A    between atoms: N_4  and  O_5
REMARK    5  A    between atoms: C_6  and  C_7
REMARK    6  A    between atoms: C_8  and  C_9
REMARK                            x       y       z     vdW  Elec       q    Type
REMARK                         _______ _______ _______ _____ _____    ______ ____
ROOT
ATOM      1  C   UNL     1       5.199   5.021  16.175  0.00  0.00    +0.000 C 
ATOM      2  C   UNL     1       4.785   6.397  16.604  0.00  0.00    +0.000 C 
ATOM      3  C   UNL     1       4.670   3.890  16.690  0.00  0.00    +0.000 C 
ENDROOT
BRANCH   3   4
ATOM      4  C   UNL     1       3.637   3.861  17.728  0.00  0.00    +0.000 A 
ATOM      5  C   UNL     1       2.286   3.773  17.373  0.00  0.00    +0.000 A 
ATOM      6  C   UNL     1       1.303   3.756  18.366  0.00  0.00    +0.000 A 
ATOM      7  C   UNL     1       1.676   3.827  19.703  0.00  0.00    +0.000 A 
ATOM      8  F   UNL     1       0.730   3.817  20.652  0.00  0.00    +0.000 F 
ATOM      9  C   UNL     1       3.013   3.911  20.071  0.00  0.00    +0.000 A 
ATOM     10  C   UNL     1       3.998   3.927  19.082  0.00  0.00    +0.000 A 
ENDBRANCH   3   4
BRANCH   1  11
ATOM     11  C   UNL     1       6.295   4.849  15.143  0.00  0.00    +0.000 C 
ATOM     12  N   UNL     1       7.262   5.729  15.117  0.00  0.00    +0.000 NA
BRANCH  11  14
ATOM     13  C   UNL     1       5.250   3.903  13.013  0.00  0.00    +0.000 C 
ATOM     14  C   UNL     1       6.210   3.669  14.167  0.00  0.00    +0.000 C 
ENDBRANCH  11  14
BRANCH  12  15
ATOM     15  O   UNL     1       8.208   5.477  14.123  0.00  0.00    +0.000 OA
ATOM     16  H   UNL     1       9.013   5.296  14.644  0.00  0.00    +0.000 HD
ENDBRANCH  12  15
ENDBRANCH   1  11
TORSDOF 4
ENDMDL
MODEL 3
REMARK VINA RESULT:      -6.6      4.351      6.335
REMARK  Name = 
REMARK  6 active torsions:
REMARK  status: ('A' for Active; 'I' for Inactive)
REMARK    1  A    between atoms: C_1  and  C_2
REMARK    2  A    between atoms: C_2  and  C_3
REMARK    3  A    between atoms: C_3  and  C_6
REMARK    4  A    between atoms: N_4  and  O_5
REMARK    5  A    between atoms: C_6  and  C_7
REMARK    6  A    between atoms: C_8  and  C_9
REMARK                            x       y       z     vdW  Elec       q    Type
REMARK                         _______ _______ _______ _____ _____    ______ ____
ROOT
ATOM      1  C   UNL     1       2.702   4.565  19.075  0.00  0.00    +0.000 C 
ATOM      2  C   UNL     1       2.566   5.875  19.791  0.00  0.00    +0.000 C 
ATOM      3  C   UNL     1       3.751   4.256  18.282  0.00  0.00    +0.000 C 
ENDROOT
BRANCH   3   4
ATOM      4  C   UNL     1       4.878   5.154  18.019  0.00  0.00    +0.000 A 
ATOM      5  C   UNL     1       4.809   6.080  16.971  0.00  0.00    +0.000 A 
ATOM      6  C   UNL     1       5.890   6.929  16.716  0.00  0.00    +0.000 A 
ATOM      7  C   UNL     1       7.029   6.845  17.508  0.00  0.00    +0.000 A 
ATOM      8  F   UNL     1       8.066   7.656  17.257  0.00  0.00    +0.000 F 
ATOM      9  C   UNL     1       7.111   5.934  18.554  0.00  0.00    +0.000 A 
ATOM     10  C   UNL     1       6.033   5.086  18.812  0.00  0.00    +0.000 A 
ENDBRANCH   3   4
BRANCH   1  11
ATOM     11  C   UNL     1       1.607   3.524  19.187  0.00  0.00    +0.000 C 
ATOM     12  N   UNL     1       1.332   2.801  18.132  0.00  0.00    +0.000 NA
BRANCH  11  14
ATOM     13  C   UNL     1       1.659   2.658  21.589  0.00  0.00    +0.000 C 
ATOM     14  C   UNL     1       0.859   3.381  20.519  0.00  0.00    +0.000 C 
ENDBRANCH  11  14
BRANCH  12  15
ATOM     15  O   UNL     1       0.303   1.884  18.348  0.00  0.00    +0.000 OA
ATOM     16  H   UNL     1      -0.004   1.699  17.441  0.00  0.00    +0.000 HD
ENDBRANCH  12  15
ENDBRANCH   1  11
TORSDOF 4
ENDMDL
MODEL 4
REMARK VINA RESULT:      -6.5      4.376      6.209
REMARK  Name = 
REMARK  6 active torsions:
REMARK  status: ('A' for Active; 'I' for Inactive)
REMARK    1  A    between atoms: C_1  and  C_2
REMARK    2  A    between atoms: C_2  and  C_3
REMARK    3  A    between atoms: C_3  and  C_6
REMARK    4  A    between atoms: N_4  and  O_5
REMARK    5  A    between atoms: C_6  and  C_7
REMARK    6  A    between atoms: C_8  and  C_9
REMARK                            x       y       z     vdW  Elec       q    Type
REMARK                         _______ _______ _______ _____ _____    ______ ____
ROOT
ATOM      1  C   UNL     1       2.692   4.645  19.014  0.00  0.00    +0.000 C 
ATOM      2  C   UNL     1       2.408   6.060  19.424  0.00  0.00    +0.000 C 
ATOM      3  C   UNL     1       3.863   4.251  18.467  0.00  0.00    +0.000 C 
ENDROOT
BRANCH   3   4
ATOM      4  C   UNL     1       4.992   5.144  18.203  0.00  0.00    +0.000 A 
ATOM      5  C   UNL     1       6.136   5.089  19.008  0.00  0.00    +0.000 A 
ATOM      6  C   UNL     1       7.208   5.951  18.759  0.00  0.00    +0.000 A 
ATOM      7  C   UNL     1       7.129   6.859  17.710  0.00  0.00    +0.000 A 
ATOM      8  F   UNL     1       8.156   7.688  17.478  0.00  0.00    +0.000 F 
ATOM      9  C   UNL     1       6.002   6.923  16.900  0.00  0.00    +0.000 A 
ATOM     10  C   UNL     1       4.930   6.063  17.145  0.00  0.00    +0.000 A 
ENDBRANCH   3   4
BRANCH   1  11
ATOM     11  C   UNL     1       1.621   3.584  19.165  0.00  0.00    +0.000 C 
ATOM     12  N   UNL     1       1.303   2.876  18.113  0.00  0.00    +0.000 NA
BRANCH  11  14
ATOM     13  C   UNL     1       1.876   2.845  21.596  0.00  0.00    +0.000 C 
ATOM     14  C   UNL     1       0.948   3.405  20.531  0.00  0.00    +0.000 C 
ENDBRANCH  11  14
BRANCH  12  15
ATOM     15  O   UNL     1       0.301   1.937  18.366  0.00  0.00    +0.000 OA
ATOM     16  H   UNL     1       0.261   1.445  17.524  0.00  0.00    +0.000 HD
ENDBRANCH  12  15
ENDBRANCH   1  11
TORSDOF 4
ENDMDL
MODEL 5
REMARK VINA RESULT:      -6.5      1.600      2.546
REMARK  Name = 
REMARK  6 active torsions:
REMARK  status: ('A' for Active; 'I' for Inactive)
REMARK    1  A    between atoms: C_1  and  C_2
REMARK    2  A    between atoms: C_2  and  C_3
REMARK    3  A    between atoms: C_3  and  C_6
REMARK    4  A    between atoms: N_4  and  O_5
REMARK    5  A    between atoms: C_6  and  C_7
REMARK    6  A    between atoms: C_8  and  C_9
REMARK                            x       y       z     vdW  Elec       q    Type
REMARK                         _______ _______ _______ _____ _____    ______ ____
ROOT
ATOM      1  C   UNL     1       5.050   5.740  17.161  0.00  0.00    +0.000 C 
ATOM      2  C   UNL     1       4.149   6.904  17.452  0.00  0.00    +0.000 C 
ATOM      3  C   UNL     1       4.767   4.471  17.527  0.00  0.00    +0.000 C 
ENDROOT
BRANCH   3   4
ATOM      4  C   UNL     1       3.559   4.072  18.252  0.00  0.00    +0.000 A 
ATOM      5  C   UNL     1       2.399   3.725  17.549  0.00  0.00    +0.000 A 
ATOM      6  C   UNL     1       1.245   3.354  18.244  0.00  0.00    +0.000 A 
ATOM      7  C   UNL     1       1.257   3.332  19.634  0.00  0.00    +0.000 A 
ATOM      8  F   UNL     1       0.147   2.982  20.297  0.00  0.00    +0.000 F 
ATOM      9  C   UNL     1       2.402   3.670  20.345  0.00  0.00    +0.000 A 
ATOM     10  C   UNL     1       3.557   4.040  19.654  0.00  0.00    +0.000 A 
ENDBRANCH   3   4
BRANCH   1  11
ATOM     11  C   UNL     1       6.374   5.966  16.461  0.00  0.00    +0.000 C 
ATOM     12  N   UNL     1       6.560   5.401  15.296  0.00  0.00    +0.000 NA
BRANCH  11  14
ATOM     13  C   UNL     1       7.745   6.379  18.575  0.00  0.00    +0.000 C 
ATOM     14  C   UNL     1       7.438   6.824  17.156  0.00  0.00    +0.000 C 
ENDBRANCH  11  14
BRANCH  12  15
ATOM     15  O   UNL     1       7.816   5.670  14.750  0.00  0.00    +0.000 OA
ATOM     16  H   UNL     1       7.804   6.642  14.672  0.00  0.00    +0.000 HD
ENDBRANCH  12  15
ENDBRANCH   1  11
TORSDOF 4
ENDMDL
MODEL 6
REMARK VINA RESULT:      -6.5      1.642      2.269
REMARK  Name = 
REMARK  6 active torsions:
REMARK  status: ('A' for Active; 'I' for Inactive)
REMARK    1  A    between atoms: C_1  and  C_2
REMARK    2  A    between atoms: C_2  and  C_3
REMARK    3  A    between atoms: C_3  and  C_6
REMARK    4  A    between atoms: N_4  and  O_5
REMARK    5  A    between atoms: C_6  and  C_7
REMARK    6  A    between atoms: C_8  and  C_9
REMARK                            x       y       z     vdW  Elec       q    Type
REMARK                         _______ _______ _______ _____ _____    ______ ____
ROOT
ATOM      1  C   UNL     1       5.040   5.800  17.178  0.00  0.00    +0.000 C 
ATOM      2  C   UNL     1       4.130   6.968  17.416  0.00  0.00    +0.000 C 
ATOM      3  C   UNL     1       4.757   4.542  17.582  0.00  0.00    +0.000 C 
ENDROOT
BRANCH   3   4
ATOM      4  C   UNL     1       3.539   4.162  18.302  0.00  0.00    +0.000 A 
ATOM      5  C   UNL     1       3.458   4.338  19.688  0.00  0.00    +0.000 A 
ATOM      6  C   UNL     1       2.298   3.964  20.373  0.00  0.00    +0.000 A 
ATOM      7  C   UNL     1       1.231   3.418  19.669  0.00  0.00    +0.000 A 
ATOM      8  F   UNL     1       0.123   3.055  20.330  0.00  0.00    +0.000 F 
ATOM      9  C   UNL     1       1.296   3.241  18.293  0.00  0.00    +0.000 A 
ATOM     10  C   UNL     1       2.452   3.614  17.605  0.00  0.00    +0.000 A 
ENDBRANCH   3   4
BRANCH   1  11
ATOM     11  C   UNL     1       6.373   6.008  16.490  0.00  0.00    +0.000 C 
ATOM     12  N   UNL     1       6.568   5.431  15.332  0.00  0.00    +0.000 NA
BRANCH  11  14
ATOM     13  C   UNL     1       7.774   6.388  18.591  0.00  0.00    +0.000 C 
ATOM     14  C   UNL     1       7.437   6.864  17.189  0.00  0.00    +0.000 C 
ENDBRANCH  11  14
BRANCH  12  15
ATOM     15  O   UNL     1       7.831   5.684  14.798  0.00  0.00    +0.000 OA
ATOM     16  H   UNL     1       7.721   6.576  14.418  0.00  0.00    +0.000 HD
ENDBRANCH  12  15
ENDBRANCH   1  11
TORSDOF 4
ENDMDL
MODEL 7
REMARK VINA RESULT:      -6.4      1.066      1.338
REMARK  Name = 
REMARK  6 active torsions:
REMARK  status: ('A' for Active; 'I' for Inactive)
REMARK    1  A    between atoms: C_1  and  C_2
REMARK    2  A    between atoms: C_2  and  C_3
REMARK    3  A    between atoms: C_3  and  C_6
REMARK    4  A    between atoms: N_4  and  O_5
REMARK    5  A    between atoms: C_6  and  C_7
REMARK    6  A    between atoms: C_8  and  C_9
REMARK                            x       y       z     vdW  Elec       q    Type
REMARK                         _______ _______ _______ _____ _____    ______ ____
ROOT
ATOM      1  C   UNL     1       5.548   4.553  16.552  0.00  0.00    +0.000 C 
ATOM      2  C   UNL     1       6.226   4.614  17.888  0.00  0.00    +0.000 C 
ATOM      3  C   UNL     1       4.266   4.159  16.386  0.00  0.00    +0.000 C 
ENDROOT
BRANCH   3   4
ATOM      4  C   UNL     1       3.384   3.741  17.478  0.00  0.00    +0.000 A 
ATOM      5  C   UNL     1       2.529   4.667  18.085  0.00  0.00    +0.000 A 
ATOM      6  C   UNL     1       1.696   4.267  19.134  0.00  0.00    +0.000 A 
ATOM      7  C   UNL     1       1.724   2.946  19.566  0.00  0.00    +0.000 A 
ATOM      8  F   UNL     1       0.929   2.567  20.576  0.00  0.00    +0.000 F 
ATOM      9  C   UNL     1       2.565   2.014  18.970  0.00  0.00    +0.000 A 
ATOM     10  C   UNL     1       3.397   2.410  17.922  0.00  0.00    +0.000 A 
ENDBRANCH   3   4
BRANCH   1  11
ATOM     11  C   UNL     1       6.319   4.902  15.295  0.00  0.00    +0.000 C 
ATOM     12  N   UNL     1       7.533   5.371  15.427  0.00  0.00    +0.000 NA
BRANCH  11  14
ATOM     13  C   UNL     1       6.113   3.475  13.187  0.00  0.00    +0.000 C 
ATOM     14  C   UNL     1       5.637   4.709  13.935  0.00  0.00    +0.000 C 
ENDBRANCH  11  14
BRANCH  12  15
ATOM     15  O   UNL     1       8.142   5.665  14.206  0.00  0.00    +0.000 OA
ATOM     16  H   UNL     1       7.801   4.957  13.628  0.00  0.00    +0.000 HD
ENDBRANCH  12  15
ENDBRANCH   1  11
TORSDOF 4
ENDMDL
MODEL 8
REMARK VINA RESULT:      -6.4      1.060      1.203
REMARK  Name = 
REMARK  6 active torsions:
REMARK  status: ('A' for Active; 'I' for Inactive)
REMARK    1  A    between atoms: C_1  and  C_2
REMARK    2  A    between atoms: C_2  and  C_3
REMARK    3  A    between atoms: C_3  and  C_6
REMARK    4  A    between atoms: N_4  and  O_5
REMARK    5  A    between atoms: C_6  and  C_7
REMARK    6  A    between atoms: C_8  and  C_9
REMARK                            x       y       z     vdW  Elec       q    Type
REMARK                         _______ _______ _______ _____ _____    ______ ____
ROOT
ATOM      1  C   UNL     1       5.518   4.571  16.603  0.00  0.00    +0.000 C 
ATOM      2  C   UNL     1       6.194   4.652  17.940  0.00  0.00    +0.000 C 
ATOM      3  C   UNL     1       4.239   4.169  16.440  0.00  0.00    +0.000 C 
ENDROOT
BRANCH   3   4
ATOM      4  C   UNL     1       3.357   3.760  17.535  0.00  0.00    +0.000 A 
ATOM      5  C   UNL     1       3.329   2.425  17.956  0.00  0.00    +0.000 A 
ATOM      6  C   UNL     1       2.478   2.037  18.995  0.00  0.00    +0.000 A 
ATOM      7  C   UNL     1       1.663   2.984  19.604  0.00  0.00    +0.000 A 
ATOM      8  F   UNL     1       0.844   2.607  20.595  0.00  0.00    +0.000 F 
ATOM      9  C   UNL     1       1.682   4.313  19.200  0.00  0.00    +0.000 A 
ATOM     10  C   UNL     1       2.531   4.705  18.163  0.00  0.00    +0.000 A 
ENDBRANCH   3   4
BRANCH   1  11
ATOM     11  C   UNL     1       6.290   4.907  15.344  0.00  0.00    +0.000 C 
ATOM     12  N   UNL     1       7.504   5.378  15.471  0.00  0.00    +0.000 NA
BRANCH  11  14
ATOM     13  C   UNL     1       6.122   3.490  13.226  0.00  0.00    +0.000 C 
ATOM     14  C   UNL     1       5.609   4.701  13.985  0.00  0.00    +0.000 C 
ENDBRANCH  11  14
BRANCH  12  15
ATOM     15  O   UNL     1       8.114   5.659  14.249  0.00  0.00    +0.000 OA
ATOM     16  H   UNL     1       7.838   4.902  13.699  0.00  0.00    +0.000 HD
ENDBRANCH  12  15
ENDBRANCH   1  11
TORSDOF 4
ENDMDL
MODEL 9
REMARK VINA RESULT:      -6.4      4.809      6.502
REMARK  Name = 
REMARK  6 active torsions:
REMARK  status: ('A' for Active; 'I' for Inactive)
REMARK    1  A    between atoms: C_1  and  C_2
REMARK    2  A    between atoms: C_2  and  C_3
REMARK    3  A    between atoms: C_3  and  C_6
REMARK    4  A    between atoms: N_4  and  O_5
REMARK    5  A    between atoms: C_6  and  C_7
REMARK    6  A    between atoms: C_8  and  C_9
REMARK                            x       y       z     vdW  Elec       q    Type
REMARK                         _______ _______ _______ _____ _____    ______ ____
ROOT
ATOM      1  C   UNL     1       2.988   4.883  20.026  0.00  0.00    +0.000 C 
ATOM      2  C   UNL     1       2.603   6.331  19.981  0.00  0.00    +0.000 C 
ATOM      3  C   UNL     1       4.134   4.401  19.497  0.00  0.00    +0.000 C 
ENDROOT
BRANCH   3   4
ATOM      4  C   UNL     1       5.137   5.222  18.816  0.00  0.00    +0.000 A 
ATOM      5  C   UNL     1       4.813   5.884  17.625  0.00  0.00    +0.000 A 
ATOM      6  C   UNL     1       5.776   6.658  16.972  0.00  0.00    +0.000 A 
ATOM      7  C   UNL     1       7.052   6.765  17.512  0.00  0.00    +0.000 A 
ATOM      8  F   UNL     1       7.975   7.503  16.880  0.00  0.00    +0.000 F 
ATOM      9  C   UNL     1       7.387   6.118  18.695  0.00  0.00    +0.000 A 
ATOM     10  C   UNL     1       6.428   5.344  19.351  0.00  0.00    +0.000 A 
ENDBRANCH   3   4
BRANCH   1  11
ATOM     11  C   UNL     1       2.049   3.870  20.649  0.00  0.00    +0.000 C 
ATOM     12  N   UNL     1       2.377   3.355  21.805  0.00  0.00    +0.000 NA
BRANCH  11  14
ATOM     13  C   UNL     1       1.016   2.482  18.770  0.00  0.00    +0.000 C 
ATOM     14  C   UNL     1       0.775   3.482  19.888  0.00  0.00    +0.000 C 
ENDBRANCH  11  14
BRANCH  12  15
ATOM     15  O   UNL     1       1.445   2.430  22.278  0.00  0.00    +0.000 OA
ATOM     16  H   UNL     1       0.598   2.888  22.119  0.00  0.00    +0.000 HD
ENDBRANCH  12  15
ENDBRANCH   1  11
TORSDOF 4
ENDMDL
