MODEL 1
REMARK VINA RESULT:      -7.8      0.000      0.000
REMARK  Name = 
REMARK  6 active torsions:
REMARK  status: ('A' for Active; 'I' for Inactive)
REMARK    1  A    between atoms: C_2  and  C_3
REMARK    2  A    between atoms: C_7  and  N_8
REMARK    3  A    between atoms: N_8  and  C_9
REMARK    4  A    between atoms: C_10  and  C_11
REMARK    5  A    between atoms: C_17  and  O_18
REMARK    6  A    between atoms: O_18  and  C_19
REMARK                            x       y       z     vdW  Elec       q    Type
REMARK                         _______ _______ _______ _____ _____    ______ ____
ROOT
ATOM      1  C   UNL     1       3.417   5.154  18.777  0.00  0.00    +0.000 A 
ATOM      2  C   UNL     1       2.580   4.022  18.709  0.00  0.00    +0.000 A 
ATOM      3  C   UNL     1       2.884   3.032  17.801  0.00  0.00    +0.000 A 
ATOM      4  N   UNL     1       3.904   3.101  16.921  0.00  0.00    +0.000 NA
ATOM      5  C   UNL     1       4.672   4.204  16.920  0.00  0.00    +0.000 A 
ATOM      6  C   UNL     1       5.713   4.264  16.003  0.00  0.00    +0.000 A 
ATOM      7  C   UNL     1       6.576   5.360  15.923  0.00  0.00    +0.000 A 
ATOM      8  C   UNL     1       6.395   6.422  16.796  0.00  0.00    +0.000 A 
ATOM      9  C   UNL     1       5.363   6.377  17.738  0.00  0.00    +0.000 A 
ATOM     10  C   UNL     1       4.479   5.275  17.823  0.00  0.00    +0.000 A 
ENDROOT
BRANCH   1  11
ATOM     11  N   UNL     1       3.223   6.140  19.790  0.00  0.00    +0.000 N 
ATOM     12  H   UNL     1       3.162   5.772  20.732  0.00  0.00    +0.000 HD
BRANCH  11  17
ATOM     13  C   UNL     1       0.851   8.885  20.666  0.00  0.00    +0.000 A 
ATOM     14  C   UNL     1       0.712   9.536  19.436  0.00  0.00    +0.000 A 
ATOM     15  C   UNL     1       1.437   9.087  18.336  0.00  0.00    +0.000 A 
ATOM     16  C   UNL     1       2.255   7.965  18.453  0.00  0.00    +0.000 A 
ATOM     17  C   UNL     1       2.411   7.302  19.678  0.00  0.00    +0.000 A 
ATOM     18  C   UNL     1       1.719   7.797  20.790  0.00  0.00    +0.000 A 
BRANCH  13  20
ATOM     19  C   UNL     1      -0.550   9.600  22.781  0.00  0.00    +0.000 C 
ATOM     20  C   UNL     1       0.053   9.268  21.785  0.00  0.00    +0.000 C 
ENDBRANCH  13  20
ENDBRANCH  11  17
ENDBRANCH   1  11
BRANCH   2  21
ATOM     21  C   UNL     1       1.428   3.824  19.550  0.00  0.00    +0.000 C 
ATOM     22  N   UNL     1       0.522   3.618  20.235  0.00  0.00    +0.000 NA
ENDBRANCH   2  21
BRANCH   7  23
ATOM     23  O   UNL     1       7.543   5.265  14.962  0.00  0.00    +0.000 OA
ATOM     24  C   UNL     1       7.143   4.779  13.687  0.00  0.00    +0.000 C 
ENDBRANCH   7  23
TORSDOF 5
ENDMDL
MODEL 2
REMARK VINA RESULT:      -7.7      2.410      6.325
REMARK  Name = 
REMARK  6 active torsions:
REMARK  status: ('A' for Active; 'I' for Inactive)
REMARK    1  A    between atoms: C_2  and  C_3
REMARK    2  A    between atoms: C_7  and  N_8
REMARK    3  A    between atoms: N_8  and  C_9
REMARK    4  A    between atoms: C_10  and  C_11
REMARK    5  A    between atoms: C_17  and  O_18
REMARK    6  A    between atoms: O_18  and  C_19
REMARK                            x       y       z     vdW  Elec       q    Type
REMARK                         _______ _______ _______ _____ _____    ______ ____
ROOT
ATOM      1  C   UNL     1       2.886   4.672  18.534  0.00  0.00    +0.000 A 
ATOM      2  C   UNL     1       2.824   3.522  19.346  0.00  0.00    +0.000 A 
ATOM      3  C   UNL     1       2.246   3.628  20.592  0.00  0.00    +0.000 A 
ATOM      4  N   UNL     1       1.786   4.782  21.117  0.00  0.00    +0.000 NA
ATOM      5  C   UNL     1       1.900   5.904  20.387  0.00  0.00    +0.000 A 
ATOM      6  C   UNL     1       1.429   7.086  20.944  0.00  0.00    +0.000 A 
ATOM      7  C   UNL     1       1.491   8.307  20.268  0.00  0.00    +0.000 A 
ATOM      8  C   UNL     1       2.033   8.342  18.992  0.00  0.00    +0.000 A 
ATOM      9  C   UNL     1       2.500   7.162  18.405  0.00  0.00    +0.000 A 
ATOM     10  C   UNL     1       2.447   5.920  19.083  0.00  0.00    +0.000 A 
ENDROOT
BRANCH   1  11
ATOM     11  N   UNL     1       3.351   4.584  17.187  0.00  0.00    +0.000 N 
ATOM     12  H   UNL     1       2.931   3.841  16.642  0.00  0.00    +0.000 HD
BRANCH  11  17
ATOM     13  C   UNL     1       6.755   6.076  16.854  0.00  0.00    +0.000 A 
ATOM     14  C   UNL     1       7.294   5.312  15.813  0.00  0.00    +0.000 A 
ATOM     15  C   UNL     1       6.541   4.281  15.258  0.00  0.00    +0.000 A 
ATOM     16  C   UNL     1       5.242   4.050  15.705  0.00  0.00    +0.000 A 
ATOM     17  C   UNL     1       4.687   4.801  16.750  0.00  0.00    +0.000 A 
ATOM     18  C   UNL     1       5.474   5.798  17.338  0.00  0.00    +0.000 A 
BRANCH  13  20
ATOM     19  C   UNL     1       8.009   8.194  17.797  0.00  0.00    +0.000 C 
ATOM     20  C   UNL     1       7.469   7.194  17.380  0.00  0.00    +0.000 C 
ENDBRANCH  13  20
ENDBRANCH  11  17
ENDBRANCH   1  11
BRANCH   2  21
ATOM     21  C   UNL     1       3.313   2.229  18.945  0.00  0.00    +0.000 C 
ATOM     22  N   UNL     1       3.749   1.214  18.609  0.00  0.00    +0.000 NA
ENDBRANCH   2  21
BRANCH   7  23
ATOM     23  O   UNL     1       0.992   9.376  20.958  0.00  0.00    +0.000 OA
ATOM     24  C   UNL     1       0.872   9.237  22.368  0.00  0.00    +0.000 C 
ENDBRANCH   7  23
TORSDOF 5
ENDMDL
MODEL 3
REMARK VINA RESULT:      -7.7      2.392      6.930
REMARK  Name = 
REMARK  6 active torsions:
REMARK  status: ('A' for Active; 'I' for Inactive)
REMARK    1  A    between atoms: C_2  and  C_3
REMARK    2  A    between atoms: C_7  and  N_8
REMARK    3  A    between atoms: N_8  and  C_9
REMARK    4  A    between atoms: C_10  and  C_11
REMARK    5  A    between atoms: C_17  and  O_18
REMARK    6  A    between atoms: O_18  and  C_19
REMARK                            x       y       z     vdW  Elec       q    Type
REMARK                         _______ _______ _______ _____ _____    ______ ____
ROOT
ATOM      1  C   UNL     1       2.955   4.475  18.476  0.00  0.00    +0.000 A 
ATOM      2  C   UNL     1       2.956   3.378  19.361  0.00  0.00    +0.000 A 
ATOM      3  C   UNL     1       2.458   3.559  20.632  0.00  0.00    +0.000 A 
ATOM      4  N   UNL     1       2.021   4.741  21.112  0.00  0.00    +0.000 NA
ATOM      5  C   UNL     1       2.078   5.816  20.308  0.00  0.00    +0.000 A 
ATOM      6  C   UNL     1       1.633   7.029  20.819  0.00  0.00    +0.000 A 
ATOM      7  C   UNL     1       1.641   8.205  20.065  0.00  0.00    +0.000 A 
ATOM      8  C   UNL     1       2.099   8.161  18.757  0.00  0.00    +0.000 A 
ATOM      9  C   UNL     1       2.538   6.949  18.216  0.00  0.00    +0.000 A 
ATOM     10  C   UNL     1       2.541   5.753  18.973  0.00  0.00    +0.000 A 
ENDROOT
BRANCH   1  11
ATOM     11  N   UNL     1       3.333   4.305  17.110  0.00  0.00    +0.000 N 
ATOM     12  H   UNL     1       2.851   3.556  16.627  0.00  0.00    +0.000 HD
BRANCH  11  17
ATOM     13  C   UNL     1       6.199   4.277  14.720  0.00  0.00    +0.000 A 
ATOM     14  C   UNL     1       7.268   4.599  15.563  0.00  0.00    +0.000 A 
ATOM     15  C   UNL     1       7.026   4.865  16.908  0.00  0.00    +0.000 A 
ATOM     16  C   UNL     1       5.733   4.758  17.415  0.00  0.00    +0.000 A 
ATOM     17  C   UNL     1       4.648   4.442  16.586  0.00  0.00    +0.000 A 
ATOM     18  C   UNL     1       4.897   4.231  15.224  0.00  0.00    +0.000 A 
BRANCH  13  20
ATOM     19  C   UNL     1       6.544   3.576  12.203  0.00  0.00    +0.000 C 
ATOM     20  C   UNL     1       6.431   3.913  13.360  0.00  0.00    +0.000 C 
ENDBRANCH  13  20
ENDBRANCH  11  17
ENDBRANCH   1  11
BRANCH   2  21
ATOM     21  C   UNL     1       3.430   2.064  19.011  0.00  0.00    +0.000 C 
ATOM     22  N   UNL     1       3.829   1.031  18.687  0.00  0.00    +0.000 NA
ENDBRANCH   2  21
BRANCH   7  23
ATOM     23  O   UNL     1       1.177   9.312  20.717  0.00  0.00    +0.000 OA
ATOM     24  C   UNL     1       1.076   9.235  22.133  0.00  0.00    +0.000 C 
ENDBRANCH   7  23
TORSDOF 5
ENDMDL
MODEL 4
REMARK VINA RESULT:      -7.5      2.533      6.292
REMARK  Name = 
REMARK  6 active torsions:
REMARK  status: ('A' for Active; 'I' for Inactive)
REMARK    1  A    between atoms: C_2  and  C_3
REMARK    2  A    between atoms: C_7  and  N_8
REMARK    3  A    between atoms: N_8  and  C_9
REMARK    4  A    between atoms: C_10  and  C_11
REMARK    5  A    between atoms: C_17  and  O_18
REMARK    6  A    between atoms: O_18  and  C_19
REMARK                            x       y       z     vdW  Elec       q    Type
REMARK                         _______ _______ _______ _____ _____    ______ ____
ROOT
ATOM      1  C   UNL     1       2.823   5.441  18.680  0.00  0.00    +0.000 A 
ATOM      2  C   UNL     1       2.775   4.513  19.739  0.00  0.00    +0.000 A 
ATOM      3  C   UNL     1       2.157   4.886  20.912  0.00  0.00    +0.000 A 
ATOM      4  N   UNL     1       1.643   6.111  21.140  0.00  0.00    +0.000 NA
ATOM      5  C   UNL     1       1.742   7.035  20.169  0.00  0.00    +0.000 A 
ATOM      6  C   UNL     1       1.216   8.295  20.421  0.00  0.00    +0.000 A 
ATOM      7  C   UNL     1       1.258   9.325  19.478  0.00  0.00    +0.000 A 
ATOM      8  C   UNL     1       1.836   9.079  18.241  0.00  0.00    +0.000 A 
ATOM      9  C   UNL     1       2.359   7.814  17.959  0.00  0.00    +0.000 A 
ATOM     10  C   UNL     1       2.327   6.765  18.910  0.00  0.00    +0.000 A 
ENDROOT
BRANCH   1  11
ATOM     11  N   UNL     1       3.330   5.058  17.402  0.00  0.00    +0.000 N 
ATOM     12  H   UNL     1       2.916   4.217  17.017  0.00  0.00    +0.000 HD
BRANCH  11  17
ATOM     13  C   UNL     1       6.818   6.326  17.013  0.00  0.00    +0.000 A 
ATOM     14  C   UNL     1       7.330   5.445  16.055  0.00  0.00    +0.000 A 
ATOM     15  C   UNL     1       6.530   4.412  15.576  0.00  0.00    +0.000 A 
ATOM     16  C   UNL     1       5.213   4.292  16.014  0.00  0.00    +0.000 A 
ATOM     17  C   UNL     1       4.683   5.162  16.977  0.00  0.00    +0.000 A 
ATOM     18  C   UNL     1       5.516   6.163  17.492  0.00  0.00    +0.000 A 
BRANCH  13  20
ATOM     19  C   UNL     1       8.176   8.407  17.892  0.00  0.00    +0.000 C 
ATOM     20  C   UNL     1       7.585   7.446  17.454  0.00  0.00    +0.000 C 
ENDBRANCH  13  20
ENDBRANCH  11  17
ENDBRANCH   1  11
BRANCH   2  21
ATOM     21  C   UNL     1       3.318   3.181  19.665  0.00  0.00    +0.000 C 
ATOM     22  N   UNL     1       3.798   2.133  19.621  0.00  0.00    +0.000 NA
ENDBRANCH   2  21
BRANCH   7  23
ATOM     23  O   UNL     1       0.704  10.505  19.886  0.00  0.00    +0.000 OA
ATOM     24  C   UNL     1       0.730  11.586  18.961  0.00  0.00    +0.000 C 
ENDBRANCH   7  23
TORSDOF 5
ENDMDL
MODEL 5
REMARK VINA RESULT:      -7.4      2.489      6.877
REMARK  Name = 
REMARK  6 active torsions:
REMARK  status: ('A' for Active; 'I' for Inactive)
REMARK    1  A    between atoms: C_2  and  C_3
REMARK    2  A    between atoms: C_7  and  N_8
REMARK    3  A    between atoms: N_8  and  C_9
REMARK    4  A    between atoms: C_10  and  C_11
REMARK    5  A    between atoms: C_17  and  O_18
REMARK    6  A    between atoms: O_18  and  C_19
REMARK                            x       y       z     vdW  Elec       q    Type
REMARK                         _______ _______ _______ _____ _____    ______ ____
ROOT
ATOM      1  C   UNL     1       2.923   5.119  18.573  0.00  0.00    +0.000 A 
ATOM      2  C   UNL     1       2.930   4.253  19.684  0.00  0.00    +0.000 A 
ATOM      3  C   UNL     1       2.416   4.709  20.877  0.00  0.00    +0.000 A 
ATOM      4  N   UNL     1       1.957   5.962  21.073  0.00  0.00    +0.000 NA
ATOM      5  C   UNL     1       2.007   6.827  20.046  0.00  0.00    +0.000 A 
ATOM      6  C   UNL     1       1.539   8.116  20.265  0.00  0.00    +0.000 A 
ATOM      7  C   UNL     1       1.538   9.090  19.264  0.00  0.00    +0.000 A 
ATOM      8  C   UNL     1       2.011   8.759  18.003  0.00  0.00    +0.000 A 
ATOM      9  C   UNL     1       2.473   7.463  17.755  0.00  0.00    +0.000 A 
ATOM     10  C   UNL     1       2.485   6.470  18.764  0.00  0.00    +0.000 A 
ENDROOT
BRANCH   1  11
ATOM     11  N   UNL     1       3.318   4.650  17.284  0.00  0.00    +0.000 N 
ATOM     12  H   UNL     1       2.844   3.810  16.976  0.00  0.00    +0.000 HD
BRANCH  11  17
ATOM     13  C   UNL     1       6.169   4.355  14.894  0.00  0.00    +0.000 A 
ATOM     14  C   UNL     1       7.262   4.606  15.731  0.00  0.00    +0.000 A 
ATOM     15  C   UNL     1       7.043   4.912  17.071  0.00  0.00    +0.000 A 
ATOM     16  C   UNL     1       5.747   4.917  17.581  0.00  0.00    +0.000 A 
ATOM     17  C   UNL     1       4.639   4.674  16.757  0.00  0.00    +0.000 A 
ATOM     18  C   UNL     1       4.868   4.422  15.399  0.00  0.00    +0.000 A 
BRANCH  13  20
ATOM     19  C   UNL     1       6.451   3.593  12.387  0.00  0.00    +0.000 C 
ATOM     20  C   UNL     1       6.368   3.951  13.540  0.00  0.00    +0.000 C 
ENDBRANCH  13  20
ENDBRANCH  11  17
ENDBRANCH   1  11
BRANCH   2  21
ATOM     21  C   UNL     1       3.427   2.901  19.645  0.00  0.00    +0.000 C 
ATOM     22  N   UNL     1       3.873   1.837  19.615  0.00  0.00    +0.000 NA
ENDBRANCH   2  21
BRANCH   7  23
ATOM     23  O   UNL     1       1.051  10.309  19.644  0.00  0.00    +0.000 OA
ATOM     24  C   UNL     1      -0.363  10.458  19.683  0.00  0.00    +0.000 C 
ENDBRANCH   7  23
TORSDOF 5
ENDMDL
MODEL 6
REMARK VINA RESULT:      -7.0      3.601      7.606
REMARK  Name = 
REMARK  6 active torsions:
REMARK  status: ('A' for Active; 'I' for Inactive)
REMARK    1  A    between atoms: C_2  and  C_3
REMARK    2  A    between atoms: C_7  and  N_8
REMARK    3  A    between atoms: N_8  and  C_9
REMARK    4  A    between atoms: C_10  and  C_11
REMARK    5  A    between atoms: C_17  and  O_18
REMARK    6  A    between atoms: O_18  and  C_19
REMARK                            x       y       z     vdW  Elec       q    Type
REMARK                         _______ _______ _______ _____ _____    ______ ____
ROOT
ATOM      1  C   UNL     1       5.454   4.794  17.113  0.00  0.00    +0.000 A 
ATOM      2  C   UNL     1       5.653   6.115  17.562  0.00  0.00    +0.000 A 
ATOM      3  C   UNL     1       4.755   6.646  18.462  0.00  0.00    +0.000 A 
ATOM      4  N   UNL     1       3.655   6.003  18.901  0.00  0.00    +0.000 NA
ATOM      5  C   UNL     1       3.407   4.769  18.430  0.00  0.00    +0.000 A 
ATOM      6  C   UNL     1       2.264   4.122  18.884  0.00  0.00    +0.000 A 
ATOM      7  C   UNL     1       1.918   2.835  18.466  0.00  0.00    +0.000 A 
ATOM      8  C   UNL     1       2.748   2.173  17.573  0.00  0.00    +0.000 A 
ATOM      9  C   UNL     1       3.911   2.798  17.114  0.00  0.00    +0.000 A 
ATOM     10  C   UNL     1       4.268   4.104  17.526  0.00  0.00    +0.000 A 
ENDROOT
BRANCH   1  11
ATOM     11  N   UNL     1       6.427   4.153  16.288  0.00  0.00    +0.000 N 
ATOM     12  H   UNL     1       7.346   4.070  16.706  0.00  0.00    +0.000 HD
BRANCH  11  17
ATOM     13  C   UNL     1       5.694   3.920  12.637  0.00  0.00    +0.000 A 
ATOM     14  C   UNL     1       6.846   4.488  12.084  0.00  0.00    +0.000 A 
ATOM     15  C   UNL     1       7.839   4.983  12.926  0.00  0.00    +0.000 A 
ATOM     16  C   UNL     1       7.702   4.863  14.307  0.00  0.00    +0.000 A 
ATOM     17  C   UNL     1       6.553   4.301  14.880  0.00  0.00    +0.000 A 
ATOM     18  C   UNL     1       5.538   3.858  14.024  0.00  0.00    +0.000 A 
BRANCH  13  20
ATOM     19  C   UNL     1       3.915   2.840  11.020  0.00  0.00    +0.000 C 
ATOM     20  C   UNL     1       4.704   3.324  11.799  0.00  0.00    +0.000 C 
ENDBRANCH  13  20
ENDBRANCH  11  17
ENDBRANCH   1  11
BRANCH   2  21
ATOM     21  C   UNL     1       6.756   6.945  17.151  0.00  0.00    +0.000 C 
ATOM     22  N   UNL     1       7.652   7.615  16.871  0.00  0.00    +0.000 NA
ENDBRANCH   2  21
BRANCH   7  23
ATOM     23  O   UNL     1       0.760   2.345  19.001  0.00  0.00    +0.000 OA
ATOM     24  C   UNL     1       0.370   2.851  20.272  0.00  0.00    +0.000 C 
ENDBRANCH   7  23
TORSDOF 5
ENDMDL
MODEL 7
REMARK VINA RESULT:      -7.0      4.153      7.517
REMARK  Name = 
REMARK  6 active torsions:
REMARK  status: ('A' for Active; 'I' for Inactive)
REMARK    1  A    between atoms: C_2  and  C_3
REMARK    2  A    between atoms: C_7  and  N_8
REMARK    3  A    between atoms: N_8  and  C_9
REMARK    4  A    between atoms: C_10  and  C_11
REMARK    5  A    between atoms: C_17  and  O_18
REMARK    6  A    between atoms: O_18  and  C_19
REMARK                            x       y       z     vdW  Elec       q    Type
REMARK                         _______ _______ _______ _____ _____    ______ ____
ROOT
ATOM      1  C   UNL     1       5.267   5.519  17.151  0.00  0.00    +0.000 A 
ATOM      2  C   UNL     1       6.363   6.000  17.894  0.00  0.00    +0.000 A 
ATOM      3  C   UNL     1       6.549   5.524  19.174  0.00  0.00    +0.000 A 
ATOM      4  N   UNL     1       5.711   4.666  19.791  0.00  0.00    +0.000 NA
ATOM      5  C   UNL     1       4.620   4.251  19.125  0.00  0.00    +0.000 A 
ATOM      6  C   UNL     1       3.762   3.375  19.776  0.00  0.00    +0.000 A 
ATOM      7  C   UNL     1       2.605   2.875  19.173  0.00  0.00    +0.000 A 
ATOM      8  C   UNL     1       2.306   3.258  17.874  0.00  0.00    +0.000 A 
ATOM      9  C   UNL     1       3.163   4.127  17.193  0.00  0.00    +0.000 A 
ATOM     10  C   UNL     1       4.335   4.644  17.797  0.00  0.00    +0.000 A 
ENDROOT
BRANCH   1  11
ATOM     11  N   UNL     1       5.108   5.878  15.778  0.00  0.00    +0.000 N 
ATOM     12  H   UNL     1       4.199   6.258  15.543  0.00  0.00    +0.000 HD
BRANCH  11  17
ATOM     13  C   UNL     1       5.278   3.909  12.613  0.00  0.00    +0.000 A 
ATOM     14  C   UNL     1       6.650   3.656  12.515  0.00  0.00    +0.000 A 
ATOM     15  C   UNL     1       7.514   4.176  13.475  0.00  0.00    +0.000 A 
ATOM     16  C   UNL     1       7.004   4.898  14.552  0.00  0.00    +0.000 A 
ATOM     17  C   UNL     1       5.632   5.166  14.664  0.00  0.00    +0.000 A 
ATOM     18  C   UNL     1       4.781   4.685  13.663  0.00  0.00    +0.000 A 
BRANCH  13  20
ATOM     19  C   UNL     1       3.606   2.874  10.858  0.00  0.00    +0.000 C 
ATOM     20  C   UNL     1       4.362   3.314  11.694  0.00  0.00    +0.000 C 
ENDBRANCH  13  20
ENDBRANCH  11  17
ENDBRANCH   1  11
BRANCH   2  21
ATOM     21  C   UNL     1       7.321   6.950  17.390  0.00  0.00    +0.000 C 
ATOM     22  N   UNL     1       8.118   7.701  17.027  0.00  0.00    +0.000 NA
ENDBRANCH   2  21
BRANCH   7  23
ATOM     23  O   UNL     1       1.866   2.030  19.952  0.00  0.00    +0.000 OA
ATOM     24  C   UNL     1       1.554   2.469  21.268  0.00  0.00    +0.000 C 
ENDBRANCH   7  23
TORSDOF 5
ENDMDL
MODEL 8
REMARK VINA RESULT:      -7.0      2.507      6.397
REMARK  Name = 
REMARK  6 active torsions:
REMARK  status: ('A' for Active; 'I' for Inactive)
REMARK    1  A    between atoms: C_2  and  C_3
REMARK    2  A    between atoms: C_7  and  N_8
REMARK    3  A    between atoms: N_8  and  C_9
REMARK    4  A    between atoms: C_10  and  C_11
REMARK    5  A    between atoms: C_17  and  O_18
REMARK    6  A    between atoms: O_18  and  C_19
REMARK                            x       y       z     vdW  Elec       q    Type
REMARK                         _______ _______ _______ _____ _____    ______ ____
ROOT
ATOM      1  C   UNL     1       3.160   4.833  19.379  0.00  0.00    +0.000 A 
ATOM      2  C   UNL     1       2.558   4.482  20.604  0.00  0.00    +0.000 A 
ATOM      3  C   UNL     1       1.717   5.391  21.207  0.00  0.00    +0.000 A 
ATOM      4  N   UNL     1       1.476   6.629  20.732  0.00  0.00    +0.000 NA
ATOM      5  C   UNL     1       2.096   7.011  19.603  0.00  0.00    +0.000 A 
ATOM      6  C   UNL     1       1.845   8.292  19.130  0.00  0.00    +0.000 A 
ATOM      7  C   UNL     1       2.431   8.786  17.962  0.00  0.00    +0.000 A 
ATOM      8  C   UNL     1       3.286   7.966  17.241  0.00  0.00    +0.000 A 
ATOM      9  C   UNL     1       3.543   6.667  17.690  0.00  0.00    +0.000 A 
ATOM     10  C   UNL     1       2.959   6.159  18.875  0.00  0.00    +0.000 A 
ENDROOT
BRANCH   1  11
ATOM     11  N   UNL     1       3.930   3.878  18.649  0.00  0.00    +0.000 N 
ATOM     12  H   UNL     1       4.049   2.986  19.115  0.00  0.00    +0.000 HD
BRANCH  11  17
ATOM     13  C   UNL     1       6.175   4.222  15.689  0.00  0.00    +0.000 A 
ATOM     14  C   UNL     1       7.376   4.611  16.293  0.00  0.00    +0.000 A 
ATOM     15  C   UNL     1       7.421   4.797  17.672  0.00  0.00    +0.000 A 
ATOM     16  C   UNL     1       6.289   4.547  18.445  0.00  0.00    +0.000 A 
ATOM     17  C   UNL     1       5.076   4.161  17.857  0.00  0.00    +0.000 A 
ATOM     18  C   UNL     1       5.029   4.031  16.464  0.00  0.00    +0.000 A 
BRANCH  13  20
ATOM     19  C   UNL     1       6.041   3.619  13.126  0.00  0.00    +0.000 C 
ATOM     20  C   UNL     1       6.124   3.937  14.291  0.00  0.00    +0.000 C 
ENDBRANCH  13  20
ENDBRANCH  11  17
ENDBRANCH   1  11
BRANCH   2  21
ATOM     21  C   UNL     1       2.752   3.214  21.260  0.00  0.00    +0.000 C 
ATOM     22  N   UNL     1       2.859   2.187  21.774  0.00  0.00    +0.000 NA
ENDBRANCH   2  21
BRANCH   7  23
ATOM     23  O   UNL     1       2.085  10.068  17.639  0.00  0.00    +0.000 OA
ATOM     24  C   UNL     1       1.375  10.813  18.620  0.00  0.00    +0.000 C 
ENDBRANCH   7  23
TORSDOF 5
ENDMDL
MODEL 9
REMARK VINA RESULT:      -7.0      3.461      7.415
REMARK  Name = 
REMARK  6 active torsions:
REMARK  status: ('A' for Active; 'I' for Inactive)
REMARK    1  A    between atoms: C_2  and  C_3
REMARK    2  A    between atoms: C_7  and  N_8
REMARK    3  A    between atoms: N_8  and  C_9
REMARK    4  A    between atoms: C_10  and  C_11
REMARK    5  A    between atoms: C_17  and  O_18
REMARK    6  A    between atoms: O_18  and  C_19
REMARK                            x       y       z     vdW  Elec       q    Type
REMARK                         _______ _______ _______ _____ _____    ______ ____
ROOT
ATOM      1  C   UNL     1       2.363   7.520  19.535  0.00  0.00    +0.000 A 
ATOM      2  C   UNL     1       2.802   7.799  18.225  0.00  0.00    +0.000 A 
ATOM      3  C   UNL     1       2.381   8.966  17.625  0.00  0.00    +0.000 A 
ATOM      4  N   UNL     1       1.520   9.838  18.188  0.00  0.00    +0.000 NA
ATOM      5  C   UNL     1       1.033   9.555  19.408  0.00  0.00    +0.000 A 
ATOM      6  C   UNL     1       0.141  10.458  19.972  0.00  0.00    +0.000 A 
ATOM      7  C   UNL     1      -0.418  10.265  21.238  0.00  0.00    +0.000 A 
ATOM      8  C   UNL     1      -0.063   9.137  21.964  0.00  0.00    +0.000 A 
ATOM      9  C   UNL     1       0.845   8.222  21.423  0.00  0.00    +0.000 A 
ATOM     10  C   UNL     1       1.412   8.405  20.139  0.00  0.00    +0.000 A 
ENDROOT
BRANCH   1  11
ATOM     11  N   UNL     1       2.878   6.396  20.248  0.00  0.00    +0.000 N 
ATOM     12  H   UNL     1       3.883   6.398  20.372  0.00  0.00    +0.000 HD
BRANCH  11  17
ATOM     13  C   UNL     1       2.747   2.763  19.402  0.00  0.00    +0.000 A 
ATOM     14  C   UNL     1       1.455   2.426  19.820  0.00  0.00    +0.000 A 
ATOM     15  C   UNL     1       0.652   3.394  20.417  0.00  0.00    +0.000 A 
ATOM     16  C   UNL     1       1.119   4.700  20.548  0.00  0.00    +0.000 A 
ATOM     17  C   UNL     1       2.412   5.056  20.141  0.00  0.00    +0.000 A 
ATOM     18  C   UNL     1       3.230   4.061  19.592  0.00  0.00    +0.000 A 
BRANCH  13  20
ATOM     19  C   UNL     1       4.175   0.955  18.123  0.00  0.00    +0.000 C 
ATOM     20  C   UNL     1       3.556   1.816  18.707  0.00  0.00    +0.000 C 
ENDBRANCH  13  20
ENDBRANCH  11  17
ENDBRANCH   1  11
BRANCH   2  21
ATOM     21  C   UNL     1       3.686   6.945  17.475  0.00  0.00    +0.000 C 
ATOM     22  N   UNL     1       4.408   6.237  16.918  0.00  0.00    +0.000 NA
ENDBRANCH   2  21
BRANCH   7  23
ATOM     23  O   UNL     1      -1.282  11.242  21.643  0.00  0.00    +0.000 OA
ATOM     24  C   UNL     1      -1.366  11.493  23.041  0.00  0.00    +0.000 C 
ENDBRANCH   7  23
TORSDOF 5
ENDMDL
