MODEL 1
REMARK VINA RESULT:      -8.4      0.000      0.000
REMARK  Name = 
REMARK  7 active torsions:
REMARK  status: ('A' for Active; 'I' for Inactive)
REMARK    1  A    between atoms: C_1  and  C_2
REMARK    2  A    between atoms: C_5  and  C_6
REMARK    3  A    between atoms: N_7  and  N_8
REMARK    4  A    between atoms: C_9  and  C_11
REMARK    5  A    between atoms: C_15  and  S_16
REMARK    6  A    between atoms: S_16  and  N_19
REMARK    7  A    between atoms: N_19  and  C_20
REMARK                            x       y       z     vdW  Elec       q    Type
REMARK                         _______ _______ _______ _____ _____    ______ ____
ROOT
ATOM      1  C   UNL     1       6.666   5.407  16.771  0.00  0.00    +0.000 A 
ATOM      2  C   UNL     1       6.644   5.010  15.423  0.00  0.00    +0.000 A 
ATOM      3  C   UNL     1       5.771   4.012  14.986  0.00  0.00    +0.000 A 
ATOM      4  C   UNL     1       4.896   3.414  15.890  0.00  0.00    +0.000 A 
ATOM      5  C   UNL     1       4.901   3.820  17.229  0.00  0.00    +0.000 A 
ATOM      6  C   UNL     1       5.799   4.800  17.684  0.00  0.00    +0.000 A 
ENDROOT
BRANCH   1   8
ATOM      7  N   UNL     1       7.776   6.776  18.490  0.00  0.00    +0.000 N 
ATOM      8  C   UNL     1       7.560   6.538  17.137  0.00  0.00    +0.000 C 
ATOM      9  O   UNL     1       8.061   7.193  16.225  0.00  0.00    +0.000 OA
ATOM     10  H   UNL     1       7.439   6.150  19.213  0.00  0.00    +0.000 HD
BRANCH   7  12
ATOM     11  C   UNL     1       8.252   9.017  18.403  0.00  0.00    +0.000 C 
ATOM     12  N   UNL     1       8.573   7.834  18.816  0.00  0.00    +0.000 NA
BRANCH  11  17
ATOM     13  C   UNL     1      11.373  12.619  17.548  0.00  0.00    +0.000 C 
ATOM     14  C   UNL     1      10.526  11.761  18.401  0.00  0.00    +0.000 A 
ATOM     15  C   UNL     1      10.291  11.742  19.759  0.00  0.00    +0.000 A 
ATOM     16  C   UNL     1       9.379  10.688  19.986  0.00  0.00    +0.000 A 
ATOM     17  C   UNL     1       9.106  10.120  18.757  0.00  0.00    +0.000 A 
ATOM     18  O   UNL     1       9.809  10.775  17.782  0.00  0.00    +0.000 OA
ENDBRANCH  11  17
ENDBRANCH   7  12
ENDBRANCH   1   8
BRANCH   5  19
ATOM     19  S   UNL     1       3.831   3.002  18.389  0.00  0.00    +0.000 S 
ATOM     20  O   UNL     1       3.633   1.650  17.913  0.00  0.00    +0.000 OA
ATOM     21  O   UNL     1       4.353   3.261  19.715  0.00  0.00    +0.000 OA
BRANCH  19  22
ATOM     22  N   UNL     1       2.346   3.792  18.178  0.00  0.00    +0.000 N 
ATOM     23  H   UNL     1       1.595   3.118  18.348  0.00  0.00    +0.000 HD
BRANCH  22  24
ATOM     24  C   UNL     1       2.182   5.055  18.834  0.00  0.00    +0.000 A 
ATOM     25  C   UNL     1       2.533   6.214  18.141  0.00  0.00    +0.000 A 
ATOM     26  C   UNL     1       2.437   7.460  18.765  0.00  0.00    +0.000 A 
ATOM     27  C   UNL     1       1.980   7.551  20.081  0.00  0.00    +0.000 A 
ATOM     28  C   UNL     1       1.628   6.396  20.781  0.00  0.00    +0.000 A 
ATOM     29  C   UNL     1       1.743   5.147  20.166  0.00  0.00    +0.000 A 
ATOM     30 CL   UNL     1       1.320   3.740  21.073  0.00  0.00    +0.000 Cl
ENDBRANCH  22  24
ENDBRANCH  19  22
ENDBRANCH   5  19
TORSDOF 6
ENDMDL
MODEL 2
REMARK VINA RESULT:      -8.2      4.744      8.029
REMARK  Name = 
REMARK  7 active torsions:
REMARK  status: ('A' for Active; 'I' for Inactive)
REMARK    1  A    between atoms: C_1  and  C_2
REMARK    2  A    between atoms: C_5  and  C_6
REMARK    3  A    between atoms: N_7  and  N_8
REMARK    4  A    between atoms: C_9  and  C_11
REMARK    5  A    between atoms: C_15  and  S_16
REMARK    6  A    between atoms: S_16  and  N_19
REMARK    7  A    between atoms: N_19  and  C_20
REMARK                            x       y       z     vdW  Elec       q    Type
REMARK                         _______ _______ _______ _____ _____    ______ ____
ROOT
ATOM      1  C   UNL     1       3.324   5.485  19.063  0.00  0.00    +0.000 A 
ATOM      2  C   UNL     1       3.510   4.100  19.209  0.00  0.00    +0.000 A 
ATOM      3  C   UNL     1       4.461   3.422  18.445  0.00  0.00    +0.000 A 
ATOM      4  C   UNL     1       5.251   4.126  17.540  0.00  0.00    +0.000 A 
ATOM      5  C   UNL     1       5.082   5.509  17.405  0.00  0.00    +0.000 A 
ATOM      6  C   UNL     1       4.105   6.194  18.145  0.00  0.00    +0.000 A 
ENDROOT
BRANCH   1   8
ATOM      7  N   UNL     1       2.371   7.536  20.036  0.00  0.00    +0.000 N 
ATOM      8  C   UNL     1       2.355   6.147  19.977  0.00  0.00    +0.000 C 
ATOM      9  O   UNL     1       1.593   5.429  20.623  0.00  0.00    +0.000 OA
ATOM     10  H   UNL     1       2.933   8.101  19.410  0.00  0.00    +0.000 HD
BRANCH   7  12
ATOM     11  C   UNL     1       1.022   9.299  20.611  0.00  0.00    +0.000 C 
ATOM     12  N   UNL     1       1.499   8.131  20.900  0.00  0.00    +0.000 NA
BRANCH  11  17
ATOM     13  C   UNL     1      -2.182  12.614  22.092  0.00  0.00    +0.000 C 
ATOM     14  C   UNL     1      -1.352  11.400  22.238  0.00  0.00    +0.000 A 
ATOM     15  C   UNL     1      -1.197  10.498  23.268  0.00  0.00    +0.000 A 
ATOM     16  C   UNL     1      -0.262   9.541  22.816  0.00  0.00    +0.000 A 
ATOM     17  C   UNL     1       0.104   9.910  21.536  0.00  0.00    +0.000 A 
ATOM     18  O   UNL     1      -0.562  11.050  21.178  0.00  0.00    +0.000 OA
ENDBRANCH  11  17
ENDBRANCH   7  12
ENDBRANCH   1   8
BRANCH   5  19
ATOM     19  S   UNL     1       6.046   6.387  16.196  0.00  0.00    +0.000 S 
ATOM     20  O   UNL     1       5.155   6.747  15.114  0.00  0.00    +0.000 OA
ATOM     21  O   UNL     1       6.811   7.393  16.902  0.00  0.00    +0.000 OA
BRANCH  19  22
ATOM     22  N   UNL     1       7.077   5.194  15.574  0.00  0.00    +0.000 N 
ATOM     23  H   UNL     1       7.210   4.477  16.293  0.00  0.00    +0.000 HD
BRANCH  22  24
ATOM     24  C   UNL     1       6.776   4.690  14.268  0.00  0.00    +0.000 A 
ATOM     25  C   UNL     1       5.664   3.861  14.116  0.00  0.00    +0.000 A 
ATOM     26  C   UNL     1       5.367   3.308  12.868  0.00  0.00    +0.000 A 
ATOM     27  C   UNL     1       6.176   3.590  11.766  0.00  0.00    +0.000 A 
ATOM     28  C   UNL     1       7.291   4.418  11.910  0.00  0.00    +0.000 A 
ATOM     29  C   UNL     1       7.601   4.956  13.162  0.00  0.00    +0.000 A 
ATOM     30 CL   UNL     1       9.001   5.956  13.304  0.00  0.00    +0.000 Cl
ENDBRANCH  22  24
ENDBRANCH  19  22
ENDBRANCH   5  19
TORSDOF 6
ENDMDL
MODEL 3
REMARK VINA RESULT:      -8.1      4.487      7.392
REMARK  Name = 
REMARK  7 active torsions:
REMARK  status: ('A' for Active; 'I' for Inactive)
REMARK    1  A    between atoms: C_1  and  C_2
REMARK    2  A    between atoms: C_5  and  C_6
REMARK    3  A    between atoms: N_7  and  N_8
REMARK    4  A    between atoms: C_9  and  C_11
REMARK    5  A    between atoms: C_15  and  S_16
REMARK    6  A    between atoms: S_16  and  N_19
REMARK    7  A    between atoms: N_19  and  C_20
REMARK                            x       y       z     vdW  Elec       q    Type
REMARK                         _______ _______ _______ _____ _____    ______ ____
ROOT
ATOM      1  C   UNL     1       2.777   7.400  18.932  0.00  0.00    +0.000 A 
ATOM      2  C   UNL     1       2.931   8.051  17.697  0.00  0.00    +0.000 A 
ATOM      3  C   UNL     1       3.848   7.587  16.752  0.00  0.00    +0.000 A 
ATOM      4  C   UNL     1       4.607   6.452  17.025  0.00  0.00    +0.000 A 
ATOM      5  C   UNL     1       4.443   5.788  18.246  0.00  0.00    +0.000 A 
ATOM      6  C   UNL     1       3.547   6.267  19.216  0.00  0.00    +0.000 A 
ENDROOT
BRANCH   1   8
ATOM      7  N   UNL     1       1.085   9.094  19.504  0.00  0.00    +0.000 N 
ATOM      8  C   UNL     1       1.716   7.903  19.845  0.00  0.00    +0.000 C 
ATOM      9  O   UNL     1       1.455   7.235  20.844  0.00  0.00    +0.000 OA
ATOM     10  H   UNL     1       1.244   9.560  18.619  0.00  0.00    +0.000 HD
BRANCH   7  12
ATOM     11  C   UNL     1       0.161  10.805  20.720  0.00  0.00    +0.000 C 
ATOM     12  N   UNL     1       0.134   9.561  20.364  0.00  0.00    +0.000 NA
BRANCH  11  17
ATOM     13  C   UNL     1      -3.816  13.257  21.991  0.00  0.00    +0.000 C 
ATOM     14  C   UNL     1      -2.651  12.383  22.237  0.00  0.00    +0.000 A 
ATOM     15  C   UNL     1      -2.176  11.763  23.373  0.00  0.00    +0.000 A 
ATOM     16  C   UNL     1      -1.020  11.054  22.980  0.00  0.00    +0.000 A 
ATOM     17  C   UNL     1      -0.850  11.278  21.628  0.00  0.00    +0.000 A 
ATOM     18  O   UNL     1      -1.848  12.093  21.168  0.00  0.00    +0.000 OA
ENDBRANCH  11  17
ENDBRANCH   7  12
ENDBRANCH   1   8
BRANCH   5  19
ATOM     19  S   UNL     1       5.467   4.382  18.614  0.00  0.00    +0.000 S 
ATOM     20  O   UNL     1       6.403   4.233  17.521  0.00  0.00    +0.000 OA
ATOM     21  O   UNL     1       5.926   4.528  19.980  0.00  0.00    +0.000 OA
BRANCH  19  22
ATOM     22  N   UNL     1       4.396   3.073  18.492  0.00  0.00    +0.000 N 
ATOM     23  H   UNL     1       4.945   2.211  18.447  0.00  0.00    +0.000 HD
BRANCH  22  24
ATOM     24  C   UNL     1       3.300   3.042  19.414  0.00  0.00    +0.000 A 
ATOM     25  C   UNL     1       3.547   2.635  20.726  0.00  0.00    +0.000 A 
ATOM     26  C   UNL     1       2.494   2.542  21.640  0.00  0.00    +0.000 A 
ATOM     27  C   UNL     1       1.194   2.865  21.248  0.00  0.00    +0.000 A 
ATOM     28  C   UNL     1       0.940   3.272  19.937  0.00  0.00    +0.000 A 
ATOM     29  C   UNL     1       1.988   3.347  19.015  0.00  0.00    +0.000 A 
ATOM     30 CL   UNL     1       1.628   3.832  17.398  0.00  0.00    +0.000 Cl
ENDBRANCH  22  24
ENDBRANCH  19  22
ENDBRANCH   5  19
TORSDOF 6
ENDMDL
MODEL 4
REMARK VINA RESULT:      -8.1      2.398      3.312
REMARK  Name = 
REMARK  7 active torsions:
REMARK  status: ('A' for Active; 'I' for Inactive)
REMARK    1  A    between atoms: C_1  and  C_2
REMARK    2  A    between atoms: C_5  and  C_6
REMARK    3  A    between atoms: N_7  and  N_8
REMARK    4  A    between atoms: C_9  and  C_11
REMARK    5  A    between atoms: C_15  and  S_16
REMARK    6  A    between atoms: S_16  and  N_19
REMARK    7  A    between atoms: N_19  and  C_20
REMARK                            x       y       z     vdW  Elec       q    Type
REMARK                         _______ _______ _______ _____ _____    ______ ____
ROOT
ATOM      1  C   UNL     1       7.859   7.612  18.128  0.00  0.00    +0.000 A 
ATOM      2  C   UNL     1       8.356   6.733  19.106  0.00  0.00    +0.000 A 
ATOM      3  C   UNL     1       8.108   5.362  19.028  0.00  0.00    +0.000 A 
ATOM      4  C   UNL     1       7.375   4.851  17.959  0.00  0.00    +0.000 A 
ATOM      5  C   UNL     1       6.895   5.720  16.972  0.00  0.00    +0.000 A 
ATOM      6  C   UNL     1       7.112   7.105  17.061  0.00  0.00    +0.000 A 
ENDROOT
BRANCH   1   8
ATOM      7  N   UNL     1       9.151   9.395  19.229  0.00  0.00    +0.000 N 
ATOM      8  C   UNL     1       8.244   9.044  18.235  0.00  0.00    +0.000 C 
ATOM      9  O   UNL     1       7.744   9.834  17.435  0.00  0.00    +0.000 OA
ATOM     10  H   UNL     1       9.628   8.706  19.798  0.00  0.00    +0.000 HD
BRANCH   7  12
ATOM     11  C   UNL     1      10.650  11.111  18.967  0.00  0.00    +0.000 C 
ATOM     12  N   UNL     1       9.474  10.717  19.336  0.00  0.00    +0.000 NA
BRANCH  11  17
ATOM     13  C   UNL     1       9.954  15.861  18.332  0.00  0.00    +0.000 C 
ATOM     14  C   UNL     1      10.685  14.671  18.815  0.00  0.00    +0.000 A 
ATOM     15  C   UNL     1      11.865  14.524  19.511  0.00  0.00    +0.000 A 
ATOM     16  C   UNL     1      12.048  13.135  19.686  0.00  0.00    +0.000 A 
ATOM     17  C   UNL     1      10.971  12.508  19.089  0.00  0.00    +0.000 A 
ATOM     18  O   UNL     1      10.133  13.448  18.552  0.00  0.00    +0.000 OA
ENDBRANCH  11  17
ENDBRANCH   7  12
ENDBRANCH   1   8
BRANCH   5  19
ATOM     19  S   UNL     1       5.900   5.068  15.650  0.00  0.00    +0.000 S 
ATOM     20  O   UNL     1       5.321   6.195  14.952  0.00  0.00    +0.000 OA
ATOM     21  O   UNL     1       6.702   4.085  14.952  0.00  0.00    +0.000 OA
BRANCH  19  22
ATOM     22  N   UNL     1       4.618   4.312  16.461  0.00  0.00    +0.000 N 
ATOM     23  H   UNL     1       4.913   3.366  16.719  0.00  0.00    +0.000 HD
BRANCH  22  24
ATOM     24  C   UNL     1       3.984   5.052  17.509  0.00  0.00    +0.000 A 
ATOM     25  C   UNL     1       3.525   6.340  17.229  0.00  0.00    +0.000 A 
ATOM     26  C   UNL     1       2.948   7.113  18.240  0.00  0.00    +0.000 A 
ATOM     27  C   UNL     1       2.818   6.598  19.530  0.00  0.00    +0.000 A 
ATOM     28  C   UNL     1       3.276   5.311  19.818  0.00  0.00    +0.000 A 
ATOM     29  C   UNL     1       3.872   4.543  18.814  0.00  0.00    +0.000 A 
ATOM     30 CL   UNL     1       4.446   2.965  19.216  0.00  0.00    +0.000 Cl
ENDBRANCH  22  24
ENDBRANCH  19  22
ENDBRANCH   5  19
TORSDOF 6
ENDMDL
MODEL 5
REMARK VINA RESULT:      -8.1      1.909      2.201
REMARK  Name = 
REMARK  7 active torsions:
REMARK  status: ('A' for Active; 'I' for Inactive)
REMARK    1  A    between atoms: C_1  and  C_2
REMARK    2  A    between atoms: C_5  and  C_6
REMARK    3  A    between atoms: N_7  and  N_8
REMARK    4  A    between atoms: C_9  and  C_11
REMARK    5  A    between atoms: C_15  and  S_16
REMARK    6  A    between atoms: S_16  and  N_19
REMARK    7  A    between atoms: N_19  and  C_20
REMARK                            x       y       z     vdW  Elec       q    Type
REMARK                         _______ _______ _______ _____ _____    ______ ____
ROOT
ATOM      1  C   UNL     1       6.426   5.890  17.837  0.00  0.00    +0.000 A 
ATOM      2  C   UNL     1       6.596   5.069  16.710  0.00  0.00    +0.000 A 
ATOM      3  C   UNL     1       5.575   4.215  16.287  0.00  0.00    +0.000 A 
ATOM      4  C   UNL     1       4.365   4.190  16.976  0.00  0.00    +0.000 A 
ATOM      5  C   UNL     1       4.184   5.022  18.087  0.00  0.00    +0.000 A 
ATOM      6  C   UNL     1       5.218   5.859  18.540  0.00  0.00    +0.000 A 
ENDROOT
BRANCH   1   8
ATOM      7  N   UNL     1       7.522   8.075  17.537  0.00  0.00    +0.000 N 
ATOM      8  C   UNL     1       7.526   6.835  18.168  0.00  0.00    +0.000 C 
ATOM      9  O   UNL     1       8.372   6.470  18.983  0.00  0.00    +0.000 OA
ATOM     10  H   UNL     1       6.752   8.388  16.958  0.00  0.00    +0.000 HD
BRANCH   7  12
ATOM     11  C   UNL     1       8.307  10.183  17.983  0.00  0.00    +0.000 C 
ATOM     12  N   UNL     1       8.552   8.922  17.826  0.00  0.00    +0.000 NA
BRANCH  11  17
ATOM     13  C   UNL     1      11.130  14.071  17.390  0.00  0.00    +0.000 C 
ATOM     14  C   UNL     1      10.708  12.815  18.041  0.00  0.00    +0.000 A 
ATOM     15  C   UNL     1      11.214  12.105  19.110  0.00  0.00    +0.000 A 
ATOM     16  C   UNL     1      10.378  10.979  19.266  0.00  0.00    +0.000 A 
ATOM     17  C   UNL     1       9.407  11.060  18.287  0.00  0.00    +0.000 A 
ATOM     18  O   UNL     1       9.607  12.184  17.533  0.00  0.00    +0.000 OA
ENDBRANCH  11  17
ENDBRANCH   7  12
ENDBRANCH   1   8
BRANCH   5  19
ATOM     19  S   UNL     1       2.662   4.931  19.002  0.00  0.00    +0.000 S 
ATOM     20  O   UNL     1       1.583   5.141  18.063  0.00  0.00    +0.000 OA
ATOM     21  O   UNL     1       2.723   3.738  19.822  0.00  0.00    +0.000 OA
BRANCH  19  22
ATOM     22  N   UNL     1       2.708   6.316  19.978  0.00  0.00    +0.000 N 
ATOM     23  H   UNL     1       3.653   6.408  20.362  0.00  0.00    +0.000 HD
BRANCH  22  24
ATOM     24  C   UNL     1       2.161   7.519  19.427  0.00  0.00    +0.000 A 
ATOM     25  C   UNL     1       2.517   7.874  18.124  0.00  0.00    +0.000 A 
ATOM     26  C   UNL     1       2.045   9.066  17.570  0.00  0.00    +0.000 A 
ATOM     27  C   UNL     1       1.208   9.902  18.312  0.00  0.00    +0.000 A 
ATOM     28  C   UNL     1       0.850   9.554  19.615  0.00  0.00    +0.000 A 
ATOM     29  C   UNL     1       1.337   8.372  20.179  0.00  0.00    +0.000 A 
ATOM     30 CL   UNL     1       0.889   7.989  21.802  0.00  0.00    +0.000 Cl
ENDBRANCH  22  24
ENDBRANCH  19  22
ENDBRANCH   5  19
TORSDOF 6
ENDMDL
MODEL 6
REMARK VINA RESULT:      -8.1      2.542      3.692
REMARK  Name = 
REMARK  7 active torsions:
REMARK  status: ('A' for Active; 'I' for Inactive)
REMARK    1  A    between atoms: C_1  and  C_2
REMARK    2  A    between atoms: C_5  and  C_6
REMARK    3  A    between atoms: N_7  and  N_8
REMARK    4  A    between atoms: C_9  and  C_11
REMARK    5  A    between atoms: C_15  and  S_16
REMARK    6  A    between atoms: S_16  and  N_19
REMARK    7  A    between atoms: N_19  and  C_20
REMARK                            x       y       z     vdW  Elec       q    Type
REMARK                         _______ _______ _______ _____ _____    ______ ____
ROOT
ATOM      1  C   UNL     1       7.869   7.561  18.109  0.00  0.00    +0.000 A 
ATOM      2  C   UNL     1       8.270   6.734  19.171  0.00  0.00    +0.000 A 
ATOM      3  C   UNL     1       8.075   5.352  19.114  0.00  0.00    +0.000 A 
ATOM      4  C   UNL     1       7.495   4.782  17.983  0.00  0.00    +0.000 A 
ATOM      5  C   UNL     1       7.112   5.601  16.915  0.00  0.00    +0.000 A 
ATOM      6  C   UNL     1       7.274   6.995  16.978  0.00  0.00    +0.000 A 
ENDROOT
BRANCH   1   8
ATOM      7  N   UNL     1       9.140   9.394  19.152  0.00  0.00    +0.000 N 
ATOM      8  C   UNL     1       8.194   9.009  18.208  0.00  0.00    +0.000 C 
ATOM      9  O   UNL     1       7.614   9.782  17.447  0.00  0.00    +0.000 OA
ATOM     10  H   UNL     1       9.681   8.723  19.685  0.00  0.00    +0.000 HD
BRANCH   7  12
ATOM     11  C   UNL     1      10.631  11.136  19.144  0.00  0.00    +0.000 C 
ATOM     12  N   UNL     1       9.409  10.727  19.255  0.00  0.00    +0.000 NA
BRANCH  11  17
ATOM     13  C   UNL     1       9.535  15.848  18.945  0.00  0.00    +0.000 C 
ATOM     14  C   UNL     1      10.428  14.693  19.173  0.00  0.00    +0.000 A 
ATOM     15  C   UNL     1      11.750  14.600  19.552  0.00  0.00    +0.000 A 
ATOM     16  C   UNL     1      12.048  13.221  19.605  0.00  0.00    +0.000 A 
ATOM     17  C   UNL     1      10.894  12.546  19.256  0.00  0.00    +0.000 A 
ATOM     18  O   UNL     1       9.898  13.446  18.989  0.00  0.00    +0.000 OA
ENDBRANCH  11  17
ENDBRANCH   7  12
ENDBRANCH   1   8
BRANCH   5  19
ATOM     19  S   UNL     1       6.307   4.872  15.507  0.00  0.00    +0.000 S 
ATOM     20  O   UNL     1       6.612   5.699  14.361  0.00  0.00    +0.000 OA
ATOM     21  O   UNL     1       6.619   3.458  15.516  0.00  0.00    +0.000 OA
BRANCH  19  22
ATOM     22  N   UNL     1       4.660   5.111  15.830  0.00  0.00    +0.000 N 
ATOM     23  H   UNL     1       4.118   4.672  15.080  0.00  0.00    +0.000 HD
BRANCH  22  24
ATOM     24  C   UNL     1       4.206   4.812  17.155  0.00  0.00    +0.000 A 
ATOM     25  C   UNL     1       4.168   3.477  17.558  0.00  0.00    +0.000 A 
ATOM     26  C   UNL     1       3.683   3.142  18.825  0.00  0.00    +0.000 A 
ATOM     27  C   UNL     1       3.245   4.141  19.695  0.00  0.00    +0.000 A 
ATOM     28  C   UNL     1       3.279   5.479  19.298  0.00  0.00    +0.000 A 
ATOM     29  C   UNL     1       3.745   5.815  18.024  0.00  0.00    +0.000 A 
ATOM     30 CL   UNL     1       3.750   7.478  17.562  0.00  0.00    +0.000 Cl
ENDBRANCH  22  24
ENDBRANCH  19  22
ENDBRANCH   5  19
TORSDOF 6
ENDMDL
MODEL 7
REMARK VINA RESULT:      -8.0      1.074      1.175
REMARK  Name = 
REMARK  7 active torsions:
REMARK  status: ('A' for Active; 'I' for Inactive)
REMARK    1  A    between atoms: C_1  and  C_2
REMARK    2  A    between atoms: C_5  and  C_6
REMARK    3  A    between atoms: N_7  and  N_8
REMARK    4  A    between atoms: C_9  and  C_11
REMARK    5  A    between atoms: C_15  and  S_16
REMARK    6  A    between atoms: S_16  and  N_19
REMARK    7  A    between atoms: N_19  and  C_20
REMARK                            x       y       z     vdW  Elec       q    Type
REMARK                         _______ _______ _______ _____ _____    ______ ____
ROOT
ATOM      1  C   UNL     1       6.629   5.506  16.985  0.00  0.00    +0.000 A 
ATOM      2  C   UNL     1       6.755   5.405  15.589  0.00  0.00    +0.000 A 
ATOM      3  C   UNL     1       5.875   4.614  14.847  0.00  0.00    +0.000 A 
ATOM      4  C   UNL     1       4.846   3.932  15.492  0.00  0.00    +0.000 A 
ATOM      5  C   UNL     1       4.705   4.046  16.880  0.00  0.00    +0.000 A 
ATOM      6  C   UNL     1       5.606   4.812  17.638  0.00  0.00    +0.000 A 
ENDROOT
BRANCH   1   8
ATOM      7  N   UNL     1       7.791   7.674  17.098  0.00  0.00    +0.000 N 
ATOM      8  C   UNL     1       7.548   6.439  17.690  0.00  0.00    +0.000 C 
ATOM      9  O   UNL     1       8.035   6.068  18.757  0.00  0.00    +0.000 OA
ATOM     10  H   UNL     1       7.288   7.992  16.278  0.00  0.00    +0.000 HD
BRANCH   7  12
ATOM     11  C   UNL     1       8.230   9.648  18.178  0.00  0.00    +0.000 C 
ATOM     12  N   UNL     1       8.658   8.510  17.739  0.00  0.00    +0.000 NA
BRANCH  11  17
ATOM     13  C   UNL     1      11.966  12.714  18.474  0.00  0.00    +0.000 C 
ATOM     14  C   UNL     1      10.854  11.908  19.018  0.00  0.00    +0.000 A 
ATOM     15  C   UNL     1      10.370  11.734  20.296  0.00  0.00    +0.000 A 
ATOM     16  C   UNL     1       9.283  10.840  20.188  0.00  0.00    +0.000 A 
ATOM     17  C   UNL     1       9.161  10.515  18.851  0.00  0.00    +0.000 A 
ATOM     18  O   UNL     1      10.124  11.168  18.130  0.00  0.00    +0.000 OA
ENDBRANCH  11  17
ENDBRANCH   7  12
ENDBRANCH   1   8
BRANCH   5  19
ATOM     19  S   UNL     1       3.433   3.115  17.703  0.00  0.00    +0.000 S 
ATOM     20  O   UNL     1       2.161   3.610  17.226  0.00  0.00    +0.000 OA
ATOM     21  O   UNL     1       3.783   1.714  17.590  0.00  0.00    +0.000 OA
BRANCH  19  22
ATOM     22  N   UNL     1       3.557   3.622  19.316  0.00  0.00    +0.000 N 
ATOM     23  H   UNL     1       4.546   3.617  19.580  0.00  0.00    +0.000 HD
BRANCH  22  24
ATOM     24  C   UNL     1       2.842   4.808  19.681  0.00  0.00    +0.000 A 
ATOM     25  C   UNL     1       3.222   6.019  19.099  0.00  0.00    +0.000 A 
ATOM     26  C   UNL     1       2.583   7.204  19.469  0.00  0.00    +0.000 A 
ATOM     27  C   UNL     1       1.556   7.183  20.414  0.00  0.00    +0.000 A 
ATOM     28  C   UNL     1       1.172   5.976  21.001  0.00  0.00    +0.000 A 
ATOM     29  C   UNL     1       1.823   4.791  20.648  0.00  0.00    +0.000 A 
ATOM     30 CL   UNL     1       1.334   3.323  21.413  0.00  0.00    +0.000 Cl
ENDBRANCH  22  24
ENDBRANCH  19  22
ENDBRANCH   5  19
TORSDOF 6
ENDMDL
MODEL 8
REMARK VINA RESULT:      -7.9      5.998      8.787
REMARK  Name = 
REMARK  7 active torsions:
REMARK  status: ('A' for Active; 'I' for Inactive)
REMARK    1  A    between atoms: C_1  and  C_2
REMARK    2  A    between atoms: C_5  and  C_6
REMARK    3  A    between atoms: N_7  and  N_8
REMARK    4  A    between atoms: C_9  and  C_11
REMARK    5  A    between atoms: C_15  and  S_16
REMARK    6  A    between atoms: S_16  and  N_19
REMARK    7  A    between atoms: N_19  and  C_20
REMARK                            x       y       z     vdW  Elec       q    Type
REMARK                         _______ _______ _______ _____ _____    ______ ____
ROOT
ATOM      1  C   UNL     1       1.043   9.547  20.381  0.00  0.00    +0.000 A 
ATOM      2  C   UNL     1       1.187  10.235  19.164  0.00  0.00    +0.000 A 
ATOM      3  C   UNL     1       1.708   9.595  18.038  0.00  0.00    +0.000 A 
ATOM      4  C   UNL     1       2.071   8.252  18.112  0.00  0.00    +0.000 A 
ATOM      5  C   UNL     1       1.911   7.558  19.317  0.00  0.00    +0.000 A 
ATOM      6  C   UNL     1       1.419   8.203  20.463  0.00  0.00    +0.000 A 
ENDROOT
BRANCH   1   8
ATOM      7  N   UNL     1      -0.568  11.224  21.190  0.00  0.00    +0.000 N 
ATOM      8  C   UNL     1       0.397  10.274  21.506  0.00  0.00    +0.000 C 
ATOM      9  O   UNL     1       0.748   9.989  22.650  0.00  0.00    +0.000 OA
ATOM     10  H   UNL     1      -0.913  11.356  20.246  0.00  0.00    +0.000 HD
BRANCH   7  12
ATOM     11  C   UNL     1      -0.881  13.168  22.366  0.00  0.00    +0.000 C 
ATOM     12  N   UNL     1      -1.132  11.906  22.228  0.00  0.00    +0.000 NA
BRANCH  11  17
ATOM     13  C   UNL     1      -0.952  16.140  26.188  0.00  0.00    +0.000 C 
ATOM     14  C   UNL     1      -1.550  15.210  25.208  0.00  0.00    +0.000 A 
ATOM     15  C   UNL     1      -2.833  14.734  25.041  0.00  0.00    +0.000 A 
ATOM     16  C   UNL     1      -2.791  13.872  23.924  0.00  0.00    +0.000 A 
ATOM     17  C   UNL     1      -1.486  13.868  23.468  0.00  0.00    +0.000 A 
ATOM     18  O   UNL     1      -0.722  14.687  24.254  0.00  0.00    +0.000 OA
ENDBRANCH  11  17
ENDBRANCH   7  12
ENDBRANCH   1   8
BRANCH   5  19
ATOM     19  S   UNL     1       2.444   5.864  19.421  0.00  0.00    +0.000 S 
ATOM     20  O   UNL     1       2.253   5.437  20.790  0.00  0.00    +0.000 OA
ATOM     21  O   UNL     1       1.831   5.151  18.320  0.00  0.00    +0.000 OA
BRANCH  19  22
ATOM     22  N   UNL     1       4.121   5.966  19.193  0.00  0.00    +0.000 N 
ATOM     23  H   UNL     1       4.582   5.549  20.007  0.00  0.00    +0.000 HD
BRANCH  22  24
ATOM     24  C   UNL     1       4.632   5.539  17.926  0.00  0.00    +0.000 A 
ATOM     25  C   UNL     1       4.887   6.507  16.952  0.00  0.00    +0.000 A 
ATOM     26  C   UNL     1       5.338   6.124  15.686  0.00  0.00    +0.000 A 
ATOM     27  C   UNL     1       5.543   4.775  15.393  0.00  0.00    +0.000 A 
ATOM     28  C   UNL     1       5.288   3.802  16.361  0.00  0.00    +0.000 A 
ATOM     29  C   UNL     1       4.819   4.180  17.621  0.00  0.00    +0.000 A 
ATOM     30 CL   UNL     1       4.494   2.945  18.783  0.00  0.00    +0.000 Cl
ENDBRANCH  22  24
ENDBRANCH  19  22
ENDBRANCH   5  19
TORSDOF 6
ENDMDL
MODEL 9
REMARK VINA RESULT:      -7.9      4.115      7.154
REMARK  Name = 
REMARK  7 active torsions:
REMARK  status: ('A' for Active; 'I' for Inactive)
REMARK    1  A    between atoms: C_1  and  C_2
REMARK    2  A    between atoms: C_5  and  C_6
REMARK    3  A    between atoms: N_7  and  N_8
REMARK    4  A    between atoms: C_9  and  C_11
REMARK    5  A    between atoms: C_15  and  S_16
REMARK    6  A    between atoms: S_16  and  N_19
REMARK    7  A    between atoms: N_19  and  C_20
REMARK                            x       y       z     vdW  Elec       q    Type
REMARK                         _______ _______ _______ _____ _____    ______ ____
ROOT
ATOM      1  C   UNL     1       2.110   5.602  20.217  0.00  0.00    +0.000 A 
ATOM      2  C   UNL     1       1.946   4.969  21.460  0.00  0.00    +0.000 A 
ATOM      3  C   UNL     1       2.215   3.607  21.610  0.00  0.00    +0.000 A 
ATOM      4  C   UNL     1       2.674   2.869  20.522  0.00  0.00    +0.000 A 
ATOM      5  C   UNL     1       2.858   3.500  19.286  0.00  0.00    +0.000 A 
ATOM      6  C   UNL     1       2.557   4.862  19.118  0.00  0.00    +0.000 A 
ENDROOT
BRANCH   1   8
ATOM      7  N   UNL     1       1.343   7.683  21.286  0.00  0.00    +0.000 N 
ATOM      8  C   UNL     1       1.889   7.072  20.162  0.00  0.00    +0.000 C 
ATOM      9  O   UNL     1       2.205   7.662  19.131  0.00  0.00    +0.000 OA
ATOM     10  H   UNL     1       1.198   7.188  22.158  0.00  0.00    +0.000 HD
BRANCH   7  12
ATOM     11  C   UNL     1       0.160   9.544  21.915  0.00  0.00    +0.000 C 
ATOM     12  N   UNL     1       1.116   9.027  21.214  0.00  0.00    +0.000 NA
BRANCH  11  17
ATOM     13  C   UNL     1      -1.204  13.898  23.535  0.00  0.00    +0.000 C 
ATOM     14  C   UNL     1      -0.676  12.953  22.531  0.00  0.00    +0.000 A 
ATOM     15  C   UNL     1      -0.244  13.121  21.233  0.00  0.00    +0.000 A 
ATOM     16  C   UNL     1       0.150  11.842  20.781  0.00  0.00    +0.000 A 
ATOM     17  C   UNL     1      -0.063  10.963  21.825  0.00  0.00    +0.000 A 
ATOM     18  O   UNL     1      -0.570  11.641  22.900  0.00  0.00    +0.000 OA
ENDBRANCH  11  17
ENDBRANCH   7  12
ENDBRANCH   1   8
BRANCH   5  19
ATOM     19  S   UNL     1       3.375   2.535  17.886  0.00  0.00    +0.000 S 
ATOM     20  O   UNL     1       3.393   1.149  18.301  0.00  0.00    +0.000 OA
ATOM     21  O   UNL     1       2.588   2.967  16.750  0.00  0.00    +0.000 OA
BRANCH  19  22
ATOM     22  N   UNL     1       4.997   2.981  17.679  0.00  0.00    +0.000 N 
ATOM     23  H   UNL     1       5.500   2.188  17.269  0.00  0.00    +0.000 HD
BRANCH  22  24
ATOM     24  C   UNL     1       5.250   4.243  17.052  0.00  0.00    +0.000 A 
ATOM     25  C   UNL     1       5.091   4.341  15.669  0.00  0.00    +0.000 A 
ATOM     26  C   UNL     1       5.378   5.542  15.014  0.00  0.00    +0.000 A 
ATOM     27  C   UNL     1       5.814   6.650  15.742  0.00  0.00    +0.000 A 
ATOM     28  C   UNL     1       5.977   6.559  17.125  0.00  0.00    +0.000 A 
ATOM     29  C   UNL     1       5.710   5.354  17.779  0.00  0.00    +0.000 A 
ATOM     30 CL   UNL     1       5.946   5.275  19.488  0.00  0.00    +0.000 Cl
ENDBRANCH  22  24
ENDBRANCH  19  22
ENDBRANCH   5  19
TORSDOF 6
ENDMDL
