MODEL 1
REMARK VINA RESULT:      -7.4      0.000      0.000
REMARK  Name = 
REMARK  5 active torsions:
REMARK  status: ('A' for Active; 'I' for Inactive)
REMARK    1  A    between atoms: C_1  and  C_2
REMARK    2  A    between atoms: C_2  and  C_3
REMARK    3  A    between atoms: C_6  and  C_7
REMARK    4  A    between atoms: C_7  and  N_8
REMARK    5  A    between atoms: C_13  and  C_15
REMARK                            x       y       z     vdW  Elec       q    Type
REMARK                         _______ _______ _______ _____ _____    ______ ____
ROOT
ATOM      1  N   UNL     1       1.696   6.460  20.161  0.00  0.00    +0.000 NA
ATOM      2  C   UNL     1       1.791   5.196  20.914  0.00  0.00    +0.000 C 
ATOM      3  C   UNL     1       0.988   4.031  20.331  0.00  0.00    +0.000 C 
ATOM      4  C   UNL     1       1.311   3.558  18.915  0.00  0.00    +0.000 C 
ATOM      5  N   UNL     1       2.531   4.106  18.346  0.00  0.00    +0.000 N 
ATOM      6  C   UNL     1       3.687   3.311  18.310  0.00  0.00    +0.000 C 
ATOM      7  O   UNL     1       3.676   2.133  18.682  0.00  0.00    +0.000 OA
ATOM      8  C   UNL     1       2.435   5.499  17.912  0.00  0.00    +0.000 C 
ATOM      9  C   UNL     1       2.673   6.513  19.046  0.00  0.00    +0.000 C 
ENDROOT
BRANCH   6  10
ATOM     10  C   UNL     1       4.987   3.854  17.779  0.00  0.00    +0.000 A 
ATOM     11  C   UNL     1       5.215   3.836  16.405  0.00  0.00    +0.000 A 
ATOM     12  C   UNL     1       6.417   4.347  15.922  0.00  0.00    +0.000 A 
ATOM     13  C   UNL     1       7.356   4.847  16.818  0.00  0.00    +0.000 A 
ATOM     14  C   UNL     1       7.058   4.809  18.167  0.00  0.00    +0.000 A 
ATOM     15  N   UNL     1       5.901   4.322  18.665  0.00  0.00    +0.000 NA
ENDBRANCH   6  10
BRANCH   1  16
ATOM     16  C   UNL     1       1.908   7.629  21.062  0.00  0.00    +0.000 C 
BRANCH  16  20
ATOM     17  C   UNL     1      -0.264  10.241  20.034  0.00  0.00    +0.000 A 
ATOM     18  N   UNL     1      -0.547  10.302  21.317  0.00  0.00    +0.000 NA
ATOM     19  N   UNL     1       0.217   9.329  21.931  0.00  0.00    +0.000 NA
ATOM     20  C   UNL     1       0.909   8.741  20.976  0.00  0.00    +0.000 A 
ATOM     21  O   UNL     1       0.662   9.276  19.736  0.00  0.00    +0.000 OA
BRANCH  17  23
ATOM     22  C   UNL     1      -1.417  10.196  17.837  0.00  0.00    +0.000 C 
ATOM     23  C   UNL     1      -0.775  11.059  18.912  0.00  0.00    +0.000 C 
ENDBRANCH  17  23
ENDBRANCH  16  20
ENDBRANCH   1  16
TORSDOF 4
ENDMDL
MODEL 2
REMARK VINA RESULT:      -7.4      1.387      1.598
REMARK  Name = 
REMARK  5 active torsions:
REMARK  status: ('A' for Active; 'I' for Inactive)
REMARK    1  A    between atoms: C_1  and  C_2
REMARK    2  A    between atoms: C_2  and  C_3
REMARK    3  A    between atoms: C_6  and  C_7
REMARK    4  A    between atoms: C_7  and  N_8
REMARK    5  A    between atoms: C_13  and  C_15
REMARK                            x       y       z     vdW  Elec       q    Type
REMARK                         _______ _______ _______ _____ _____    ______ ____
ROOT
ATOM      1  N   UNL     1       1.756   6.416  20.200  0.00  0.00    +0.000 NA
ATOM      2  C   UNL     1       1.818   5.114  20.889  0.00  0.00    +0.000 C 
ATOM      3  C   UNL     1       0.974   4.005  20.255  0.00  0.00    +0.000 C 
ATOM      4  C   UNL     1       1.272   3.594  18.815  0.00  0.00    +0.000 C 
ATOM      5  N   UNL     1       2.503   4.132  18.262  0.00  0.00    +0.000 N 
ATOM      6  C   UNL     1       3.634   3.305  18.176  0.00  0.00    +0.000 C 
ATOM      7  O   UNL     1       3.590   2.111  18.488  0.00  0.00    +0.000 OA
ATOM      8  C   UNL     1       2.448   5.548  17.899  0.00  0.00    +0.000 C 
ATOM      9  C   UNL     1       2.726   6.496  19.080  0.00  0.00    +0.000 C 
ENDROOT
BRANCH   6  10
ATOM     10  C   UNL     1       4.946   3.834  17.660  0.00  0.00    +0.000 A 
ATOM     11  C   UNL     1       5.187   3.821  16.289  0.00  0.00    +0.000 A 
ATOM     12  C   UNL     1       6.400   4.319  15.819  0.00  0.00    +0.000 A 
ATOM     13  C   UNL     1       7.337   4.802  16.727  0.00  0.00    +0.000 A 
ATOM     14  C   UNL     1       7.025   4.760  18.073  0.00  0.00    +0.000 A 
ATOM     15  N   UNL     1       5.858   4.285  18.557  0.00  0.00    +0.000 NA
ENDBRANCH   6  10
BRANCH   1  16
ATOM     16  C   UNL     1       2.011   7.532  21.156  0.00  0.00    +0.000 C 
BRANCH  16  20
ATOM     17  C   UNL     1      -0.334  10.046  22.035  0.00  0.00    +0.000 A 
ATOM     18  N   UNL     1      -0.381  10.241  20.735  0.00  0.00    +0.000 NA
ATOM     19  N   UNL     1       0.495   9.332  20.174  0.00  0.00    +0.000 NA
ATOM     20  C   UNL     1       1.016   8.650  21.174  0.00  0.00    +0.000 A 
ATOM     21  O   UNL     1       0.527   9.044  22.395  0.00  0.00    +0.000 OA
BRANCH  17  23
ATOM     22  C   UNL     1      -1.879  11.904  22.598  0.00  0.00    +0.000 C 
ATOM     23  C   UNL     1      -1.078  10.724  23.121  0.00  0.00    +0.000 C 
ENDBRANCH  17  23
ENDBRANCH  16  20
ENDBRANCH   1  16
TORSDOF 4
ENDMDL
MODEL 3
REMARK VINA RESULT:      -7.4      3.894      6.140
REMARK  Name = 
REMARK  5 active torsions:
REMARK  status: ('A' for Active; 'I' for Inactive)
REMARK    1  A    between atoms: C_1  and  C_2
REMARK    2  A    between atoms: C_2  and  C_3
REMARK    3  A    between atoms: C_6  and  C_7
REMARK    4  A    between atoms: C_7  and  N_8
REMARK    5  A    between atoms: C_13  and  C_15
REMARK                            x       y       z     vdW  Elec       q    Type
REMARK                         _______ _______ _______ _____ _____    ______ ____
ROOT
ATOM      1  N   UNL     1       4.383   5.419  17.356  0.00  0.00    +0.000 NA
ATOM      2  C   UNL     1       5.096   6.608  16.853  0.00  0.00    +0.000 C 
ATOM      3  C   UNL     1       6.598   6.635  17.145  0.00  0.00    +0.000 C 
ATOM      4  C   UNL     1       7.470   5.510  16.591  0.00  0.00    +0.000 C 
ATOM      5  N   UNL     1       6.818   4.645  15.622  0.00  0.00    +0.000 N 
ATOM      6  C   UNL     1       7.091   4.819  14.256  0.00  0.00    +0.000 C 
ATOM      7  O   UNL     1       7.928   5.637  13.861  0.00  0.00    +0.000 OA
ATOM      8  C   UNL     1       5.864   3.694  16.190  0.00  0.00    +0.000 C 
ATOM      9  C   UNL     1       4.458   4.286  16.402  0.00  0.00    +0.000 C 
ENDROOT
BRANCH   6  10
ATOM     10  C   UNL     1       6.400   3.982  13.213  0.00  0.00    +0.000 A 
ATOM     11  C   UNL     1       7.165   3.157  12.393  0.00  0.00    +0.000 A 
ATOM     12  C   UNL     1       6.516   2.381  11.435  0.00  0.00    +0.000 A 
ATOM     13  C   UNL     1       5.132   2.459  11.317  0.00  0.00    +0.000 A 
ATOM     14  C   UNL     1       4.451   3.319  12.158  0.00  0.00    +0.000 A 
ATOM     15  N   UNL     1       5.052   4.081  13.095  0.00  0.00    +0.000 NA
ENDBRANCH   6  10
BRANCH   1  16
ATOM     16  C   UNL     1       2.953   5.738  17.635  0.00  0.00    +0.000 C 
BRANCH  16  20
ATOM     17  C   UNL     1       1.300   3.286  19.595  0.00  0.00    +0.000 A 
ATOM     18  N   UNL     1       0.740   2.968  18.449  0.00  0.00    +0.000 NA
ATOM     19  N   UNL     1       1.260   3.836  17.509  0.00  0.00    +0.000 NA
ATOM     20  C   UNL     1       2.098   4.624  18.151  0.00  0.00    +0.000 A 
ATOM     21  O   UNL     1       2.184   4.327  19.489  0.00  0.00    +0.000 OA
BRANCH  17  23
ATOM     22  C   UNL     1       2.391   2.799  21.770  0.00  0.00    +0.000 C 
ATOM     23  C   UNL     1       1.128   2.677  20.934  0.00  0.00    +0.000 C 
ENDBRANCH  17  23
ENDBRANCH  16  20
ENDBRANCH   1  16
TORSDOF 4
ENDMDL
MODEL 4
REMARK VINA RESULT:      -7.2      3.178      7.555
REMARK  Name = 
REMARK  5 active torsions:
REMARK  status: ('A' for Active; 'I' for Inactive)
REMARK    1  A    between atoms: C_1  and  C_2
REMARK    2  A    between atoms: C_2  and  C_3
REMARK    3  A    between atoms: C_6  and  C_7
REMARK    4  A    between atoms: C_7  and  N_8
REMARK    5  A    between atoms: C_13  and  C_15
REMARK                            x       y       z     vdW  Elec       q    Type
REMARK                         _______ _______ _______ _____ _____    ______ ____
ROOT
ATOM      1  N   UNL     1       5.076   5.577  16.506  0.00  0.00    +0.000 NA
ATOM      2  C   UNL     1       5.195   6.748  17.394  0.00  0.00    +0.000 C 
ATOM      3  C   UNL     1       4.037   7.745  17.310  0.00  0.00    +0.000 C 
ATOM      4  C   UNL     1       2.628   7.259  17.645  0.00  0.00    +0.000 C 
ATOM      5  N   UNL     1       2.561   5.943  18.258  0.00  0.00    +0.000 N 
ATOM      6  C   UNL     1       2.358   5.842  19.644  0.00  0.00    +0.000 C 
ATOM      7  O   UNL     1       2.161   6.840  20.345  0.00  0.00    +0.000 OA
ATOM      8  C   UNL     1       2.782   4.826  17.341  0.00  0.00    +0.000 C 
ATOM      9  C   UNL     1       4.270   4.496  17.123  0.00  0.00    +0.000 C 
ENDROOT
BRANCH   6  10
ATOM     10  C   UNL     1       2.334   4.503  20.330  0.00  0.00    +0.000 A 
ATOM     11  C   UNL     1       1.122   4.009  20.804  0.00  0.00    +0.000 A 
ATOM     12  C   UNL     1       1.107   2.765  21.432  0.00  0.00    +0.000 A 
ATOM     13  C   UNL     1       2.297   2.059  21.576  0.00  0.00    +0.000 A 
ATOM     14  C   UNL     1       3.459   2.632  21.093  0.00  0.00    +0.000 A 
ATOM     15  N   UNL     1       3.504   3.833  20.480  0.00  0.00    +0.000 NA
ENDBRANCH   6  10
BRANCH   1  16
ATOM     16  C   UNL     1       6.423   5.047  16.148  0.00  0.00    +0.000 C 
BRANCH  16  20
ATOM     17  C   UNL     1       6.421   3.784  12.831  0.00  0.00    +0.000 A 
ATOM     18  N   UNL     1       7.377   4.670  12.657  0.00  0.00    +0.000 NA
ATOM     19  N   UNL     1       7.546   5.305  13.872  0.00  0.00    +0.000 NA
ATOM     20  C   UNL     1       6.676   4.761  14.700  0.00  0.00    +0.000 A 
ATOM     21  O   UNL     1       5.927   3.775  14.109  0.00  0.00    +0.000 OA
BRANCH  17  23
ATOM     22  C   UNL     1       4.444   3.222  11.442  0.00  0.00    +0.000 C 
ATOM     23  C   UNL     1       5.843   2.815  11.874  0.00  0.00    +0.000 C 
ENDBRANCH  17  23
ENDBRANCH  16  20
ENDBRANCH   1  16
TORSDOF 4
ENDMDL
MODEL 5
REMARK VINA RESULT:      -7.2      1.509      1.921
REMARK  Name = 
REMARK  5 active torsions:
REMARK  status: ('A' for Active; 'I' for Inactive)
REMARK    1  A    between atoms: C_1  and  C_2
REMARK    2  A    between atoms: C_2  and  C_3
REMARK    3  A    between atoms: C_6  and  C_7
REMARK    4  A    between atoms: C_7  and  N_8
REMARK    5  A    between atoms: C_13  and  C_15
REMARK                            x       y       z     vdW  Elec       q    Type
REMARK                         _______ _______ _______ _____ _____    ______ ____
ROOT
ATOM      1  N   UNL     1       1.738   6.377  20.213  0.00  0.00    +0.000 NA
ATOM      2  C   UNL     1       1.825   5.072  20.894  0.00  0.00    +0.000 C 
ATOM      3  C   UNL     1       0.981   3.958  20.270  0.00  0.00    +0.000 C 
ATOM      4  C   UNL     1       1.258   3.556  18.823  0.00  0.00    +0.000 C 
ATOM      5  N   UNL     1       2.475   4.109  18.252  0.00  0.00    +0.000 N 
ATOM      6  C   UNL     1       3.613   3.293  18.143  0.00  0.00    +0.000 C 
ATOM      7  O   UNL     1       3.585   2.097  18.451  0.00  0.00    +0.000 OA
ATOM      8  C   UNL     1       2.400   5.525  17.897  0.00  0.00    +0.000 C 
ATOM      9  C   UNL     1       2.688   6.470  19.077  0.00  0.00    +0.000 C 
ENDROOT
BRANCH   6  10
ATOM     10  C   UNL     1       4.910   3.837  17.608  0.00  0.00    +0.000 A 
ATOM     11  C   UNL     1       5.812   4.426  18.491  0.00  0.00    +0.000 A 
ATOM     12  C   UNL     1       7.013   4.920  17.988  0.00  0.00    +0.000 A 
ATOM     13  C   UNL     1       7.274   4.823  16.625  0.00  0.00    +0.000 A 
ATOM     14  C   UNL     1       6.316   4.241  15.816  0.00  0.00    +0.000 A 
ATOM     15  N   UNL     1       5.145   3.753  16.275  0.00  0.00    +0.000 NA
ENDBRANCH   6  10
BRANCH   1  16
ATOM     16  C   UNL     1       1.999   7.491  21.170  0.00  0.00    +0.000 C 
BRANCH  16  20
ATOM     17  C   UNL     1      -0.331  10.028  22.022  0.00  0.00    +0.000 A 
ATOM     18  N   UNL     1      -0.350  10.232  20.723  0.00  0.00    +0.000 NA
ATOM     19  N   UNL     1       0.524   9.317  20.173  0.00  0.00    +0.000 NA
ATOM     20  C   UNL     1       1.018   8.621  21.177  0.00  0.00    +0.000 A 
ATOM     21  O   UNL     1       0.511   9.013  22.391  0.00  0.00    +0.000 OA
BRANCH  17  23
ATOM     22  C   UNL     1      -1.213  12.199  22.837  0.00  0.00    +0.000 C 
ATOM     23  C   UNL     1      -1.086  10.708  23.099  0.00  0.00    +0.000 C 
ENDBRANCH  17  23
ENDBRANCH  16  20
ENDBRANCH   1  16
TORSDOF 4
ENDMDL
MODEL 6
REMARK VINA RESULT:      -7.1      0.613      1.013
REMARK  Name = 
REMARK  5 active torsions:
REMARK  status: ('A' for Active; 'I' for Inactive)
REMARK    1  A    between atoms: C_1  and  C_2
REMARK    2  A    between atoms: C_2  and  C_3
REMARK    3  A    between atoms: C_6  and  C_7
REMARK    4  A    between atoms: C_7  and  N_8
REMARK    5  A    between atoms: C_13  and  C_15
REMARK                            x       y       z     vdW  Elec       q    Type
REMARK                         _______ _______ _______ _____ _____    ______ ____
ROOT
ATOM      1  N   UNL     1       1.712   6.446  20.184  0.00  0.00    +0.000 NA
ATOM      2  C   UNL     1       1.811   5.166  20.908  0.00  0.00    +0.000 C 
ATOM      3  C   UNL     1       0.984   4.021  20.317  0.00  0.00    +0.000 C 
ATOM      4  C   UNL     1       1.273   3.575  18.885  0.00  0.00    +0.000 C 
ATOM      5  N   UNL     1       2.487   4.123  18.303  0.00  0.00    +0.000 N 
ATOM      6  C   UNL     1       3.634   3.318  18.227  0.00  0.00    +0.000 C 
ATOM      7  O   UNL     1       3.619   2.133  18.573  0.00  0.00    +0.000 OA
ATOM      8  C   UNL     1       2.396   5.526  17.901  0.00  0.00    +0.000 C 
ATOM      9  C   UNL     1       2.667   6.513  19.051  0.00  0.00    +0.000 C 
ENDROOT
BRANCH   6  10
ATOM     10  C   UNL     1       4.928   3.859  17.680  0.00  0.00    +0.000 A 
ATOM     11  C   UNL     1       5.828   4.466  18.551  0.00  0.00    +0.000 A 
ATOM     12  C   UNL     1       7.026   4.958  18.038  0.00  0.00    +0.000 A 
ATOM     13  C   UNL     1       7.285   4.840  16.677  0.00  0.00    +0.000 A 
ATOM     14  C   UNL     1       6.328   4.241  15.879  0.00  0.00    +0.000 A 
ATOM     15  N   UNL     1       5.160   3.755  16.348  0.00  0.00    +0.000 NA
ENDBRANCH   6  10
BRANCH   1  16
ATOM     16  C   UNL     1       1.955   7.594  21.105  0.00  0.00    +0.000 C 
BRANCH  16  20
ATOM     17  C   UNL     1      -0.354  10.172  20.321  0.00  0.00    +0.000 A 
ATOM     18  N   UNL     1      -0.557  10.174  21.620  0.00  0.00    +0.000 NA
ATOM     19  N   UNL     1       0.272   9.203  22.145  0.00  0.00    +0.000 NA
ATOM     20  C   UNL     1       0.920   8.676  21.126  0.00  0.00    +0.000 A 
ATOM     21  O   UNL     1       0.580   9.250  19.927  0.00  0.00    +0.000 OA
BRANCH  17  23
ATOM     22  C   UNL     1      -1.173  10.238  17.980  0.00  0.00    +0.000 C 
ATOM     23  C   UNL     1      -0.959  11.017  19.267  0.00  0.00    +0.000 C 
ENDBRANCH  17  23
ENDBRANCH  16  20
ENDBRANCH   1  16
TORSDOF 4
ENDMDL
MODEL 7
REMARK VINA RESULT:      -7.1      4.342      7.842
REMARK  Name = 
REMARK  5 active torsions:
REMARK  status: ('A' for Active; 'I' for Inactive)
REMARK    1  A    between atoms: C_1  and  C_2
REMARK    2  A    between atoms: C_2  and  C_3
REMARK    3  A    between atoms: C_6  and  C_7
REMARK    4  A    between atoms: C_7  and  N_8
REMARK    5  A    between atoms: C_13  and  C_15
REMARK                            x       y       z     vdW  Elec       q    Type
REMARK                         _______ _______ _______ _____ _____    ______ ____
ROOT
ATOM      1  N   UNL     1       5.575   5.807  16.412  0.00  0.00    +0.000 NA
ATOM      2  C   UNL     1       6.393   4.596  16.608  0.00  0.00    +0.000 C 
ATOM      3  C   UNL     1       7.278   4.607  17.857  0.00  0.00    +0.000 C 
ATOM      4  C   UNL     1       6.610   4.739  19.224  0.00  0.00    +0.000 C 
ATOM      5  N   UNL     1       5.164   4.592  19.220  0.00  0.00    +0.000 N 
ATOM      6  C   UNL     1       4.598   3.380  19.646  0.00  0.00    +0.000 C 
ATOM      7  O   UNL     1       5.292   2.462  20.094  0.00  0.00    +0.000 OA
ATOM      8  C   UNL     1       4.430   5.742  18.695  0.00  0.00    +0.000 C 
ATOM      9  C   UNL     1       4.297   5.738  17.161  0.00  0.00    +0.000 C 
ENDROOT
BRANCH   6  10
ATOM     10  C   UNL     1       3.109   3.163  19.609  0.00  0.00    +0.000 A 
ATOM     11  C   UNL     1       2.344   3.538  20.711  0.00  0.00    +0.000 A 
ATOM     12  C   UNL     1       0.966   3.340  20.666  0.00  0.00    +0.000 A 
ATOM     13  C   UNL     1       0.395   2.768  19.534  0.00  0.00    +0.000 A 
ATOM     14  C   UNL     1       1.230   2.407  18.492  0.00  0.00    +0.000 A 
ATOM     15  N   UNL     1       2.567   2.588  18.507  0.00  0.00    +0.000 NA
ENDBRANCH   6  10
BRANCH   1  16
ATOM     16  C   UNL     1       5.289   6.023  14.964  0.00  0.00    +0.000 C 
BRANCH  16  20
ATOM     17  C   UNL     1       6.277   3.543  12.625  0.00  0.00    +0.000 A 
ATOM     18  N   UNL     1       7.438   4.157  12.698  0.00  0.00    +0.000 NA
ATOM     19  N   UNL     1       7.272   5.200  13.587  0.00  0.00    +0.000 NA
ATOM     20  C   UNL     1       6.019   5.149  13.991  0.00  0.00    +0.000 A 
ATOM     21  O   UNL     1       5.322   4.111  13.426  0.00  0.00    +0.000 OA
BRANCH  17  23
ATOM     22  C   UNL     1       7.071   1.743  11.113  0.00  0.00    +0.000 C 
ATOM     23  C   UNL     1       5.883   2.351  11.841  0.00  0.00    +0.000 C 
ENDBRANCH  17  23
ENDBRANCH  16  20
ENDBRANCH   1  16
TORSDOF 4
ENDMDL
MODEL 8
REMARK VINA RESULT:      -7.1      4.149      7.504
REMARK  Name = 
REMARK  5 active torsions:
REMARK  status: ('A' for Active; 'I' for Inactive)
REMARK    1  A    between atoms: C_1  and  C_2
REMARK    2  A    between atoms: C_2  and  C_3
REMARK    3  A    between atoms: C_6  and  C_7
REMARK    4  A    between atoms: C_7  and  N_8
REMARK    5  A    between atoms: C_13  and  C_15
REMARK                            x       y       z     vdW  Elec       q    Type
REMARK                         _______ _______ _______ _____ _____    ______ ____
ROOT
ATOM      1  N   UNL     1       5.604   5.892  16.591  0.00  0.00    +0.000 NA
ATOM      2  C   UNL     1       6.402   4.662  16.746  0.00  0.00    +0.000 C 
ATOM      3  C   UNL     1       7.280   4.614  17.999  0.00  0.00    +0.000 C 
ATOM      4  C   UNL     1       6.607   4.706  19.367  0.00  0.00    +0.000 C 
ATOM      5  N   UNL     1       5.159   4.580  19.350  0.00  0.00    +0.000 N 
ATOM      6  C   UNL     1       4.572   3.362  19.728  0.00  0.00    +0.000 C 
ATOM      7  O   UNL     1       5.250   2.418  20.146  0.00  0.00    +0.000 OA
ATOM      8  C   UNL     1       4.445   5.760  18.864  0.00  0.00    +0.000 C 
ATOM      9  C   UNL     1       4.320   5.813  17.330  0.00  0.00    +0.000 C 
ENDROOT
BRANCH   6  10
ATOM     10  C   UNL     1       3.081   3.169  19.676  0.00  0.00    +0.000 A 
ATOM     11  C   UNL     1       2.517   2.562  18.557  0.00  0.00    +0.000 A 
ATOM     12  C   UNL     1       1.136   2.380  18.520  0.00  0.00    +0.000 A 
ATOM     13  C   UNL     1       0.362   2.817  19.590  0.00  0.00    +0.000 A 
ATOM     14  C   UNL     1       1.000   3.428  20.653  0.00  0.00    +0.000 A 
ATOM     15  N   UNL     1       2.335   3.616  20.717  0.00  0.00    +0.000 NA
ENDBRANCH   6  10
BRANCH   1  16
ATOM     16  C   UNL     1       5.329   6.165  15.150  0.00  0.00    +0.000 C 
BRANCH  16  20
ATOM     17  C   UNL     1       6.012   3.669  12.722  0.00  0.00    +0.000 A 
ATOM     18  N   UNL     1       7.247   4.105  12.845  0.00  0.00    +0.000 NA
ATOM     19  N   UNL     1       7.209   5.123  13.778  0.00  0.00    +0.000 NA
ATOM     20  C   UNL     1       5.951   5.237  14.154  0.00  0.00    +0.000 A 
ATOM     21  O   UNL     1       5.128   4.335  13.528  0.00  0.00    +0.000 OA
BRANCH  17  23
ATOM     22  C   UNL     1       4.171   2.987  11.205  0.00  0.00    +0.000 C 
ATOM     23  C   UNL     1       5.473   2.581  11.876  0.00  0.00    +0.000 C 
ENDBRANCH  17  23
ENDBRANCH  16  20
ENDBRANCH   1  16
TORSDOF 4
ENDMDL
MODEL 9
REMARK VINA RESULT:      -7.0      2.992      6.473
REMARK  Name = 
REMARK  5 active torsions:
REMARK  status: ('A' for Active; 'I' for Inactive)
REMARK    1  A    between atoms: C_1  and  C_2
REMARK    2  A    between atoms: C_2  and  C_3
REMARK    3  A    between atoms: C_6  and  C_7
REMARK    4  A    between atoms: C_7  and  N_8
REMARK    5  A    between atoms: C_13  and  C_15
REMARK                            x       y       z     vdW  Elec       q    Type
REMARK                         _______ _______ _______ _____ _____    ______ ____
ROOT
ATOM      1  N   UNL     1       6.265   4.375  18.349  0.00  0.00    +0.000 NA
ATOM      2  C   UNL     1       5.505   3.981  17.149  0.00  0.00    +0.000 C 
ATOM      3  C   UNL     1       4.507   2.840  17.360  0.00  0.00    +0.000 C 
ATOM      4  C   UNL     1       3.381   3.032  18.375  0.00  0.00    +0.000 C 
ATOM      5  N   UNL     1       3.222   4.390  18.867  0.00  0.00    +0.000 N 
ATOM      6  C   UNL     1       2.186   5.187  18.356  0.00  0.00    +0.000 C 
ATOM      7  O   UNL     1       1.360   4.741  17.552  0.00  0.00    +0.000 OA
ATOM      8  C   UNL     1       4.233   4.817  19.833  0.00  0.00    +0.000 C 
ATOM      9  C   UNL     1       5.519   5.353  19.179  0.00  0.00    +0.000 C 
ENDROOT
BRANCH   6  10
ATOM     10  C   UNL     1       2.014   6.616  18.797  0.00  0.00    +0.000 A 
ATOM     11  C   UNL     1       2.164   7.635  17.860  0.00  0.00    +0.000 A 
ATOM     12  C   UNL     1       1.997   8.954  18.276  0.00  0.00    +0.000 A 
ATOM     13  C   UNL     1       1.696   9.217  19.608  0.00  0.00    +0.000 A 
ATOM     14  C   UNL     1       1.583   8.147  20.476  0.00  0.00    +0.000 A 
ATOM     15  N   UNL     1       1.739   6.860  20.102  0.00  0.00    +0.000 NA
ENDBRANCH   6  10
BRANCH   1  16
ATOM     16  C   UNL     1       7.587   4.952  17.972  0.00  0.00    +0.000 C 
BRANCH  16  20
ATOM     17  C   UNL     1       8.228   8.433  18.231  0.00  0.00    +0.000 A 
ATOM     18  N   UNL     1       7.445   8.499  17.177  0.00  0.00    +0.000 NA
ATOM     19  N   UNL     1       7.067   7.203  16.890  0.00  0.00    +0.000 NA
ATOM     20  C   UNL     1       7.651   6.437  17.789  0.00  0.00    +0.000 A 
ATOM     21  O   UNL     1       8.404   7.153  18.686  0.00  0.00    +0.000 OA
BRANCH  17  23
ATOM     22  C   UNL     1       9.010  10.786  18.148  0.00  0.00    +0.000 C 
ATOM     23  C   UNL     1       8.904   9.518  18.978  0.00  0.00    +0.000 C 
ENDBRANCH  17  23
ENDBRANCH  16  20
ENDBRANCH   1  16
TORSDOF 4
ENDMDL
