MODEL 1
REMARK VINA RESULT:      -6.2      0.000      0.000
REMARK  Name = 
REMARK  12 active torsions:
REMARK  status: ('A' for Active; 'I' for Inactive)
REMARK    1  A    between atoms: C_1  and  C_2
REMARK    2  A    between atoms: C_2  and  C_3
REMARK    3  A    between atoms: C_3  and  C_4
REMARK    4  A    between atoms: C_4  and  C_5
REMARK    5  A    between atoms: C_5  and  C_6
REMARK    6  A    between atoms: C_6  and  C_7
REMARK    7  A    between atoms: C_7  and  C_8
REMARK    8  A    between atoms: C_8  and  C_9
REMARK    9  A    between atoms: C_9  and  C_10
REMARK   10  A    between atoms: C_14  and  C_15
REMARK   11  A    between atoms: C_16  and  O_17
REMARK   12  A    between atoms: O_17  and  C_18
REMARK                            x       y       z     vdW  Elec       q    Type
REMARK                         _______ _______ _______ _____ _____    ______ ____
ROOT
ATOM      1  C   UNL     1       4.375   5.088  17.784  0.00  0.00    +0.000 C 
ATOM      2  C   UNL     1       3.193   5.857  18.397  0.00  0.00    +0.000 C 
ATOM      3  S   UNL     1       5.242   4.300  19.213  0.00  0.00    +0.000 S 
ATOM      4  C   UNL     1       6.539   5.465  19.194  0.00  0.00    +0.000 C 
ATOM      5  O   UNL     1       7.353   5.592  20.095  0.00  0.00    +0.000 OA
ATOM      6  C   UNL     1       6.545   6.221  17.933  0.00  0.00    +0.000 C 
ATOM      7  C   UNL     1       7.735   7.030  17.558  0.00  0.00    +0.000 C 
ATOM      8  C   UNL     1       5.431   6.025  17.209  0.00  0.00    +0.000 C 
ENDROOT
BRANCH   8   9
ATOM      9  O   UNL     1       5.402   6.428  15.885  0.00  0.00    +0.000 OA
ATOM     10  C   UNL     1       5.875   5.515  14.903  0.00  0.00    +0.000 C 
ENDBRANCH   8   9
BRANCH   1  11
ATOM     11  C   UNL     1       3.942   4.024  16.757  0.00  0.00    +0.000 C 
BRANCH  11  12
ATOM     12  C   UNL     1       2.612   3.309  16.995  0.00  0.00    +0.000 C 
BRANCH  12  13
ATOM     13  C   UNL     1       2.883   1.943  17.629  0.00  0.00    +0.000 C 
BRANCH  13  14
ATOM     14  C   UNL     1       2.182   1.815  18.974  0.00  0.00    +0.000 C 
BRANCH  14  15
ATOM     15  C   UNL     1       0.778   2.422  18.928  0.00  0.00    +0.000 C 
BRANCH  15  16
ATOM     16  C   UNL     1       0.598   3.402  20.078  0.00  0.00    +0.000 C 
BRANCH  16  18
ATOM     17  C   UNL     1       2.368   4.176  21.665  0.00  0.00    +0.000 C 
ATOM     18  C   UNL     1       1.449   3.027  21.285  0.00  0.00    +0.000 C 
ENDBRANCH  16  18
ENDBRANCH  15  16
ENDBRANCH  14  15
ENDBRANCH  13  14
ENDBRANCH  12  13
ENDBRANCH  11  12
ENDBRANCH   1  11
TORSDOF 8
ENDMDL
MODEL 2
REMARK VINA RESULT:      -6.1      2.884      6.193
REMARK  Name = 
REMARK  12 active torsions:
REMARK  status: ('A' for Active; 'I' for Inactive)
REMARK    1  A    between atoms: C_1  and  C_2
REMARK    2  A    between atoms: C_2  and  C_3
REMARK    3  A    between atoms: C_3  and  C_4
REMARK    4  A    between atoms: C_4  and  C_5
REMARK    5  A    between atoms: C_5  and  C_6
REMARK    6  A    between atoms: C_6  and  C_7
REMARK    7  A    between atoms: C_7  and  C_8
REMARK    8  A    between atoms: C_8  and  C_9
REMARK    9  A    between atoms: C_9  and  C_10
REMARK   10  A    between atoms: C_14  and  C_15
REMARK   11  A    between atoms: C_16  and  O_17
REMARK   12  A    between atoms: O_17  and  C_18
REMARK                            x       y       z     vdW  Elec       q    Type
REMARK                         _______ _______ _______ _____ _____    ______ ____
ROOT
ATOM      1  C   UNL     1       5.272   5.058  17.756  0.00  0.00    +0.000 C 
ATOM      2  C   UNL     1       5.954   5.047  19.133  0.00  0.00    +0.000 C 
ATOM      3  S   UNL     1       4.739   6.807  17.485  0.00  0.00    +0.000 S 
ATOM      4  C   UNL     1       3.068   6.454  17.838  0.00  0.00    +0.000 C 
ATOM      5  O   UNL     1       2.220   7.310  18.038  0.00  0.00    +0.000 OA
ATOM      6  C   UNL     1       2.821   5.006  17.805  0.00  0.00    +0.000 C 
ATOM      7  C   UNL     1       1.426   4.491  17.755  0.00  0.00    +0.000 C 
ATOM      8  C   UNL     1       3.955   4.289  17.762  0.00  0.00    +0.000 C 
ENDROOT
BRANCH   8   9
ATOM      9  O   UNL     1       3.898   2.944  17.441  0.00  0.00    +0.000 OA
ATOM     10  C   UNL     1       3.715   2.015  18.502  0.00  0.00    +0.000 C 
ENDBRANCH   8   9
BRANCH   1  11
ATOM     11  C   UNL     1       6.196   4.588  16.615  0.00  0.00    +0.000 C 
BRANCH  11  12
ATOM     12  C   UNL     1       6.072   5.297  15.266  0.00  0.00    +0.000 C 
BRANCH  12  13
ATOM     13  C   UNL     1       5.332   4.384  14.285  0.00  0.00    +0.000 C 
BRANCH  13  14
ATOM     14  C   UNL     1       6.306   3.505  13.515  0.00  0.00    +0.000 C 
BRANCH  14  15
ATOM     15  C   UNL     1       6.127   3.670  12.004  0.00  0.00    +0.000 C 
BRANCH  15  16
ATOM     16  C   UNL     1       5.044   2.727  11.503  0.00  0.00    +0.000 C 
BRANCH  16  18
ATOM     17  C   UNL     1       3.291   3.648   9.977  0.00  0.00    +0.000 C 
ATOM     18  C   UNL     1       3.685   3.410  11.426  0.00  0.00    +0.000 C 
ENDBRANCH  16  18
ENDBRANCH  15  16
ENDBRANCH  14  15
ENDBRANCH  13  14
ENDBRANCH  12  13
ENDBRANCH  11  12
ENDBRANCH   1  11
TORSDOF 8
ENDMDL
MODEL 3
REMARK VINA RESULT:      -6.0      3.135      6.346
REMARK  Name = 
REMARK  12 active torsions:
REMARK  status: ('A' for Active; 'I' for Inactive)
REMARK    1  A    between atoms: C_1  and  C_2
REMARK    2  A    between atoms: C_2  and  C_3
REMARK    3  A    between atoms: C_3  and  C_4
REMARK    4  A    between atoms: C_4  and  C_5
REMARK    5  A    between atoms: C_5  and  C_6
REMARK    6  A    between atoms: C_6  and  C_7
REMARK    7  A    between atoms: C_7  and  C_8
REMARK    8  A    between atoms: C_8  and  C_9
REMARK    9  A    between atoms: C_9  and  C_10
REMARK   10  A    between atoms: C_14  and  C_15
REMARK   11  A    between atoms: C_16  and  O_17
REMARK   12  A    between atoms: O_17  and  C_18
REMARK                            x       y       z     vdW  Elec       q    Type
REMARK                         _______ _______ _______ _____ _____    ______ ____
ROOT
ATOM      1  C   UNL     1       5.211   4.889  17.647  0.00  0.00    +0.000 C 
ATOM      2  C   UNL     1       6.011   4.932  18.959  0.00  0.00    +0.000 C 
ATOM      3  S   UNL     1       4.700   6.636  17.326  0.00  0.00    +0.000 S 
ATOM      4  C   UNL     1       3.059   6.352  17.841  0.00  0.00    +0.000 C 
ATOM      5  O   UNL     1       2.253   7.242  18.065  0.00  0.00    +0.000 OA
ATOM      6  C   UNL     1       2.773   4.912  17.911  0.00  0.00    +0.000 C 
ATOM      7  C   UNL     1       1.367   4.438  18.010  0.00  0.00    +0.000 C 
ATOM      8  C   UNL     1       3.881   4.161  17.810  0.00  0.00    +0.000 C 
ENDROOT
BRANCH   8   9
ATOM      9  O   UNL     1       3.762   2.803  17.572  0.00  0.00    +0.000 OA
ATOM     10  C   UNL     1       3.680   1.936  18.696  0.00  0.00    +0.000 C 
ENDBRANCH   8   9
BRANCH   1  11
ATOM     11  C   UNL     1       6.019   4.331  16.460  0.00  0.00    +0.000 C 
BRANCH  11  12
ATOM     12  C   UNL     1       5.411   4.466  15.064  0.00  0.00    +0.000 C 
BRANCH  12  13
ATOM     13  C   UNL     1       6.537   4.573  14.033  0.00  0.00    +0.000 C 
BRANCH  13  14
ATOM     14  C   UNL     1       6.454   3.449  13.012  0.00  0.00    +0.000 C 
BRANCH  14  15
ATOM     15  C   UNL     1       5.127   3.488  12.250  0.00  0.00    +0.000 C 
BRANCH  15  16
ATOM     16  C   UNL     1       5.056   2.327  11.270  0.00  0.00    +0.000 C 
BRANCH  16  18
ATOM     17  C   UNL     1       6.132   0.071  11.266  0.00  0.00    +0.000 C 
ATOM     18  C   UNL     1       6.375   1.569  11.188  0.00  0.00    +0.000 C 
ENDBRANCH  16  18
ENDBRANCH  15  16
ENDBRANCH  14  15
ENDBRANCH  13  14
ENDBRANCH  12  13
ENDBRANCH  11  12
ENDBRANCH   1  11
TORSDOF 8
ENDMDL
MODEL 4
REMARK VINA RESULT:      -6.0      2.780      6.171
REMARK  Name = 
REMARK  12 active torsions:
REMARK  status: ('A' for Active; 'I' for Inactive)
REMARK    1  A    between atoms: C_1  and  C_2
REMARK    2  A    between atoms: C_2  and  C_3
REMARK    3  A    between atoms: C_3  and  C_4
REMARK    4  A    between atoms: C_4  and  C_5
REMARK    5  A    between atoms: C_5  and  C_6
REMARK    6  A    between atoms: C_6  and  C_7
REMARK    7  A    between atoms: C_7  and  C_8
REMARK    8  A    between atoms: C_8  and  C_9
REMARK    9  A    between atoms: C_9  and  C_10
REMARK   10  A    between atoms: C_14  and  C_15
REMARK   11  A    between atoms: C_16  and  O_17
REMARK   12  A    between atoms: O_17  and  C_18
REMARK                            x       y       z     vdW  Elec       q    Type
REMARK                         _______ _______ _______ _____ _____    ______ ____
ROOT
ATOM      1  C   UNL     1       4.413   4.849  18.487  0.00  0.00    +0.000 C 
ATOM      2  C   UNL     1       5.740   5.175  19.190  0.00  0.00    +0.000 C 
ATOM      3  S   UNL     1       3.562   6.475  18.264  0.00  0.00    +0.000 S 
ATOM      4  C   UNL     1       2.451   6.182  19.575  0.00  0.00    +0.000 C 
ATOM      5  O   UNL     1       1.741   7.044  20.071  0.00  0.00    +0.000 OA
ATOM      6  C   UNL     1       2.450   4.762  19.954  0.00  0.00    +0.000 C 
ATOM      7  C   UNL     1       1.362   4.223  20.813  0.00  0.00    +0.000 C 
ATOM      8  C   UNL     1       3.459   4.077  19.392  0.00  0.00    +0.000 C 
ENDROOT
BRANCH   8   9
ATOM      9  O   UNL     1       3.437   2.694  19.413  0.00  0.00    +0.000 OA
ATOM     10  C   UNL     1       2.542   2.031  18.528  0.00  0.00    +0.000 C 
ENDBRANCH   8   9
BRANCH   1  11
ATOM     11  C   UNL     1       4.600   4.143  17.130  0.00  0.00    +0.000 C 
BRANCH  11  12
ATOM     12  C   UNL     1       5.019   5.002  15.937  0.00  0.00    +0.000 C 
BRANCH  12  13
ATOM     13  C   UNL     1       6.547   5.020  15.842  0.00  0.00    +0.000 C 
BRANCH  13  14
ATOM     14  C   UNL     1       7.016   4.564  14.469  0.00  0.00    +0.000 C 
BRANCH  14  15
ATOM     15  C   UNL     1       5.841   4.088  13.611  0.00  0.00    +0.000 C 
BRANCH  15  16
ATOM     16  C   UNL     1       6.355   3.505  12.303  0.00  0.00    +0.000 C 
BRANCH  16  18
ATOM     17  C   UNL     1       4.080   3.229  11.304  0.00  0.00    +0.000 C 
ATOM     18  C   UNL     1       5.367   2.520  11.691  0.00  0.00    +0.000 C 
ENDBRANCH  16  18
ENDBRANCH  15  16
ENDBRANCH  14  15
ENDBRANCH  13  14
ENDBRANCH  12  13
ENDBRANCH  11  12
ENDBRANCH   1  11
TORSDOF 8
ENDMDL
MODEL 5
REMARK VINA RESULT:      -6.0      2.988      6.140
REMARK  Name = 
REMARK  12 active torsions:
REMARK  status: ('A' for Active; 'I' for Inactive)
REMARK    1  A    between atoms: C_1  and  C_2
REMARK    2  A    between atoms: C_2  and  C_3
REMARK    3  A    between atoms: C_3  and  C_4
REMARK    4  A    between atoms: C_4  and  C_5
REMARK    5  A    between atoms: C_5  and  C_6
REMARK    6  A    between atoms: C_6  and  C_7
REMARK    7  A    between atoms: C_7  and  C_8
REMARK    8  A    between atoms: C_8  and  C_9
REMARK    9  A    between atoms: C_9  and  C_10
REMARK   10  A    between atoms: C_14  and  C_15
REMARK   11  A    between atoms: C_16  and  O_17
REMARK   12  A    between atoms: O_17  and  C_18
REMARK                            x       y       z     vdW  Elec       q    Type
REMARK                         _______ _______ _______ _____ _____    ______ ____
ROOT
ATOM      1  C   UNL     1       6.151   5.425  17.700  0.00  0.00    +0.000 C 
ATOM      2  C   UNL     1       7.324   6.268  18.226  0.00  0.00    +0.000 C 
ATOM      3  S   UNL     1       5.112   6.592  16.713  0.00  0.00    +0.000 S 
ATOM      4  C   UNL     1       3.903   6.725  17.962  0.00  0.00    +0.000 C 
ATOM      5  O   UNL     1       3.024   7.573  17.972  0.00  0.00    +0.000 OA
ATOM      6  C   UNL     1       4.058   5.653  18.957  0.00  0.00    +0.000 C 
ATOM      7  C   UNL     1       2.962   5.372  19.922  0.00  0.00    +0.000 C 
ATOM      8  C   UNL     1       5.214   4.985  18.819  0.00  0.00    +0.000 C 
ENDROOT
BRANCH   8   9
ATOM      9  O   UNL     1       5.386   3.781  19.479  0.00  0.00    +0.000 OA
ATOM     10  C   UNL     1       4.459   2.737  19.207  0.00  0.00    +0.000 C 
ENDBRANCH   8   9
BRANCH   1  11
ATOM     11  C   UNL     1       6.599   4.231  16.835  0.00  0.00    +0.000 C 
BRANCH  11  12
ATOM     12  C   UNL     1       5.645   3.753  15.741  0.00  0.00    +0.000 C 
BRANCH  12  13
ATOM     13  C   UNL     1       6.375   3.769  14.395  0.00  0.00    +0.000 C 
BRANCH  13  14
ATOM     14  C   UNL     1       5.413   4.061  13.254  0.00  0.00    +0.000 C 
BRANCH  14  15
ATOM     15  C   UNL     1       5.726   3.199  12.029  0.00  0.00    +0.000 C 
BRANCH  15  16
ATOM     16  C   UNL     1       4.436   2.821  11.316  0.00  0.00    +0.000 C 
BRANCH  16  18
ATOM     17  C   UNL     1       3.023   3.833   9.519  0.00  0.00    +0.000 C 
ATOM     18  C   UNL     1       3.640   4.049  10.891  0.00  0.00    +0.000 C 
ENDBRANCH  16  18
ENDBRANCH  15  16
ENDBRANCH  14  15
ENDBRANCH  13  14
ENDBRANCH  12  13
ENDBRANCH  11  12
ENDBRANCH   1  11
TORSDOF 8
ENDMDL
MODEL 6
REMARK VINA RESULT:      -6.0      2.660      6.067
REMARK  Name = 
REMARK  12 active torsions:
REMARK  status: ('A' for Active; 'I' for Inactive)
REMARK    1  A    between atoms: C_1  and  C_2
REMARK    2  A    between atoms: C_2  and  C_3
REMARK    3  A    between atoms: C_3  and  C_4
REMARK    4  A    between atoms: C_4  and  C_5
REMARK    5  A    between atoms: C_5  and  C_6
REMARK    6  A    between atoms: C_6  and  C_7
REMARK    7  A    between atoms: C_7  and  C_8
REMARK    8  A    between atoms: C_8  and  C_9
REMARK    9  A    between atoms: C_9  and  C_10
REMARK   10  A    between atoms: C_14  and  C_15
REMARK   11  A    between atoms: C_16  and  O_17
REMARK   12  A    between atoms: O_17  and  C_18
REMARK                            x       y       z     vdW  Elec       q    Type
REMARK                         _______ _______ _______ _____ _____    ______ ____
ROOT
ATOM      1  C   UNL     1       4.178   4.946  18.480  0.00  0.00    +0.000 C 
ATOM      2  C   UNL     1       5.434   4.803  19.355  0.00  0.00    +0.000 C 
ATOM      3  S   UNL     1       3.346   6.489  19.065  0.00  0.00    +0.000 S 
ATOM      4  C   UNL     1       2.119   5.611  19.939  0.00  0.00    +0.000 C 
ATOM      5  O   UNL     1       1.364   6.123  20.751  0.00  0.00    +0.000 OA
ATOM      6  C   UNL     1       2.089   4.201  19.525  0.00  0.00    +0.000 C 
ATOM      7  C   UNL     1       0.929   3.344  19.890  0.00  0.00    +0.000 C 
ATOM      8  C   UNL     1       3.149   3.861  18.774  0.00  0.00    +0.000 C 
ENDROOT
BRANCH   8   9
ATOM      9  O   UNL     1       3.129   2.668  18.072  0.00  0.00    +0.000 OA
ATOM     10  C   UNL     1       3.753   1.538  18.668  0.00  0.00    +0.000 C 
ENDBRANCH   8   9
BRANCH   1  11
ATOM     11  C   UNL     1       4.492   5.035  16.974  0.00  0.00    +0.000 C 
BRANCH  11  12
ATOM     12  C   UNL     1       5.423   6.155  16.510  0.00  0.00    +0.000 C 
BRANCH  12  13
ATOM     13  C   UNL     1       6.863   5.637  16.493  0.00  0.00    +0.000 C 
BRANCH  13  14
ATOM     14  C   UNL     1       7.004   4.440  15.565  0.00  0.00    +0.000 C 
BRANCH  14  15
ATOM     15  C   UNL     1       6.610   4.801  14.130  0.00  0.00    +0.000 C 
BRANCH  15  16
ATOM     16  C   UNL     1       5.489   3.888  13.654  0.00  0.00    +0.000 C 
BRANCH  16  18
ATOM     17  C   UNL     1       4.456   3.184  11.490  0.00  0.00    +0.000 C 
ATOM     18  C   UNL     1       5.757   3.337  12.259  0.00  0.00    +0.000 C 
ENDBRANCH  16  18
ENDBRANCH  15  16
ENDBRANCH  14  15
ENDBRANCH  13  14
ENDBRANCH  12  13
ENDBRANCH  11  12
ENDBRANCH   1  11
TORSDOF 8
ENDMDL
MODEL 7
REMARK VINA RESULT:      -5.9      1.733      3.233
REMARK  Name = 
REMARK  12 active torsions:
REMARK  status: ('A' for Active; 'I' for Inactive)
REMARK    1  A    between atoms: C_1  and  C_2
REMARK    2  A    between atoms: C_2  and  C_3
REMARK    3  A    between atoms: C_3  and  C_4
REMARK    4  A    between atoms: C_4  and  C_5
REMARK    5  A    between atoms: C_5  and  C_6
REMARK    6  A    between atoms: C_6  and  C_7
REMARK    7  A    between atoms: C_7  and  C_8
REMARK    8  A    between atoms: C_8  and  C_9
REMARK    9  A    between atoms: C_9  and  C_10
REMARK   10  A    between atoms: C_14  and  C_15
REMARK   11  A    between atoms: C_16  and  O_17
REMARK   12  A    between atoms: O_17  and  C_18
REMARK                            x       y       z     vdW  Elec       q    Type
REMARK                         _______ _______ _______ _____ _____    ______ ____
ROOT
ATOM      1  C   UNL     1       4.680   4.901  17.136  0.00  0.00    +0.000 C 
ATOM      2  C   UNL     1       4.828   3.694  16.196  0.00  0.00    +0.000 C 
ATOM      3  S   UNL     1       5.305   6.351  16.175  0.00  0.00    +0.000 S 
ATOM      4  C   UNL     1       6.816   6.398  17.045  0.00  0.00    +0.000 C 
ATOM      5  O   UNL     1       7.785   7.051  16.690  0.00  0.00    +0.000 OA
ATOM      6  C   UNL     1       6.738   5.596  18.274  0.00  0.00    +0.000 C 
ATOM      7  C   UNL     1       7.778   5.745  19.326  0.00  0.00    +0.000 C 
ATOM      8  C   UNL     1       5.638   4.827  18.319  0.00  0.00    +0.000 C 
ENDROOT
BRANCH   8   9
ATOM      9  O   UNL     1       5.270   4.237  19.516  0.00  0.00    +0.000 OA
ATOM     10  C   UNL     1       4.793   2.898  19.477  0.00  0.00    +0.000 C 
ENDBRANCH   8   9
BRANCH   1  11
ATOM     11  C   UNL     1       3.229   5.139  17.596  0.00  0.00    +0.000 C 
BRANCH  11  12
ATOM     12  C   UNL     1       2.889   6.507  18.187  0.00  0.00    +0.000 C 
BRANCH  12  13
ATOM     13  C   UNL     1       1.805   6.338  19.255  0.00  0.00    +0.000 C 
BRANCH  13  14
ATOM     14  C   UNL     1       2.419   6.123  20.630  0.00  0.00    +0.000 C 
BRANCH  14  15
ATOM     15  C   UNL     1       2.152   4.706  21.142  0.00  0.00    +0.000 C 
BRANCH  15  16
ATOM     16  C   UNL     1       0.951   4.111  20.422  0.00  0.00    +0.000 C 
BRANCH  16  18
ATOM     17  C   UNL     1       0.923   2.359  18.639  0.00  0.00    +0.000 C 
ATOM     18  C   UNL     1       1.145   2.631  20.118  0.00  0.00    +0.000 C 
ENDBRANCH  16  18
ENDBRANCH  15  16
ENDBRANCH  14  15
ENDBRANCH  13  14
ENDBRANCH  12  13
ENDBRANCH  11  12
ENDBRANCH   1  11
TORSDOF 8
ENDMDL
MODEL 8
REMARK VINA RESULT:      -5.9      2.724      5.979
REMARK  Name = 
REMARK  12 active torsions:
REMARK  status: ('A' for Active; 'I' for Inactive)
REMARK    1  A    between atoms: C_1  and  C_2
REMARK    2  A    between atoms: C_2  and  C_3
REMARK    3  A    between atoms: C_3  and  C_4
REMARK    4  A    between atoms: C_4  and  C_5
REMARK    5  A    between atoms: C_5  and  C_6
REMARK    6  A    between atoms: C_6  and  C_7
REMARK    7  A    between atoms: C_7  and  C_8
REMARK    8  A    between atoms: C_8  and  C_9
REMARK    9  A    between atoms: C_9  and  C_10
REMARK   10  A    between atoms: C_14  and  C_15
REMARK   11  A    between atoms: C_16  and  O_17
REMARK   12  A    between atoms: O_17  and  C_18
REMARK                            x       y       z     vdW  Elec       q    Type
REMARK                         _______ _______ _______ _____ _____    ______ ____
ROOT
ATOM      1  C   UNL     1       3.541   3.946  18.298  0.00  0.00    +0.000 C 
ATOM      2  C   UNL     1       2.685   3.512  17.098  0.00  0.00    +0.000 C 
ATOM      3  S   UNL     1       3.321   2.619  19.565  0.00  0.00    +0.000 S 
ATOM      4  C   UNL     1       2.235   3.585  20.529  0.00  0.00    +0.000 C 
ATOM      5  O   UNL     1       1.552   3.138  21.438  0.00  0.00    +0.000 OA
ATOM      6  C   UNL     1       2.302   4.999  20.135  0.00  0.00    +0.000 C 
ATOM      7  C   UNL     1       1.719   6.045  21.017  0.00  0.00    +0.000 C 
ATOM      8  C   UNL     1       2.975   5.183  18.987  0.00  0.00    +0.000 C 
ENDROOT
BRANCH   8   9
ATOM      9  O   UNL     1       3.373   6.460  18.630  0.00  0.00    +0.000 OA
ATOM     10  C   UNL     1       2.401   7.320  18.049  0.00  0.00    +0.000 C 
ENDBRANCH   8   9
BRANCH   1  11
ATOM     11  C   UNL     1       5.031   4.124  17.951  0.00  0.00    +0.000 C 
BRANCH  11  12
ATOM     12  C   UNL     1       5.374   4.880  16.668  0.00  0.00    +0.000 C 
BRANCH  12  13
ATOM     13  C   UNL     1       6.844   4.635  16.317  0.00  0.00    +0.000 C 
BRANCH  13  14
ATOM     14  C   UNL     1       7.055   4.640  14.810  0.00  0.00    +0.000 C 
BRANCH  14  15
ATOM     15  C   UNL     1       6.002   3.788  14.099  0.00  0.00    +0.000 C 
BRANCH  15  16
ATOM     16  C   UNL     1       6.320   3.702  12.614  0.00  0.00    +0.000 C 
BRANCH  16  18
ATOM     17  C   UNL     1       4.185   3.267  11.388  0.00  0.00    +0.000 C 
ATOM     18  C   UNL     1       5.472   2.650  11.910  0.00  0.00    +0.000 C 
ENDBRANCH  16  18
ENDBRANCH  15  16
ENDBRANCH  14  15
ENDBRANCH  13  14
ENDBRANCH  12  13
ENDBRANCH  11  12
ENDBRANCH   1  11
TORSDOF 8
ENDMDL
MODEL 9
REMARK VINA RESULT:      -5.9      2.774      6.141
REMARK  Name = 
REMARK  12 active torsions:
REMARK  status: ('A' for Active; 'I' for Inactive)
REMARK    1  A    between atoms: C_1  and  C_2
REMARK    2  A    between atoms: C_2  and  C_3
REMARK    3  A    between atoms: C_3  and  C_4
REMARK    4  A    between atoms: C_4  and  C_5
REMARK    5  A    between atoms: C_5  and  C_6
REMARK    6  A    between atoms: C_6  and  C_7
REMARK    7  A    between atoms: C_7  and  C_8
REMARK    8  A    between atoms: C_8  and  C_9
REMARK    9  A    between atoms: C_9  and  C_10
REMARK   10  A    between atoms: C_14  and  C_15
REMARK   11  A    between atoms: C_16  and  O_17
REMARK   12  A    between atoms: O_17  and  C_18
REMARK                            x       y       z     vdW  Elec       q    Type
REMARK                         _______ _______ _______ _____ _____    ______ ____
ROOT
ATOM      1  C   UNL     1       3.936   3.324  18.385  0.00  0.00    +0.000 C 
ATOM      2  C   UNL     1       3.497   2.148  17.497  0.00  0.00    +0.000 C 
ATOM      3  S   UNL     1       4.482   2.561  19.977  0.00  0.00    +0.000 S 
ATOM      4  C   UNL     1       3.023   3.027  20.812  0.00  0.00    +0.000 C 
ATOM      5  O   UNL     1       2.695   2.590  21.904  0.00  0.00    +0.000 OA
ATOM      6  C   UNL     1       2.287   4.045  20.050  0.00  0.00    +0.000 C 
ATOM      7  C   UNL     1       1.199   4.820  20.704  0.00  0.00    +0.000 C 
ATOM      8  C   UNL     1       2.759   4.197  18.802  0.00  0.00    +0.000 C 
ENDROOT
BRANCH   8   9
ATOM      9  O   UNL     1       2.372   5.299  18.059  0.00  0.00    +0.000 OA
ATOM     10  C   UNL     1       2.903   6.566  18.425  0.00  0.00    +0.000 C 
ENDBRANCH   8   9
BRANCH   1  11
ATOM     11  C   UNL     1       5.072   4.162  17.767  0.00  0.00    +0.000 C 
BRANCH  11  12
ATOM     12  C   UNL     1       5.122   4.273  16.243  0.00  0.00    +0.000 C 
BRANCH  12  13
ATOM     13  C   UNL     1       6.353   5.087  15.838  0.00  0.00    +0.000 C 
BRANCH  13  14
ATOM     14  C   UNL     1       6.878   4.647  14.480  0.00  0.00    +0.000 C 
BRANCH  14  15
ATOM     15  C   UNL     1       5.945   3.624  13.829  0.00  0.00    +0.000 C 
BRANCH  15  16
ATOM     16  C   UNL     1       6.050   3.716  12.314  0.00  0.00    +0.000 C 
BRANCH  16  18
ATOM     17  C   UNL     1       6.078   1.423  11.318  0.00  0.00    +0.000 C 
ATOM     18  C   UNL     1       5.222   2.642  11.619  0.00  0.00    +0.000 C 
ENDBRANCH  16  18
ENDBRANCH  15  16
ENDBRANCH  14  15
ENDBRANCH  13  14
ENDBRANCH  12  13
ENDBRANCH  11  12
ENDBRANCH   1  11
TORSDOF 8
ENDMDL
