MODEL 1
REMARK VINA RESULT:      -4.9      0.000      0.000
REMARK  Name = 
REMARK  9 active torsions:
REMARK  status: ('A' for Active; 'I' for Inactive)
REMARK    1  A    between atoms: N_1  and  CA_2
REMARK    2  A    between atoms: CA_2  and  C_3
REMARK    3  A    between atoms: CA_2  and  C_10
REMARK    4  A    between atoms: C_3  and  C_4
REMARK    5  A    between atoms: C_4  and  C_5
REMARK    6  A    between atoms: C_4  and  C_7
REMARK    7  A    between atoms: C_5  and  O_6
REMARK    8  A    between atoms: C_7  and  O_9
REMARK    9  A    between atoms: C_10  and  OXT_12
REMARK                            x       y       z     vdW  Elec       q    Type
REMARK                         _______ _______ _______ _____ _____    ______ ____
ROOT
ATOM      1  C   UNL     1       4.897   4.836  17.111  0.00  0.00    +0.000 C 
ENDROOT
BRANCH   1   2
ATOM      2  CA  UNL     1       4.316   3.947  18.220  0.00  0.00    +0.000 C 
BRANCH   2   3
ATOM      3  N   UNL     1       5.355   3.338  19.096  0.00  0.00    +0.000 NA
ATOM      4  H1  UNL     1       5.126   2.343  19.203  0.00  0.00    +0.000 HD
ATOM      5  H2  UNL     1       5.281   3.707  20.047  0.00  0.00    +0.000 HD
ENDBRANCH   2   3
BRANCH   2   6
ATOM      6  C   UNL     1       3.410   2.839  17.666  0.00  0.00    +0.000 C 
ATOM      7  O   UNL     1       2.368   3.024  17.057  0.00  0.00    +0.000 OA
BRANCH   6   8
ATOM      8  OXT UNL     1       3.950   1.609  17.865  0.00  0.00    +0.000 OA
ATOM      9  HXT UNL     1       4.904   1.680  17.606  0.00  0.00    +0.000 HD
ENDBRANCH   6   8
ENDBRANCH   2   6
ENDBRANCH   1   2
BRANCH   1  10
ATOM     10  C   UNL     1       6.178   4.342  16.408  0.00  0.00    +0.000 C 
BRANCH  10  11
ATOM     11  C   UNL     1       7.368   4.931  17.153  0.00  0.00    +0.000 C 
ATOM     12  O   UNL     1       7.566   6.136  17.223  0.00  0.00    +0.000 OA
BRANCH  11  13
ATOM     13  O   UNL     1       8.237   4.032  17.660  0.00  0.00    +0.000 OA
ATOM     14  H   UNL     1       8.918   4.436  18.253  0.00  0.00    +0.000 HD
ENDBRANCH  11  13
ENDBRANCH  10  11
BRANCH  10  15
ATOM     15  C   UNL     1       6.295   4.641  14.917  0.00  0.00    +0.000 C 
BRANCH  15  16
ATOM     16  O   UNL     1       7.584   5.195  14.647  0.00  0.00    +0.000 OA
ATOM     17  H   UNL     1       7.582   5.507  13.711  0.00  0.00    +0.000 HD
ENDBRANCH  15  16
ENDBRANCH  10  15
ENDBRANCH   1  10
TORSDOF 9
ENDMDL
MODEL 2
REMARK VINA RESULT:      -4.9      1.129      2.014
REMARK  Name = 
REMARK  9 active torsions:
REMARK  status: ('A' for Active; 'I' for Inactive)
REMARK    1  A    between atoms: N_1  and  CA_2
REMARK    2  A    between atoms: CA_2  and  C_3
REMARK    3  A    between atoms: CA_2  and  C_10
REMARK    4  A    between atoms: C_3  and  C_4
REMARK    5  A    between atoms: C_4  and  C_5
REMARK    6  A    between atoms: C_4  and  C_7
REMARK    7  A    between atoms: C_5  and  O_6
REMARK    8  A    between atoms: C_7  and  O_9
REMARK    9  A    between atoms: C_10  and  OXT_12
REMARK                            x       y       z     vdW  Elec       q    Type
REMARK                         _______ _______ _______ _____ _____    ______ ____
ROOT
ATOM      1  C   UNL     1       4.973   3.861  16.266  0.00  0.00    +0.000 C 
ENDROOT
BRANCH   1   2
ATOM      2  CA  UNL     1       4.502   3.954  17.725  0.00  0.00    +0.000 C 
BRANCH   2   3
ATOM      3  N   UNL     1       5.570   3.638  18.714  0.00  0.00    +0.000 NA
ATOM      4  H1  UNL     1       6.473   3.841  18.269  0.00  0.00    +0.000 HD
ATOM      5  H2  UNL     1       5.607   2.631  18.889  0.00  0.00    +0.000 HD
ENDBRANCH   2   3
BRANCH   2   6
ATOM      6  C   UNL     1       3.280   3.068  18.002  0.00  0.00    +0.000 C 
ATOM      7  O   UNL     1       3.116   2.393  19.006  0.00  0.00    +0.000 OA
BRANCH   6   8
ATOM      8  OXT UNL     1       2.348   3.186  17.021  0.00  0.00    +0.000 OA
ATOM      9  HXT UNL     1       1.485   2.915  17.424  0.00  0.00    +0.000 HD
ENDBRANCH   6   8
ENDBRANCH   2   6
ENDBRANCH   1   2
BRANCH   1  10
ATOM     10  C   UNL     1       5.569   5.135  15.634  0.00  0.00    +0.000 C 
BRANCH  10  11
ATOM     11  C   UNL     1       7.078   4.946  15.553  0.00  0.00    +0.000 C 
ATOM     12  O   UNL     1       7.726   4.449  16.465  0.00  0.00    +0.000 OA
BRANCH  11  13
ATOM     13  O   UNL     1       7.665   5.440  14.444  0.00  0.00    +0.000 OA
ATOM     14  H   UNL     1       7.019   5.724  13.750  0.00  0.00    +0.000 HD
ENDBRANCH  11  13
ENDBRANCH  10  11
BRANCH  10  15
ATOM     15  C   UNL     1       5.245   6.455  16.325  0.00  0.00    +0.000 C 
BRANCH  15  16
ATOM     16  O   UNL     1       6.461   7.123  16.662  0.00  0.00    +0.000 OA
ATOM     17  H   UNL     1       6.292   7.654  17.476  0.00  0.00    +0.000 HD
ENDBRANCH  15  16
ENDBRANCH  10  15
ENDBRANCH   1  10
TORSDOF 9
ENDMDL
MODEL 3
REMARK VINA RESULT:      -4.8      1.048      1.692
REMARK  Name = 
REMARK  9 active torsions:
REMARK  status: ('A' for Active; 'I' for Inactive)
REMARK    1  A    between atoms: N_1  and  CA_2
REMARK    2  A    between atoms: CA_2  and  C_3
REMARK    3  A    between atoms: CA_2  and  C_10
REMARK    4  A    between atoms: C_3  and  C_4
REMARK    5  A    between atoms: C_4  and  C_5
REMARK    6  A    between atoms: C_4  and  C_7
REMARK    7  A    between atoms: C_5  and  O_6
REMARK    8  A    between atoms: C_7  and  O_9
REMARK    9  A    between atoms: C_10  and  OXT_12
REMARK                            x       y       z     vdW  Elec       q    Type
REMARK                         _______ _______ _______ _____ _____    ______ ____
ROOT
ATOM      1  C   UNL     1       4.986   4.102  16.258  0.00  0.00    +0.000 C 
ENDROOT
BRANCH   1   2
ATOM      2  CA  UNL     1       4.414   4.000  17.680  0.00  0.00    +0.000 C 
BRANCH   2   3
ATOM      3  N   UNL     1       5.424   3.592  18.696  0.00  0.00    +0.000 NA
ATOM      4  H1  UNL     1       5.730   4.441  19.186  0.00  0.00    +0.000 HD
ATOM      5  H2  UNL     1       6.275   3.257  18.239  0.00  0.00    +0.000 HD
ENDBRANCH   2   3
BRANCH   2   6
ATOM      6  C   UNL     1       3.208   3.055  17.758  0.00  0.00    +0.000 C 
ATOM      7  O   UNL     1       2.196   3.151  17.082  0.00  0.00    +0.000 OA
BRANCH   6   8
ATOM      8  OXT UNL     1       3.432   2.034  18.626  0.00  0.00    +0.000 OA
ATOM      9  HXT UNL     1       2.745   2.117  19.335  0.00  0.00    +0.000 HD
ENDBRANCH   6   8
ENDBRANCH   2   6
ENDBRANCH   1   2
BRANCH   1  10
ATOM     10  C   UNL     1       5.689   5.419  15.872  0.00  0.00    +0.000 C 
BRANCH  10  11
ATOM     11  C   UNL     1       7.156   5.101  15.616  0.00  0.00    +0.000 C 
ATOM     12  O   UNL     1       7.714   5.383  14.564  0.00  0.00    +0.000 OA
BRANCH  11  13
ATOM     13  O   UNL     1       7.778   4.411  16.594  0.00  0.00    +0.000 OA
ATOM     14  H   UNL     1       7.155   3.922  17.188  0.00  0.00    +0.000 HD
ENDBRANCH  11  13
ENDBRANCH  10  11
BRANCH  10  15
ATOM     15  C   UNL     1       5.570   6.572  16.864  0.00  0.00    +0.000 C 
BRANCH  15  16
ATOM     16  O   UNL     1       6.808   7.283  16.911  0.00  0.00    +0.000 OA
ATOM     17  H   UNL     1       7.503   6.695  16.527  0.00  0.00    +0.000 HD
ENDBRANCH  15  16
ENDBRANCH  10  15
ENDBRANCH   1  10
TORSDOF 9
ENDMDL
MODEL 4
REMARK VINA RESULT:      -4.8      1.689      4.835
REMARK  Name = 
REMARK  9 active torsions:
REMARK  status: ('A' for Active; 'I' for Inactive)
REMARK    1  A    between atoms: N_1  and  CA_2
REMARK    2  A    between atoms: CA_2  and  C_3
REMARK    3  A    between atoms: CA_2  and  C_10
REMARK    4  A    between atoms: C_3  and  C_4
REMARK    5  A    between atoms: C_4  and  C_5
REMARK    6  A    between atoms: C_4  and  C_7
REMARK    7  A    between atoms: C_5  and  O_6
REMARK    8  A    between atoms: C_7  and  O_9
REMARK    9  A    between atoms: C_10  and  OXT_12
REMARK                            x       y       z     vdW  Elec       q    Type
REMARK                         _______ _______ _______ _____ _____    ______ ____
ROOT
ATOM      1  C   UNL     1       4.433   4.382  17.641  0.00  0.00    +0.000 C 
ENDROOT
BRANCH   1   2
ATOM      2  CA  UNL     1       5.759   4.571  16.889  0.00  0.00    +0.000 C 
BRANCH   2   3
ATOM      3  N   UNL     1       6.009   3.525  15.859  0.00  0.00    +0.000 NA
ATOM      4  H1  UNL     1       6.812   3.830  15.297  0.00  0.00    +0.000 HD
ATOM      5  H2  UNL     1       5.240   3.497  15.186  0.00  0.00    +0.000 HD
ENDBRANCH   2   3
BRANCH   2   6
ATOM      6  C   UNL     1       6.963   4.645  17.838  0.00  0.00    +0.000 C 
ATOM      7  O   UNL     1       6.924   5.041  18.992  0.00  0.00    +0.000 OA
BRANCH   6   8
ATOM      8  OXT UNL     1       8.081   4.134  17.261  0.00  0.00    +0.000 OA
ATOM      9  HXT UNL     1       7.780   3.385  16.687  0.00  0.00    +0.000 HD
ENDBRANCH   6   8
ENDBRANCH   2   6
ENDBRANCH   1   2
BRANCH   1  10
ATOM     10  C   UNL     1       4.133   2.977  18.201  0.00  0.00    +0.000 C 
BRANCH  10  11
ATOM     11  C   UNL     1       2.718   2.605  17.776  0.00  0.00    +0.000 C 
ATOM     12  O   UNL     1       2.059   3.300  17.015  0.00  0.00    +0.000 OA
BRANCH  11  13
ATOM     13  O   UNL     1       2.209   1.500  18.360  0.00  0.00    +0.000 OA
ATOM     14  H   UNL     1       1.319   1.646  18.767  0.00  0.00    +0.000 HD
ENDBRANCH  11  13
ENDBRANCH  10  11
BRANCH  10  15
ATOM     15  C   UNL     1       4.289   2.795  19.707  0.00  0.00    +0.000 C 
BRANCH  15  16
ATOM     16  O   UNL     1       5.038   1.607  19.964  0.00  0.00    +0.000 OA
ATOM     17  H   UNL     1       5.989   1.814  19.797  0.00  0.00    +0.000 HD
ENDBRANCH  15  16
ENDBRANCH  10  15
ENDBRANCH   1  10
TORSDOF 9
ENDMDL
MODEL 5
REMARK VINA RESULT:      -4.7      2.030      4.161
REMARK  Name = 
REMARK  9 active torsions:
REMARK  status: ('A' for Active; 'I' for Inactive)
REMARK    1  A    between atoms: N_1  and  CA_2
REMARK    2  A    between atoms: CA_2  and  C_3
REMARK    3  A    between atoms: CA_2  and  C_10
REMARK    4  A    between atoms: C_3  and  C_4
REMARK    5  A    between atoms: C_4  and  C_5
REMARK    6  A    between atoms: C_4  and  C_7
REMARK    7  A    between atoms: C_5  and  O_6
REMARK    8  A    between atoms: C_7  and  O_9
REMARK    9  A    between atoms: C_10  and  OXT_12
REMARK                            x       y       z     vdW  Elec       q    Type
REMARK                         _______ _______ _______ _____ _____    ______ ____
ROOT
ATOM      1  C   UNL     1       5.002   5.105  16.845  0.00  0.00    +0.000 C 
ENDROOT
BRANCH   1   2
ATOM      2  CA  UNL     1       6.169   4.215  16.394  0.00  0.00    +0.000 C 
BRANCH   2   3
ATOM      3  N   UNL     1       7.358   4.301  17.287  0.00  0.00    +0.000 NA
ATOM      4  H1  UNL     1       8.009   3.557  17.010  0.00  0.00    +0.000 HD
ATOM      5  H2  UNL     1       7.102   4.054  18.246  0.00  0.00    +0.000 HD
ENDBRANCH   2   3
BRANCH   2   6
ATOM      6  C   UNL     1       6.600   4.502  14.950  0.00  0.00    +0.000 C 
ATOM      7  O   UNL     1       6.065   4.043  13.953  0.00  0.00    +0.000 OA
BRANCH   6   8
ATOM      8  OXT UNL     1       7.613   5.406  14.904  0.00  0.00    +0.000 OA
ATOM      9  HXT UNL     1       7.345   6.089  14.239  0.00  0.00    +0.000 HD
ENDBRANCH   6   8
ENDBRANCH   2   6
ENDBRANCH   1   2
BRANCH   1  10
ATOM     10  C   UNL     1       4.127   4.589  18.006  0.00  0.00    +0.000 C 
BRANCH  10  11
ATOM     11  C   UNL     1       4.545   5.338  19.265  0.00  0.00    +0.000 C 
ATOM     12  O   UNL     1       5.714   5.422  19.619  0.00  0.00    +0.000 OA
BRANCH  11  13
ATOM     13  O   UNL     1       3.534   5.831  20.008  0.00  0.00    +0.000 OA
ATOM     14  H   UNL     1       2.639   5.555  19.687  0.00  0.00    +0.000 HD
ENDBRANCH  11  13
ENDBRANCH  10  11
BRANCH  10  15
ATOM     15  C   UNL     1       4.150   3.086  18.261  0.00  0.00    +0.000 C 
BRANCH  15  16
ATOM     16  O   UNL     1       5.122   2.792  19.266  0.00  0.00    +0.000 OA
ATOM     17  H   UNL     1       4.635   2.502  20.074  0.00  0.00    +0.000 HD
ENDBRANCH  15  16
ENDBRANCH  10  15
ENDBRANCH   1  10
TORSDOF 9
ENDMDL
MODEL 6
REMARK VINA RESULT:      -4.7      1.779      1.990
REMARK  Name = 
REMARK  9 active torsions:
REMARK  status: ('A' for Active; 'I' for Inactive)
REMARK    1  A    between atoms: N_1  and  CA_2
REMARK    2  A    between atoms: CA_2  and  C_3
REMARK    3  A    between atoms: CA_2  and  C_10
REMARK    4  A    between atoms: C_3  and  C_4
REMARK    5  A    between atoms: C_4  and  C_5
REMARK    6  A    between atoms: C_4  and  C_7
REMARK    7  A    between atoms: C_5  and  O_6
REMARK    8  A    between atoms: C_7  and  O_9
REMARK    9  A    between atoms: C_10  and  OXT_12
REMARK                            x       y       z     vdW  Elec       q    Type
REMARK                         _______ _______ _______ _____ _____    ______ ____
ROOT
ATOM      1  C   UNL     1       4.166   4.507  17.271  0.00  0.00    +0.000 C 
ENDROOT
BRANCH   1   2
ATOM      2  CA  UNL     1       3.137   3.368  17.304  0.00  0.00    +0.000 C 
BRANCH   2   3
ATOM      3  N   UNL     1       1.728   3.846  17.380  0.00  0.00    +0.000 NA
ATOM      4  H1  UNL     1       1.292   3.673  16.467  0.00  0.00    +0.000 HD
ATOM      5  H2  UNL     1       1.702   4.864  17.472  0.00  0.00    +0.000 HD
ENDBRANCH   2   3
BRANCH   2   6
ATOM      6  C   UNL     1       3.397   2.378  18.447  0.00  0.00    +0.000 C 
ATOM      7  O   UNL     1       4.245   2.515  19.315  0.00  0.00    +0.000 OA
BRANCH   6   8
ATOM      8  OXT UNL     1       2.507   1.353  18.429  0.00  0.00    +0.000 OA
ATOM      9  HXT UNL     1       1.974   1.433  19.260  0.00  0.00    +0.000 HD
ENDBRANCH   6   8
ENDBRANCH   2   6
ENDBRANCH   1   2
BRANCH   1  10
ATOM     10  C   UNL     1       5.360   4.351  16.307  0.00  0.00    +0.000 C 
BRANCH  10  11
ATOM     11  C   UNL     1       6.635   4.408  17.139  0.00  0.00    +0.000 C 
ATOM     12  O   UNL     1       7.728   4.654  16.648  0.00  0.00    +0.000 OA
BRANCH  11  13
ATOM     13  O   UNL     1       6.491   4.086  18.442  0.00  0.00    +0.000 OA
ATOM     14  H   UNL     1       7.221   4.430  19.014  0.00  0.00    +0.000 HD
ENDBRANCH  11  13
ENDBRANCH  10  11
BRANCH  10  15
ATOM     15  C   UNL     1       5.444   5.350  15.157  0.00  0.00    +0.000 C 
BRANCH  15  16
ATOM     16  O   UNL     1       5.696   6.654  15.682  0.00  0.00    +0.000 OA
ATOM     17  H   UNL     1       4.894   7.203  15.509  0.00  0.00    +0.000 HD
ENDBRANCH  15  16
ENDBRANCH  10  15
ENDBRANCH   1  10
TORSDOF 9
ENDMDL
MODEL 7
REMARK VINA RESULT:      -4.7      1.828      2.315
REMARK  Name = 
REMARK  9 active torsions:
REMARK  status: ('A' for Active; 'I' for Inactive)
REMARK    1  A    between atoms: N_1  and  CA_2
REMARK    2  A    between atoms: CA_2  and  C_3
REMARK    3  A    between atoms: CA_2  and  C_10
REMARK    4  A    between atoms: C_3  and  C_4
REMARK    5  A    between atoms: C_4  and  C_5
REMARK    6  A    between atoms: C_4  and  C_7
REMARK    7  A    between atoms: C_5  and  O_6
REMARK    8  A    between atoms: C_7  and  O_9
REMARK    9  A    between atoms: C_10  and  OXT_12
REMARK                            x       y       z     vdW  Elec       q    Type
REMARK                         _______ _______ _______ _____ _____    ______ ____
ROOT
ATOM      1  C   UNL     1       4.852   4.577  16.409  0.00  0.00    +0.000 C 
ENDROOT
BRANCH   1   2
ATOM      2  CA  UNL     1       4.314   3.654  17.512  0.00  0.00    +0.000 C 
BRANCH   2   3
ATOM      3  N   UNL     1       2.835   3.721  17.672  0.00  0.00    +0.000 NA
ATOM      4  H1  UNL     1       2.434   2.912  17.185  0.00  0.00    +0.000 HD
ATOM      5  H2  UNL     1       2.457   4.523  17.160  0.00  0.00    +0.000 HD
ENDBRANCH   2   3
BRANCH   2   6
ATOM      6  C   UNL     1       4.981   3.914  18.869  0.00  0.00    +0.000 C 
ATOM      7  O   UNL     1       5.256   5.017  19.315  0.00  0.00    +0.000 OA
BRANCH   6   8
ATOM      8  OXT UNL     1       5.162   2.761  19.563  0.00  0.00    +0.000 OA
ATOM      9  HXT UNL     1       5.225   3.019  20.517  0.00  0.00    +0.000 HD
ENDBRANCH   6   8
ENDBRANCH   2   6
ENDBRANCH   1   2
BRANCH   1  10
ATOM     10  C   UNL     1       5.880   3.980  15.426  0.00  0.00    +0.000 C 
BRANCH  10  11
ATOM     11  C   UNL     1       7.228   4.623  15.723  0.00  0.00    +0.000 C 
ATOM     12  O   UNL     1       7.823   4.440  16.776  0.00  0.00    +0.000 OA
BRANCH  11  13
ATOM     13  O   UNL     1       7.683   5.477  14.783  0.00  0.00    +0.000 OA
ATOM     14  H   UNL     1       7.245   6.364  14.812  0.00  0.00    +0.000 HD
ENDBRANCH  11  13
ENDBRANCH  10  11
BRANCH  10  15
ATOM     15  C   UNL     1       5.557   4.107  13.941  0.00  0.00    +0.000 C 
BRANCH  15  16
ATOM     16  O   UNL     1       6.380   3.204  13.200  0.00  0.00    +0.000 OA
ATOM     17  H   UNL     1       7.190   3.698  12.927  0.00  0.00    +0.000 HD
ENDBRANCH  15  16
ENDBRANCH  10  15
ENDBRANCH   1  10
TORSDOF 9
ENDMDL
MODEL 8
REMARK VINA RESULT:      -4.7      0.838      2.132
REMARK  Name = 
REMARK  9 active torsions:
REMARK  status: ('A' for Active; 'I' for Inactive)
REMARK    1  A    between atoms: N_1  and  CA_2
REMARK    2  A    between atoms: CA_2  and  C_3
REMARK    3  A    between atoms: CA_2  and  C_10
REMARK    4  A    between atoms: C_3  and  C_4
REMARK    5  A    between atoms: C_4  and  C_5
REMARK    6  A    between atoms: C_4  and  C_7
REMARK    7  A    between atoms: C_5  and  O_6
REMARK    8  A    between atoms: C_7  and  O_9
REMARK    9  A    between atoms: C_10  and  OXT_12
REMARK                            x       y       z     vdW  Elec       q    Type
REMARK                         _______ _______ _______ _____ _____    ______ ____
ROOT
ATOM      1  C   UNL     1       5.212   3.653  16.430  0.00  0.00    +0.000 C 
ENDROOT
BRANCH   1   2
ATOM      2  CA  UNL     1       4.390   3.666  17.727  0.00  0.00    +0.000 C 
BRANCH   2   3
ATOM      3  N   UNL     1       5.148   3.181  18.913  0.00  0.00    +0.000 NA
ATOM      4  H1  UNL     1       5.953   3.804  19.043  0.00  0.00    +0.000 HD
ATOM      5  H2  UNL     1       5.574   2.272  18.716  0.00  0.00    +0.000 HD
ENDBRANCH   2   3
BRANCH   2   6
ATOM      6  C   UNL     1       3.085   2.869  17.600  0.00  0.00    +0.000 C 
ATOM      7  O   UNL     1       2.046   3.295  17.121  0.00  0.00    +0.000 OA
BRANCH   6   8
ATOM      8  OXT UNL     1       3.245   1.586  18.015  0.00  0.00    +0.000 OA
ATOM      9  HXT UNL     1       3.772   1.629  18.853  0.00  0.00    +0.000 HD
ENDBRANCH   6   8
ENDBRANCH   2   6
ENDBRANCH   1   2
BRANCH   1  10
ATOM     10  C   UNL     1       6.031   4.918  16.099  0.00  0.00    +0.000 C 
BRANCH  10  11
ATOM     11  C   UNL     1       6.605   4.742  14.700  0.00  0.00    +0.000 C 
ATOM     12  O   UNL     1       6.093   4.002  13.870  0.00  0.00    +0.000 OA
BRANCH  11  13
ATOM     13  O   UNL     1       7.763   5.392  14.462  0.00  0.00    +0.000 OA
ATOM     14  H   UNL     1       7.636   6.341  14.212  0.00  0.00    +0.000 HD
ENDBRANCH  11  13
ENDBRANCH  10  11
BRANCH  10  15
ATOM     15  C   UNL     1       7.142   5.286  17.076  0.00  0.00    +0.000 C 
BRANCH  15  16
ATOM     16  O   UNL     1       7.982   4.150  17.286  0.00  0.00    +0.000 OA
ATOM     17  H   UNL     1       8.909   4.426  17.088  0.00  0.00    +0.000 HD
ENDBRANCH  15  16
ENDBRANCH  10  15
ENDBRANCH   1  10
TORSDOF 9
ENDMDL
MODEL 9
REMARK VINA RESULT:      -4.7      2.094      4.393
REMARK  Name = 
REMARK  9 active torsions:
REMARK  status: ('A' for Active; 'I' for Inactive)
REMARK    1  A    between atoms: N_1  and  CA_2
REMARK    2  A    between atoms: CA_2  and  C_3
REMARK    3  A    between atoms: CA_2  and  C_10
REMARK    4  A    between atoms: C_3  and  C_4
REMARK    5  A    between atoms: C_4  and  C_5
REMARK    6  A    between atoms: C_4  and  C_7
REMARK    7  A    between atoms: C_5  and  O_6
REMARK    8  A    between atoms: C_7  and  O_9
REMARK    9  A    between atoms: C_10  and  OXT_12
REMARK                            x       y       z     vdW  Elec       q    Type
REMARK                         _______ _______ _______ _____ _____    ______ ____
ROOT
ATOM      1  C   UNL     1       4.853   4.304  16.546  0.00  0.00    +0.000 C 
ENDROOT
BRANCH   1   2
ATOM      2  CA  UNL     1       5.547   5.674  16.558  0.00  0.00    +0.000 C 
BRANCH   2   3
ATOM      3  N   UNL     1       5.268   6.489  15.342  0.00  0.00    +0.000 NA
ATOM      4  H1  UNL     1       4.875   7.385  15.653  0.00  0.00    +0.000 HD
ATOM      5  H2  UNL     1       4.510   6.069  14.798  0.00  0.00    +0.000 HD
ENDBRANCH   2   3
BRANCH   2   6
ATOM      6  C   UNL     1       7.065   5.559  16.751  0.00  0.00    +0.000 C 
ATOM      7  O   UNL     1       7.652   4.552  17.113  0.00  0.00    +0.000 OA
BRANCH   6   8
ATOM      8  OXT UNL     1       7.700   6.705  16.391  0.00  0.00    +0.000 OA
ATOM      9  HXT UNL     1       7.385   7.405  17.018  0.00  0.00    +0.000 HD
ENDBRANCH   6   8
ENDBRANCH   2   6
ENDBRANCH   1   2
BRANCH   1  10
ATOM     10  C   UNL     1       3.794   4.040  17.636  0.00  0.00    +0.000 C 
BRANCH  10  11
ATOM     11  C   UNL     1       4.468   4.227  18.989  0.00  0.00    +0.000 C 
ATOM     12  O   UNL     1       4.088   5.060  19.800  0.00  0.00    +0.000 OA
BRANCH  11  13
ATOM     13  O   UNL     1       5.566   3.471  19.199  0.00  0.00    +0.000 OA
ATOM     14  H   UNL     1       5.369   2.503  19.264  0.00  0.00    +0.000 HD
ENDBRANCH  11  13
ENDBRANCH  10  11
BRANCH  10  15
ATOM     15  C   UNL     1       3.088   2.689  17.588  0.00  0.00    +0.000 C 
BRANCH  15  16
ATOM     16  O   UNL     1       4.042   1.650  17.813  0.00  0.00    +0.000 OA
ATOM     17  H   UNL     1       4.196   1.595  18.786  0.00  0.00    +0.000 HD
ENDBRANCH  15  16
ENDBRANCH  10  15
ENDBRANCH   1  10
TORSDOF 9
ENDMDL
