MODEL 1
REMARK VINA RESULT:      -7.2      0.000      0.000
REMARK  Name = 
REMARK  7 active torsions:
REMARK  status: ('A' for Active; 'I' for Inactive)
REMARK    1  A    between atoms: C_1  and  C_2
REMARK    2  A    between atoms: C_2  and  N_3
REMARK    3  A    between atoms: C_4  and  C_6
REMARK    4  A    between atoms: C_11  and  S_12
REMARK    5  A    between atoms: S_12  and  C_13
REMARK    6  A    between atoms: C_13  and  C_14
REMARK    7  A    between atoms: N_16  and  C_17
REMARK                            x       y       z     vdW  Elec       q    Type
REMARK                         _______ _______ _______ _____ _____    ______ ____
ROOT
ATOM      1  S   UNL     1       5.675   5.287  19.342  0.00  0.00    +0.000 S 
ENDROOT
BRANCH   1   7
ATOM      2  C   UNL     1       2.946   5.393  18.451  0.00  0.00    +0.000 A 
ATOM      3  C   UNL     1       1.823   4.734  17.909  0.00  0.00    +0.000 A 
ATOM      4  C   UNL     1       1.902   3.415  17.464  0.00  0.00    +0.000 A 
ATOM      5  C   UNL     1       3.114   2.743  17.527  0.00  0.00    +0.000 A 
ATOM      6  C   UNL     1       4.239   3.382  18.060  0.00  0.00    +0.000 A 
ATOM      7  C   UNL     1       4.173   4.704  18.543  0.00  0.00    +0.000 A 
BRANCH   2   9
ATOM      8  N   UNL     1       2.065   6.980  20.101  0.00  0.00    +0.000 N 
ATOM      9  C   UNL     1       2.690   6.798  18.894  0.00  0.00    +0.000 C 
ATOM     10  O   UNL     1       3.024   7.731  18.170  0.00  0.00    +0.000 OA
ATOM     11  H   UNL     1       1.813   6.167  20.650  0.00  0.00    +0.000 HD
BRANCH   8  13
ATOM     12  C   UNL     1       0.454   8.310  21.408  0.00  0.00    +0.000 C 
ATOM     13  C   UNL     1       1.752   8.296  20.616  0.00  0.00    +0.000 C 
ENDBRANCH   8  13
ENDBRANCH   2   9
ENDBRANCH   1   7
BRANCH   1  14
ATOM     14  C   UNL     1       6.415   6.300  18.014  0.00  0.00    +0.000 C 
BRANCH  14  15
ATOM     15  C   UNL     1       6.908   5.466  16.827  0.00  0.00    +0.000 C 
ATOM     16  O   UNL     1       7.771   4.609  17.015  0.00  0.00    +0.000 OA
ATOM     17  N   UNL     1       6.288   5.716  15.612  0.00  0.00    +0.000 N 
ATOM     18  H   UNL     1       5.741   6.569  15.567  0.00  0.00    +0.000 HD
BRANCH  17  19
ATOM     19  C   UNL     1       6.442   4.994  14.409  0.00  0.00    +0.000 A 
ATOM     20  C   UNL     1       7.529   5.161  13.545  0.00  0.00    +0.000 A 
ATOM     21  C   UNL     1       7.634   4.403  12.374  0.00  0.00    +0.000 A 
ATOM     22  C   UNL     1       6.646   3.481  12.067  0.00  0.00    +0.000 A 
ATOM     23  F   UNL     1       6.749   2.758  10.943  0.00  0.00    +0.000 F 
ATOM     24  C   UNL     1       5.560   3.292  12.909  0.00  0.00    +0.000 A 
ATOM     25  C   UNL     1       5.459   4.044  14.087  0.00  0.00    +0.000 A 
ENDBRANCH  17  19
ENDBRANCH  14  15
ENDBRANCH   1  14
TORSDOF 6
ENDMDL
MODEL 2
REMARK VINA RESULT:      -7.0      3.962      6.713
REMARK  Name = 
REMARK  7 active torsions:
REMARK  status: ('A' for Active; 'I' for Inactive)
REMARK    1  A    between atoms: C_1  and  C_2
REMARK    2  A    between atoms: C_2  and  N_3
REMARK    3  A    between atoms: C_4  and  C_6
REMARK    4  A    between atoms: C_11  and  S_12
REMARK    5  A    between atoms: S_12  and  C_13
REMARK    6  A    between atoms: C_13  and  C_14
REMARK    7  A    between atoms: N_16  and  C_17
REMARK                            x       y       z     vdW  Elec       q    Type
REMARK                         _______ _______ _______ _____ _____    ______ ____
ROOT
ATOM      1  S   UNL     1       3.741   2.654  21.142  0.00  0.00    +0.000 S 
ENDROOT
BRANCH   1   7
ATOM      2  C   UNL     1       4.273   3.675  18.510  0.00  0.00    +0.000 A 
ATOM      3  C   UNL     1       3.918   3.754  17.147  0.00  0.00    +0.000 A 
ATOM      4  C   UNL     1       2.884   2.981  16.622  0.00  0.00    +0.000 A 
ATOM      5  C   UNL     1       2.207   2.093  17.447  0.00  0.00    +0.000 A 
ATOM      6  C   UNL     1       2.547   2.000  18.800  0.00  0.00    +0.000 A 
ATOM      7  C   UNL     1       3.569   2.794  19.357  0.00  0.00    +0.000 A 
BRANCH   2   9
ATOM      8  N   UNL     1       6.588   4.446  18.258  0.00  0.00    +0.000 N 
ATOM      9  C   UNL     1       5.393   4.580  18.916  0.00  0.00    +0.000 C 
ATOM     10  O   UNL     1       5.219   5.389  19.822  0.00  0.00    +0.000 OA
ATOM     11  H   UNL     1       6.668   3.756  17.520  0.00  0.00    +0.000 HD
BRANCH   8  13
ATOM     12  C   UNL     1       7.687   6.627  17.930  0.00  0.00    +0.000 C 
ATOM     13  C   UNL     1       7.743   5.257  18.584  0.00  0.00    +0.000 C 
ENDBRANCH   8  13
ENDBRANCH   2   9
ENDBRANCH   1   7
BRANCH   1  14
ATOM     14  C   UNL     1       2.173   3.400  21.711  0.00  0.00    +0.000 C 
BRANCH  14  15
ATOM     15  C   UNL     1       1.668   4.512  20.786  0.00  0.00    +0.000 C 
ATOM     16  O   UNL     1       0.629   4.334  20.149  0.00  0.00    +0.000 OA
ATOM     17  N   UNL     1       2.413   5.681  20.781  0.00  0.00    +0.000 N 
ATOM     18  H   UNL     1       3.334   5.614  21.200  0.00  0.00    +0.000 HD
BRANCH  17  19
ATOM     19  C   UNL     1       2.089   6.899  20.145  0.00  0.00    +0.000 A 
ATOM     20  C   UNL     1       2.432   7.189  18.820  0.00  0.00    +0.000 A 
ATOM     21  C   UNL     1       2.068   8.409  18.240  0.00  0.00    +0.000 A 
ATOM     22  C   UNL     1       1.365   9.340  18.989  0.00  0.00    +0.000 A 
ATOM     23  F   UNL     1       1.020  10.508  18.430  0.00  0.00    +0.000 F 
ATOM     24  C   UNL     1       1.010   9.074  20.304  0.00  0.00    +0.000 A 
ATOM     25  C   UNL     1       1.366   7.849  20.883  0.00  0.00    +0.000 A 
ENDBRANCH  17  19
ENDBRANCH  14  15
ENDBRANCH   1  14
TORSDOF 6
ENDMDL
MODEL 3
REMARK VINA RESULT:      -6.9      4.945      8.919
REMARK  Name = 
REMARK  7 active torsions:
REMARK  status: ('A' for Active; 'I' for Inactive)
REMARK    1  A    between atoms: C_1  and  C_2
REMARK    2  A    between atoms: C_2  and  N_3
REMARK    3  A    between atoms: C_4  and  C_6
REMARK    4  A    between atoms: C_11  and  S_12
REMARK    5  A    between atoms: S_12  and  C_13
REMARK    6  A    between atoms: C_13  and  C_14
REMARK    7  A    between atoms: N_16  and  C_17
REMARK                            x       y       z     vdW  Elec       q    Type
REMARK                         _______ _______ _______ _____ _____    ______ ____
ROOT
ATOM      1  S   UNL     1       2.441   7.218  19.158  0.00  0.00    +0.000 S 
ENDROOT
BRANCH   1   7
ATOM      2  C   UNL     1       3.193   4.876  17.675  0.00  0.00    +0.000 A 
ATOM      3  C   UNL     1       4.088   4.238  16.792  0.00  0.00    +0.000 A 
ATOM      4  C   UNL     1       5.131   4.937  16.186  0.00  0.00    +0.000 A 
ATOM      5  C   UNL     1       5.276   6.295  16.432  0.00  0.00    +0.000 A 
ATOM      6  C   UNL     1       4.396   6.944  17.304  0.00  0.00    +0.000 A 
ATOM      7  C   UNL     1       3.355   6.249  17.949  0.00  0.00    +0.000 A 
BRANCH   2   9
ATOM      8  N   UNL     1       2.299   3.568  19.548  0.00  0.00    +0.000 N 
ATOM      9  C   UNL     1       2.141   3.981  18.250  0.00  0.00    +0.000 C 
ATOM     10  O   UNL     1       1.194   3.633  17.552  0.00  0.00    +0.000 OA
ATOM     11  H   UNL     1       3.105   3.889  20.071  0.00  0.00    +0.000 HD
BRANCH   8  13
ATOM     12  C   UNL     1       1.570   2.612  21.699  0.00  0.00    +0.000 C 
ATOM     13  C   UNL     1       1.352   2.686  20.197  0.00  0.00    +0.000 C 
ENDBRANCH   8  13
ENDBRANCH   2   9
ENDBRANCH   1   7
BRANCH   1  14
ATOM     14  C   UNL     1       2.021   8.703  18.179  0.00  0.00    +0.000 C 
BRANCH  14  15
ATOM     15  C   UNL     1       0.975   9.593  18.858  0.00  0.00    +0.000 C 
ATOM     16  O   UNL     1      -0.032   9.920  18.229  0.00  0.00    +0.000 OA
ATOM     17  N   UNL     1       1.228   9.925  20.180  0.00  0.00    +0.000 N 
ATOM     18  H   UNL     1       2.174   9.749  20.502  0.00  0.00    +0.000 HD
BRANCH  17  19
ATOM     19  C   UNL     1       0.365  10.596  21.074  0.00  0.00    +0.000 A 
ATOM     20  C   UNL     1      -0.014  11.933  20.918  0.00  0.00    +0.000 A 
ATOM     21  C   UNL     1      -0.886  12.539  21.830  0.00  0.00    +0.000 A 
ATOM     22  C   UNL     1      -1.374  11.804  22.899  0.00  0.00    +0.000 A 
ATOM     23  F   UNL     1      -2.208  12.388  23.771  0.00  0.00    +0.000 F 
ATOM     24  C   UNL     1      -1.016  10.475  23.073  0.00  0.00    +0.000 A 
ATOM     25  C   UNL     1      -0.151   9.866  22.156  0.00  0.00    +0.000 A 
ENDBRANCH  17  19
ENDBRANCH  14  15
ENDBRANCH   1  14
TORSDOF 6
ENDMDL
MODEL 4
REMARK VINA RESULT:      -6.9      4.575      8.164
REMARK  Name = 
REMARK  7 active torsions:
REMARK  status: ('A' for Active; 'I' for Inactive)
REMARK    1  A    between atoms: C_1  and  C_2
REMARK    2  A    between atoms: C_2  and  N_3
REMARK    3  A    between atoms: C_4  and  C_6
REMARK    4  A    between atoms: C_11  and  S_12
REMARK    5  A    between atoms: S_12  and  C_13
REMARK    6  A    between atoms: C_13  and  C_14
REMARK    7  A    between atoms: N_16  and  C_17
REMARK                            x       y       z     vdW  Elec       q    Type
REMARK                         _______ _______ _______ _____ _____    ______ ____
ROOT
ATOM      1  S   UNL     1       2.877   6.375  19.569  0.00  0.00    +0.000 S 
ENDROOT
BRANCH   1   7
ATOM      2  C   UNL     1       3.627   4.012  18.117  0.00  0.00    +0.000 A 
ATOM      3  C   UNL     1       3.288   2.733  17.628  0.00  0.00    +0.000 A 
ATOM      4  C   UNL     1       2.081   2.124  17.967  0.00  0.00    +0.000 A 
ATOM      5  C   UNL     1       1.205   2.773  18.825  0.00  0.00    +0.000 A 
ATOM      6  C   UNL     1       1.525   4.041  19.322  0.00  0.00    +0.000 A 
ATOM      7  C   UNL     1       2.726   4.687  18.968  0.00  0.00    +0.000 A 
BRANCH   2   9
ATOM      8  N   UNL     1       6.050   4.248  18.416  0.00  0.00    +0.000 N 
ATOM      9  C   UNL     1       4.949   4.529  17.648  0.00  0.00    +0.000 C 
ATOM     10  O   UNL     1       5.008   5.192  16.618  0.00  0.00    +0.000 OA
ATOM     11  H   UNL     1       5.934   3.697  19.258  0.00  0.00    +0.000 HD
BRANCH   8  13
ATOM     12  C   UNL     1       7.792   5.928  18.882  0.00  0.00    +0.000 C 
ATOM     13  C   UNL     1       7.374   4.716  18.065  0.00  0.00    +0.000 C 
ENDBRANCH   8  13
ENDBRANCH   2   9
ENDBRANCH   1   7
BRANCH   1  14
ATOM     14  C   UNL     1       2.663   7.324  18.022  0.00  0.00    +0.000 C 
BRANCH  14  15
ATOM     15  C   UNL     1       2.015   8.694  18.244  0.00  0.00    +0.000 C 
ATOM     16  O   UNL     1       2.140   9.562  17.380  0.00  0.00    +0.000 OA
ATOM     17  N   UNL     1       1.275   8.833  19.408  0.00  0.00    +0.000 N 
ATOM     18  H   UNL     1       1.419   8.111  20.106  0.00  0.00    +0.000 HD
BRANCH  17  19
ATOM     19  C   UNL     1       0.460   9.924  19.779  0.00  0.00    +0.000 A 
ATOM     20  C   UNL     1      -0.718  10.268  19.106  0.00  0.00    +0.000 A 
ATOM     21  C   UNL     1      -1.493  11.352  19.532  0.00  0.00    +0.000 A 
ATOM     22  C   UNL     1      -1.086  12.093  20.630  0.00  0.00    +0.000 A 
ATOM     23  F   UNL     1      -1.830  13.132  21.034  0.00  0.00    +0.000 F 
ATOM     24  C   UNL     1       0.075  11.770  21.317  0.00  0.00    +0.000 A 
ATOM     25  C   UNL     1       0.847  10.680  20.897  0.00  0.00    +0.000 A 
ENDBRANCH  17  19
ENDBRANCH  14  15
ENDBRANCH   1  14
TORSDOF 6
ENDMDL
MODEL 5
REMARK VINA RESULT:      -6.8      4.944      8.993
REMARK  Name = 
REMARK  7 active torsions:
REMARK  status: ('A' for Active; 'I' for Inactive)
REMARK    1  A    between atoms: C_1  and  C_2
REMARK    2  A    between atoms: C_2  and  N_3
REMARK    3  A    between atoms: C_4  and  C_6
REMARK    4  A    between atoms: C_11  and  S_12
REMARK    5  A    between atoms: S_12  and  C_13
REMARK    6  A    between atoms: C_13  and  C_14
REMARK    7  A    between atoms: N_16  and  C_17
REMARK                            x       y       z     vdW  Elec       q    Type
REMARK                         _______ _______ _______ _____ _____    ______ ____
ROOT
ATOM      1  S   UNL     1       2.324   7.240  19.047  0.00  0.00    +0.000 S 
ENDROOT
BRANCH   1   7
ATOM      2  C   UNL     1       3.293   4.948  17.612  0.00  0.00    +0.000 A 
ATOM      3  C   UNL     1       4.250   4.376  16.748  0.00  0.00    +0.000 A 
ATOM      4  C   UNL     1       5.234   5.154  16.141  0.00  0.00    +0.000 A 
ATOM      5  C   UNL     1       5.259   6.523  16.364  0.00  0.00    +0.000 A 
ATOM      6  C   UNL     1       4.316   7.107  17.216  0.00  0.00    +0.000 A 
ATOM      7  C   UNL     1       3.332   6.335  17.864  0.00  0.00    +0.000 A 
BRANCH   2   9
ATOM      8  N   UNL     1       2.670   3.336  19.353  0.00  0.00    +0.000 N 
ATOM      9  C   UNL     1       2.317   3.974  18.192  0.00  0.00    +0.000 C 
ATOM     10  O   UNL     1       1.255   3.765  17.614  0.00  0.00    +0.000 OA
ATOM     11  H   UNL     1       3.564   3.551  19.780  0.00  0.00    +0.000 HD
BRANCH   8  13
ATOM     12  C   UNL     1       1.297   2.839  21.338  0.00  0.00    +0.000 C 
ATOM     13  C   UNL     1       1.810   2.361  19.989  0.00  0.00    +0.000 C 
ENDBRANCH   8  13
ENDBRANCH   2   9
ENDBRANCH   1   7
BRANCH   1  14
ATOM     14  C   UNL     1       1.897   8.733  18.082  0.00  0.00    +0.000 C 
BRANCH  14  15
ATOM     15  C   UNL     1       0.903   9.648  18.802  0.00  0.00    +0.000 C 
ATOM     16  O   UNL     1      -0.126   9.992  18.219  0.00  0.00    +0.000 OA
ATOM     17  N   UNL     1       1.225   9.984  20.108  0.00  0.00    +0.000 N 
ATOM     18  H   UNL     1       2.181   9.791  20.386  0.00  0.00    +0.000 HD
BRANCH  17  19
ATOM     19  C   UNL     1       0.420  10.679  21.036  0.00  0.00    +0.000 A 
ATOM     20  C   UNL     1      -0.316  10.044  22.043  0.00  0.00    +0.000 A 
ATOM     21  C   UNL     1      -1.083  10.789  22.945  0.00  0.00    +0.000 A 
ATOM     22  C   UNL     1      -1.117  12.171  22.834  0.00  0.00    +0.000 A 
ATOM     23  F   UNL     1      -1.855  12.881  23.699  0.00  0.00    +0.000 F 
ATOM     24  C   UNL     1      -0.393  12.825  21.847  0.00  0.00    +0.000 A 
ATOM     25  C   UNL     1       0.383  12.080  20.950  0.00  0.00    +0.000 A 
ENDBRANCH  17  19
ENDBRANCH  14  15
ENDBRANCH   1  14
TORSDOF 6
ENDMDL
MODEL 6
REMARK VINA RESULT:      -6.8      4.434      8.396
REMARK  Name = 
REMARK  7 active torsions:
REMARK  status: ('A' for Active; 'I' for Inactive)
REMARK    1  A    between atoms: C_1  and  C_2
REMARK    2  A    between atoms: C_2  and  N_3
REMARK    3  A    between atoms: C_4  and  C_6
REMARK    4  A    between atoms: C_11  and  S_12
REMARK    5  A    between atoms: S_12  and  C_13
REMARK    6  A    between atoms: C_13  and  C_14
REMARK    7  A    between atoms: N_16  and  C_17
REMARK                            x       y       z     vdW  Elec       q    Type
REMARK                         _______ _______ _______ _____ _____    ______ ____
ROOT
ATOM      1  S   UNL     1       3.225   6.723  18.694  0.00  0.00    +0.000 S 
ENDROOT
BRANCH   1   7
ATOM      2  C   UNL     1       4.285   4.346  17.478  0.00  0.00    +0.000 A 
ATOM      3  C   UNL     1       5.106   3.751  16.498  0.00  0.00    +0.000 A 
ATOM      4  C   UNL     1       5.729   4.515  15.512  0.00  0.00    +0.000 A 
ATOM      5  C   UNL     1       5.516   5.885  15.473  0.00  0.00    +0.000 A 
ATOM      6  C   UNL     1       4.703   6.493  16.436  0.00  0.00    +0.000 A 
ATOM      7  C   UNL     1       4.089   5.743  17.458  0.00  0.00    +0.000 A 
BRANCH   2   9
ATOM      8  N   UNL     1       2.356   3.153  18.411  0.00  0.00    +0.000 N 
ATOM      9  C   UNL     1       3.705   3.390  18.470  0.00  0.00    +0.000 C 
ATOM     10  O   UNL     1       4.436   2.867  19.306  0.00  0.00    +0.000 OA
ATOM     11  H   UNL     1       1.806   3.619  17.698  0.00  0.00    +0.000 HD
BRANCH   8  13
ATOM     12  C   UNL     1       1.105   3.001  20.528  0.00  0.00    +0.000 C 
ATOM     13  C   UNL     1       1.688   2.261  19.336  0.00  0.00    +0.000 C 
ENDBRANCH   8  13
ENDBRANCH   2   9
ENDBRANCH   1   7
BRANCH   1  14
ATOM     14  C   UNL     1       2.433   7.996  17.648  0.00  0.00    +0.000 C 
BRANCH  14  15
ATOM     15  C   UNL     1       1.580   8.985  18.449  0.00  0.00    +0.000 C 
ATOM     16  O   UNL     1       0.894   9.810  17.845  0.00  0.00    +0.000 OA
ATOM     17  N   UNL     1       1.610   8.833  19.827  0.00  0.00    +0.000 N 
ATOM     18  H   UNL     1       2.357   8.247  20.186  0.00  0.00    +0.000 HD
BRANCH  17  19
ATOM     19  C   UNL     1       0.811   9.502  20.779  0.00  0.00    +0.000 A 
ATOM     20  C   UNL     1       0.590  10.884  20.762  0.00  0.00    +0.000 A 
ATOM     21  C   UNL     1      -0.226  11.488  21.725  0.00  0.00    +0.000 A 
ATOM     22  C   UNL     1      -0.817  10.707  22.706  0.00  0.00    +0.000 A 
ATOM     23  F   UNL     1      -1.597  11.289  23.627  0.00  0.00    +0.000 F 
ATOM     24  C   UNL     1      -0.618   9.335  22.741  0.00  0.00    +0.000 A 
ATOM     25  C   UNL     1       0.192   8.728  21.773  0.00  0.00    +0.000 A 
ENDBRANCH  17  19
ENDBRANCH  14  15
ENDBRANCH   1  14
TORSDOF 6
ENDMDL
MODEL 7
REMARK VINA RESULT:      -6.8      4.321      7.782
REMARK  Name = 
REMARK  7 active torsions:
REMARK  status: ('A' for Active; 'I' for Inactive)
REMARK    1  A    between atoms: C_1  and  C_2
REMARK    2  A    between atoms: C_2  and  N_3
REMARK    3  A    between atoms: C_4  and  C_6
REMARK    4  A    between atoms: C_11  and  S_12
REMARK    5  A    between atoms: S_12  and  C_13
REMARK    6  A    between atoms: C_13  and  C_14
REMARK    7  A    between atoms: N_16  and  C_17
REMARK                            x       y       z     vdW  Elec       q    Type
REMARK                         _______ _______ _______ _____ _____    ______ ____
ROOT
ATOM      1  S   UNL     1       2.620   6.523  18.019  0.00  0.00    +0.000 S 
ENDROOT
BRANCH   1   7
ATOM      2  C   UNL     1       3.834   3.932  17.769  0.00  0.00    +0.000 A 
ATOM      3  C   UNL     1       3.700   2.528  17.760  0.00  0.00    +0.000 A 
ATOM      4  C   UNL     1       2.488   1.914  18.074  0.00  0.00    +0.000 A 
ATOM      5  C   UNL     1       1.398   2.695  18.431  0.00  0.00    +0.000 A 
ATOM      6  C   UNL     1       1.514   4.088  18.447  0.00  0.00    +0.000 A 
ATOM      7  C   UNL     1       2.720   4.730  18.103  0.00  0.00    +0.000 A 
BRANCH   2   9
ATOM      8  N   UNL     1       6.211   4.236  18.294  0.00  0.00    +0.000 N 
ATOM      9  C   UNL     1       5.194   4.430  17.395  0.00  0.00    +0.000 C 
ATOM     10  O   UNL     1       5.354   5.004  16.322  0.00  0.00    +0.000 OA
ATOM     11  H   UNL     1       6.012   3.757  19.164  0.00  0.00    +0.000 HD
BRANCH   8  13
ATOM     12  C   UNL     1       7.931   5.891  18.904  0.00  0.00    +0.000 C 
ATOM     13  C   UNL     1       7.560   4.696  18.042  0.00  0.00    +0.000 C 
ENDBRANCH   8  13
ENDBRANCH   2   9
ENDBRANCH   1   7
BRANCH   1  14
ATOM     14  C   UNL     1       2.339   6.948  19.774  0.00  0.00    +0.000 C 
BRANCH  14  15
ATOM     15  C   UNL     1       1.644   8.300  19.961  0.00  0.00    +0.000 C 
ATOM     16  O   UNL     1       1.367   8.678  21.099  0.00  0.00    +0.000 OA
ATOM     17  N   UNL     1       1.425   9.032  18.805  0.00  0.00    +0.000 N 
ATOM     18  H   UNL     1       1.528   8.520  17.935  0.00  0.00    +0.000 HD
BRANCH  17  19
ATOM     19  C   UNL     1       0.948  10.358  18.709  0.00  0.00    +0.000 A 
ATOM     20  C   UNL     1       1.788  11.475  18.647  0.00  0.00    +0.000 A 
ATOM     21  C   UNL     1       1.256  12.764  18.537  0.00  0.00    +0.000 A 
ATOM     22  C   UNL     1      -0.119  12.933  18.492  0.00  0.00    +0.000 A 
ATOM     23  F   UNL     1      -0.626  14.170  18.387  0.00  0.00    +0.000 F 
ATOM     24  C   UNL     1      -0.974  11.842  18.547  0.00  0.00    +0.000 A 
ATOM     25  C   UNL     1      -0.441  10.550  18.648  0.00  0.00    +0.000 A 
ENDBRANCH  17  19
ENDBRANCH  14  15
ENDBRANCH   1  14
TORSDOF 6
ENDMDL
MODEL 8
REMARK VINA RESULT:      -6.8      3.416      7.667
REMARK  Name = 
REMARK  7 active torsions:
REMARK  status: ('A' for Active; 'I' for Inactive)
REMARK    1  A    between atoms: C_1  and  C_2
REMARK    2  A    between atoms: C_2  and  N_3
REMARK    3  A    between atoms: C_4  and  C_6
REMARK    4  A    between atoms: C_11  and  S_12
REMARK    5  A    between atoms: S_12  and  C_13
REMARK    6  A    between atoms: C_13  and  C_14
REMARK    7  A    between atoms: N_16  and  C_17
REMARK                            x       y       z     vdW  Elec       q    Type
REMARK                         _______ _______ _______ _____ _____    ______ ____
ROOT
ATOM      1  S   UNL     1       4.415   3.638  17.961  0.00  0.00    +0.000 S 
ENDROOT
BRANCH   1   7
ATOM      2  C   UNL     1       6.233   5.602  16.916  0.00  0.00    +0.000 A 
ATOM      3  C   UNL     1       7.352   6.439  17.108  0.00  0.00    +0.000 A 
ATOM      4  C   UNL     1       7.961   6.561  18.356  0.00  0.00    +0.000 A 
ATOM      5  C   UNL     1       7.440   5.870  19.441  0.00  0.00    +0.000 A 
ATOM      6  C   UNL     1       6.329   5.038  19.270  0.00  0.00    +0.000 A 
ATOM      7  C   UNL     1       5.718   4.877  18.011  0.00  0.00    +0.000 A 
BRANCH   2   9
ATOM      8  N   UNL     1       5.873   4.414  14.801  0.00  0.00    +0.000 N 
ATOM      9  C   UNL     1       5.709   5.572  15.515  0.00  0.00    +0.000 C 
ATOM     10  O   UNL     1       5.174   6.572  15.048  0.00  0.00    +0.000 OA
ATOM     11  H   UNL     1       6.327   3.623  15.244  0.00  0.00    +0.000 HD
BRANCH   8  13
ATOM     12  C   UNL     1       6.385   3.467  12.584  0.00  0.00    +0.000 C 
ATOM     13  C   UNL     1       5.423   4.283  13.431  0.00  0.00    +0.000 C 
ENDBRANCH   8  13
ENDBRANCH   2   9
ENDBRANCH   1   7
BRANCH   1  14
ATOM     14  C   UNL     1       3.305   4.235  19.285  0.00  0.00    +0.000 C 
BRANCH  14  15
ATOM     15  C   UNL     1       2.570   5.527  18.914  0.00  0.00    +0.000 C 
ATOM     16  O   UNL     1       1.934   5.572  17.861  0.00  0.00    +0.000 OA
ATOM     17  N   UNL     1       2.639   6.552  19.845  0.00  0.00    +0.000 N 
ATOM     18  H   UNL     1       3.346   6.442  20.564  0.00  0.00    +0.000 HD
BRANCH  17  19
ATOM     19  C   UNL     1       1.936   7.775  19.824  0.00  0.00    +0.000 A 
ATOM     20  C   UNL     1       1.836   8.586  18.687  0.00  0.00    +0.000 A 
ATOM     21  C   UNL     1       1.110   9.781  18.725  0.00  0.00    +0.000 A 
ATOM     22  C   UNL     1       0.488  10.166  19.902  0.00  0.00    +0.000 A 
ATOM     23  F   UNL     1      -0.205  11.313  19.934  0.00  0.00    +0.000 F 
ATOM     24  C   UNL     1       0.568   9.378  21.041  0.00  0.00    +0.000 A 
ATOM     25  C   UNL     1       1.287   8.177  21.002  0.00  0.00    +0.000 A 
ENDBRANCH  17  19
ENDBRANCH  14  15
ENDBRANCH   1  14
TORSDOF 6
ENDMDL
MODEL 9
REMARK VINA RESULT:      -6.7      4.739      8.194
REMARK  Name = 
REMARK  7 active torsions:
REMARK  status: ('A' for Active; 'I' for Inactive)
REMARK    1  A    between atoms: C_1  and  C_2
REMARK    2  A    between atoms: C_2  and  N_3
REMARK    3  A    between atoms: C_4  and  C_6
REMARK    4  A    between atoms: C_11  and  S_12
REMARK    5  A    between atoms: S_12  and  C_13
REMARK    6  A    between atoms: C_13  and  C_14
REMARK    7  A    between atoms: N_16  and  C_17
REMARK                            x       y       z     vdW  Elec       q    Type
REMARK                         _______ _______ _______ _____ _____    ______ ____
ROOT
ATOM      1  S   UNL     1       3.312   6.739  18.768  0.00  0.00    +0.000 S 
ENDROOT
BRANCH   1   7
ATOM      2  C   UNL     1       4.075   4.445  17.216  0.00  0.00    +0.000 A 
ATOM      3  C   UNL     1       4.820   3.898  16.150  0.00  0.00    +0.000 A 
ATOM      4  C   UNL     1       5.533   4.712  15.272  0.00  0.00    +0.000 A 
ATOM      5  C   UNL     1       5.489   6.090  15.428  0.00  0.00    +0.000 A 
ATOM      6  C   UNL     1       4.755   6.650  16.478  0.00  0.00    +0.000 A 
ATOM      7  C   UNL     1       4.051   5.844  17.395  0.00  0.00    +0.000 A 
BRANCH   2   9
ATOM      8  N   UNL     1       2.025   3.301  17.924  0.00  0.00    +0.000 N 
ATOM      9  C   UNL     1       3.381   3.436  18.074  0.00  0.00    +0.000 C 
ATOM     10  O   UNL     1       4.029   2.783  18.885  0.00  0.00    +0.000 OA
ATOM     11  H   UNL     1       1.547   3.873  17.238  0.00  0.00    +0.000 HD
BRANCH   8  13
ATOM     12  C   UNL     1       0.866   2.946  20.070  0.00  0.00    +0.000 C 
ATOM     13  C   UNL     1       1.251   2.369  18.718  0.00  0.00    +0.000 C 
ENDBRANCH   8  13
ENDBRANCH   2   9
ENDBRANCH   1   7
BRANCH   1  14
ATOM     14  C   UNL     1       2.683   8.232  17.923  0.00  0.00    +0.000 C 
BRANCH  14  15
ATOM     15  C   UNL     1       1.463   8.846  18.618  0.00  0.00    +0.000 C 
ATOM     16  O   UNL     1       1.331   8.702  19.833  0.00  0.00    +0.000 OA
ATOM     17  N   UNL     1       0.609   9.578  17.807  0.00  0.00    +0.000 N 
ATOM     18  H   UNL     1       0.737   9.451  16.809  0.00  0.00    +0.000 HD
BRANCH  17  19
ATOM     19  C   UNL     1      -0.490  10.365  18.213  0.00  0.00    +0.000 A 
ATOM     20  C   UNL     1      -0.382  11.432  19.112  0.00  0.00    +0.000 A 
ATOM     21  C   UNL     1      -1.507  12.186  19.463  0.00  0.00    +0.000 A 
ATOM     22  C   UNL     1      -2.740  11.868  18.917  0.00  0.00    +0.000 A 
ATOM     23  F   UNL     1      -3.816  12.592  19.257  0.00  0.00    +0.000 F 
ATOM     24  C   UNL     1      -2.873  10.818  18.019  0.00  0.00    +0.000 A 
ATOM     25  C   UNL     1      -1.746  10.068  17.660  0.00  0.00    +0.000 A 
ENDBRANCH  17  19
ENDBRANCH  14  15
ENDBRANCH   1  14
TORSDOF 6
ENDMDL
