MODEL 1
REMARK VINA RESULT:      -7.7      0.000      0.000
REMARK  Name = 
REMARK  4 active torsions:
REMARK  status: ('A' for Active; 'I' for Inactive)
REMARK    1  A    between atoms: C_1  and  C_2
REMARK    2  A    between atoms: C_3  and  C_4
REMARK    3  A    between atoms: C_9  and  N_10
REMARK    4  A    between atoms: C_14  and  C_15
REMARK                            x       y       z     vdW  Elec       q    Type
REMARK                         _______ _______ _______ _____ _____    ______ ____
ROOT
ATOM      1  C   UNL     1       2.923  15.010  17.969  0.00  0.00    +0.000 C 
ATOM      2  C   UNL     1       3.209  14.867  19.422  0.00  0.00    +0.000 A 
ATOM      3  C   UNL     1       4.212  15.427  20.200  0.00  0.00    +0.000 A 
ATOM      4  C   UNL     1       3.982  14.910  21.488  0.00  0.00    +0.000 A 
ATOM      5  N   UNL     1       2.967  14.053  21.532  0.00  0.00    +0.000 NA
ATOM      6  N   UNL     1       2.477  14.036  20.257  0.00  0.00    +0.000 N 
ATOM      7  C   UNL     1       1.378  13.208  19.950  0.00  0.00    +0.000 A 
ATOM      8  N   UNL     1       0.686  13.304  18.850  0.00  0.00    +0.000 NA
ATOM      9  N   UNL     1      -0.234  12.319  18.734  0.00  0.00    +0.000 N 
ATOM     10  C   UNL     1      -1.253  12.253  17.824  0.00  0.00    +0.000 A 
ATOM     11  C   UNL     1      -1.870  11.024  17.962  0.00  0.00    +0.000 A 
ATOM     12  C   UNL     1      -1.194  10.317  18.983  0.00  0.00    +0.000 A 
ATOM     13  C   UNL     1      -0.241  11.181  19.490  0.00  0.00    +0.000 A 
ATOM     14  C   UNL     1       0.680  11.080  20.569  0.00  0.00    +0.000 A 
ATOM     15  O   UNL     1       1.067  10.030  21.070  0.00  0.00    +0.000 OA
ATOM     16  N   UNL     1       1.152  12.304  20.961  0.00  0.00    +0.000 N 
ATOM     17  H   UNL     1       0.441  12.719  21.557  0.00  0.00    +0.000 HD
ENDROOT
BRANCH   3  18
ATOM     18  C   UNL     1       5.206  16.388  19.757  0.00  0.00    +0.000 C 
ATOM     19  O   UNL     1       4.916  17.577  19.674  0.00  0.00    +0.000 OA
ATOM     20  N   UNL     1       6.486  15.920  19.440  0.00  0.00    +0.000 N 
ATOM     21  C   UNL     1       7.551  16.915  19.328  0.00  0.00    +0.000 C 
ATOM     22  C   UNL     1       8.400  16.704  18.087  0.00  0.00    +0.000 C 
ATOM     23  C   UNL     1       8.881  15.258  17.914  0.00  0.00    +0.000 C 
ATOM     24  C   UNL     1       7.709  14.278  18.039  0.00  0.00    +0.000 C 
ATOM     25  C   UNL     1       6.854  14.510  19.278  0.00  0.00    +0.000 C 
BRANCH  23  26
ATOM     26  N   UNL     1      10.035  14.900  18.739  0.00  0.00    +0.000 N 
ATOM     27  C   UNL     1      10.413  15.549  19.891  0.00  0.00    +0.000 A 
ATOM     28  C   UNL     1      11.537  14.911  20.347  0.00  0.00    +0.000 A 
ATOM     29  N   UNL     1      11.851  13.881  19.527  0.00  0.00    +0.000 NA
ATOM     30  C   UNL     1      10.944  13.862  18.554  0.00  0.00    +0.000 A 
BRANCH  30  31
ATOM     31  C   UNL     1      10.941  12.842  17.449  0.00  0.00    +0.000 C 
ATOM     32  F   UNL     1      11.959  11.945  17.498  0.00  0.00    +0.000 F 
ATOM     33  F   UNL     1       9.798  12.107  17.450  0.00  0.00    +0.000 F 
ATOM     34  F   UNL     1      11.029  13.432  16.226  0.00  0.00    +0.000 F 
ENDBRANCH  30  31
ENDBRANCH  23  26
ENDBRANCH   3  18
TORSDOF 3
ENDMDL
MODEL 2
REMARK VINA RESULT:      -7.5      4.780      7.437
REMARK  Name = 
REMARK  4 active torsions:
REMARK  status: ('A' for Active; 'I' for Inactive)
REMARK    1  A    between atoms: C_1  and  C_2
REMARK    2  A    between atoms: C_3  and  C_4
REMARK    3  A    between atoms: C_9  and  N_10
REMARK    4  A    between atoms: C_14  and  C_15
REMARK                            x       y       z     vdW  Elec       q    Type
REMARK                         _______ _______ _______ _____ _____    ______ ____
ROOT
ATOM      1  C   UNL     1       0.367   8.525  21.208  0.00  0.00    +0.000 C 
ATOM      2  C   UNL     1       0.932   8.841  19.868  0.00  0.00    +0.000 A 
ATOM      3  C   UNL     1       0.835   9.993  19.101  0.00  0.00    +0.000 A 
ATOM      4  C   UNL     1       1.554   9.691  17.929  0.00  0.00    +0.000 A 
ATOM      5  N   UNL     1       2.021   8.448  17.910  0.00  0.00    +0.000 NA
ATOM      6  N   UNL     1       1.651   7.924  19.116  0.00  0.00    +0.000 N 
ATOM      7  C   UNL     1       1.991   6.591  19.424  0.00  0.00    +0.000 A 
ATOM      8  N   UNL     1       1.911   6.082  20.621  0.00  0.00    +0.000 NA
ATOM      9  N   UNL     1       2.172   4.755  20.635  0.00  0.00    +0.000 N 
ATOM     10  C   UNL     1       2.383   3.973  21.736  0.00  0.00    +0.000 A 
ATOM     11  C   UNL     1       2.476   2.660  21.316  0.00  0.00    +0.000 A 
ATOM     12  C   UNL     1       2.305   2.645  19.913  0.00  0.00    +0.000 A 
ATOM     13  C   UNL     1       2.199   3.966  19.519  0.00  0.00    +0.000 A 
ATOM     14  C   UNL     1       2.097   4.591  18.245  0.00  0.00    +0.000 A 
ATOM     15  O   UNL     1       1.720   4.039  17.218  0.00  0.00    +0.000 OA
ATOM     16  N   UNL     1       2.410   5.922  18.297  0.00  0.00    +0.000 N 
ATOM     17  H   UNL     1       3.425   5.988  18.291  0.00  0.00    +0.000 HD
ENDROOT
BRANCH   3  18
ATOM     18  C   UNL     1       0.192  11.234  19.493  0.00  0.00    +0.000 C 
ATOM     19  O   UNL     1      -1.007  11.250  19.753  0.00  0.00    +0.000 OA
ATOM     20  N   UNL     1       0.975  12.392  19.569  0.00  0.00    +0.000 N 
ATOM     21  C   UNL     1       0.406  13.536  20.279  0.00  0.00    +0.000 C 
ATOM     22  C   UNL     1       0.584  14.831  19.506  0.00  0.00    +0.000 C 
ATOM     23  C   UNL     1       2.019  15.056  19.013  0.00  0.00    +0.000 C 
ATOM     24  C   UNL     1       2.540  13.817  18.276  0.00  0.00    +0.000 C 
ATOM     25  C   UNL     1       2.341  12.522  19.053  0.00  0.00    +0.000 C 
BRANCH  23  26
ATOM     26  N   UNL     1       2.938  15.563  20.033  0.00  0.00    +0.000 N 
ATOM     27  C   UNL     1       2.745  15.458  21.389  0.00  0.00    +0.000 A 
ATOM     28  C   UNL     1       3.824  16.061  21.984  0.00  0.00    +0.000 A 
ATOM     29  N   UNL     1       4.680  16.514  21.040  0.00  0.00    +0.000 NA
ATOM     30  C   UNL     1       4.156  16.212  19.855  0.00  0.00    +0.000 A 
BRANCH  30  31
ATOM     31  C   UNL     1       4.828  16.537  18.549  0.00  0.00    +0.000 C 
ATOM     32  F   UNL     1       5.416  15.481  17.932  0.00  0.00    +0.000 F 
ATOM     33  F   UNL     1       3.948  17.050  17.649  0.00  0.00    +0.000 F 
ATOM     34  F   UNL     1       5.811  17.464  18.712  0.00  0.00    +0.000 F 
ENDBRANCH  30  31
ENDBRANCH  23  26
ENDBRANCH   3  18
TORSDOF 3
ENDMDL
MODEL 3
REMARK VINA RESULT:      -7.4      7.909     10.909
REMARK  Name = 
REMARK  4 active torsions:
REMARK  status: ('A' for Active; 'I' for Inactive)
REMARK    1  A    between atoms: C_1  and  C_2
REMARK    2  A    between atoms: C_3  and  C_4
REMARK    3  A    between atoms: C_9  and  N_10
REMARK    4  A    between atoms: C_14  and  C_15
REMARK                            x       y       z     vdW  Elec       q    Type
REMARK                         _______ _______ _______ _____ _____    ______ ____
ROOT
ATOM      1  C   UNL     1       1.286   8.780  21.262  0.00  0.00    +0.000 C 
ATOM      2  C   UNL     1       1.629   8.962  19.825  0.00  0.00    +0.000 A 
ATOM      3  C   UNL     1       1.624  10.104  19.038  0.00  0.00    +0.000 A 
ATOM      4  C   UNL     1       2.021   9.651  17.766  0.00  0.00    +0.000 A 
ATOM      5  N   UNL     1       2.207   8.337  17.716  0.00  0.00    +0.000 NA
ATOM      6  N   UNL     1       1.981   7.909  18.994  0.00  0.00    +0.000 N 
ATOM      7  C   UNL     1       2.091   6.536  19.293  0.00  0.00    +0.000 A 
ATOM      8  N   UNL     1       2.144   6.062  20.505  0.00  0.00    +0.000 NA
ATOM      9  N   UNL     1       2.122   4.710  20.531  0.00  0.00    +0.000 N 
ATOM     10  C   UNL     1       2.378   3.906  21.607  0.00  0.00    +0.000 A 
ATOM     11  C   UNL     1       2.113   2.601  21.238  0.00  0.00    +0.000 A 
ATOM     12  C   UNL     1       1.670   2.616  19.896  0.00  0.00    +0.000 A 
ATOM     13  C   UNL     1       1.765   3.928  19.468  0.00  0.00    +0.000 A 
ATOM     14  C   UNL     1       1.546   4.553  18.210  0.00  0.00    +0.000 A 
ATOM     15  O   UNL     1       0.869   4.089  17.300  0.00  0.00    +0.000 OA
ATOM     16  N   UNL     1       2.133   5.788  18.139  0.00  0.00    +0.000 N 
ATOM     17  H   UNL     1       3.117   5.637  17.936  0.00  0.00    +0.000 HD
ENDROOT
BRANCH   3  18
ATOM     18  C   UNL     1       1.343  11.456  19.488  0.00  0.00    +0.000 C 
ATOM     19  O   UNL     1       2.164  12.348  19.303  0.00  0.00    +0.000 OA
ATOM     20  N   UNL     1       0.121  11.703  20.124  0.00  0.00    +0.000 N 
ATOM     21  C   UNL     1      -0.288  13.099  20.262  0.00  0.00    +0.000 C 
ATOM     22  C   UNL     1      -0.789  13.410  21.662  0.00  0.00    +0.000 C 
ATOM     23  C   UNL     1      -1.827  12.405  22.176  0.00  0.00    +0.000 C 
ATOM     24  C   UNL     1      -1.323  10.967  22.002  0.00  0.00    +0.000 C 
ATOM     25  C   UNL     1      -0.807  10.672  20.600  0.00  0.00    +0.000 C 
BRANCH  23  26
ATOM     26  N   UNL     1      -3.182  12.617  21.666  0.00  0.00    +0.000 N 
ATOM     27  C   UNL     1      -3.535  12.606  20.338  0.00  0.00    +0.000 A 
ATOM     28  C   UNL     1      -4.883  12.851  20.291  0.00  0.00    +0.000 A 
ATOM     29  N   UNL     1      -5.373  12.992  21.544  0.00  0.00    +0.000 NA
ATOM     30  C   UNL     1      -4.352  12.846  22.384  0.00  0.00    +0.000 A 
BRANCH  30  31
ATOM     31  C   UNL     1      -4.498  12.916  23.880  0.00  0.00    +0.000 C 
ATOM     32  F   UNL     1      -3.889  13.979  24.463  0.00  0.00    +0.000 F 
ATOM     33  F   UNL     1      -5.803  12.985  24.252  0.00  0.00    +0.000 F 
ATOM     34  F   UNL     1      -3.974  11.815  24.483  0.00  0.00    +0.000 F 
ENDBRANCH  30  31
ENDBRANCH  23  26
ENDBRANCH   3  18
TORSDOF 3
ENDMDL
MODEL 4
REMARK VINA RESULT:      -7.4      5.350      8.054
REMARK  Name = 
REMARK  4 active torsions:
REMARK  status: ('A' for Active; 'I' for Inactive)
REMARK    1  A    between atoms: C_1  and  C_2
REMARK    2  A    between atoms: C_3  and  C_4
REMARK    3  A    between atoms: C_9  and  N_10
REMARK    4  A    between atoms: C_14  and  C_15
REMARK                            x       y       z     vdW  Elec       q    Type
REMARK                         _______ _______ _______ _____ _____    ______ ____
ROOT
ATOM      1  C   UNL     1       2.155   8.866  17.334  0.00  0.00    +0.000 C 
ATOM      2  C   UNL     1       1.965   8.319  18.705  0.00  0.00    +0.000 A 
ATOM      3  C   UNL     1       1.187   8.781  19.756  0.00  0.00    +0.000 A 
ATOM      4  C   UNL     1       1.430   7.865  20.797  0.00  0.00    +0.000 A 
ATOM      5  N   UNL     1       2.322   6.936  20.474  0.00  0.00    +0.000 NA
ATOM      6  N   UNL     1       2.644   7.205  19.175  0.00  0.00    +0.000 N 
ATOM      7  C   UNL     1       3.590   6.394  18.514  0.00  0.00    +0.000 A 
ATOM      8  N   UNL     1       3.778   6.406  17.225  0.00  0.00    +0.000 NA
ATOM      9  N   UNL     1       4.823   5.634  16.850  0.00  0.00    +0.000 N 
ATOM     10  C   UNL     1       5.150   5.259  15.577  0.00  0.00    +0.000 A 
ATOM     11  C   UNL     1       6.359   4.592  15.624  0.00  0.00    +0.000 A 
ATOM     12  C   UNL     1       6.784   4.571  16.973  0.00  0.00    +0.000 A 
ATOM     13  C   UNL     1       5.771   5.154  17.710  0.00  0.00    +0.000 A 
ATOM     14  C   UNL     1       5.578   5.345  19.106  0.00  0.00    +0.000 A 
ATOM     15  O   UNL     1       6.468   5.339  19.949  0.00  0.00    +0.000 OA
ATOM     16  N   UNL     1       4.270   5.607  19.415  0.00  0.00    +0.000 N 
ATOM     17  H   UNL     1       3.785   4.714  19.431  0.00  0.00    +0.000 HD
ENDROOT
BRANCH   3  18
ATOM     18  C   UNL     1       0.279   9.914  19.719  0.00  0.00    +0.000 C 
ATOM     19  O   UNL     1      -0.932   9.733  19.797  0.00  0.00    +0.000 OA
ATOM     20  N   UNL     1       0.823  11.197  19.600  0.00  0.00    +0.000 N 
ATOM     21  C   UNL     1      -0.056  12.325  19.902  0.00  0.00    +0.000 C 
ATOM     22  C   UNL     1       0.038  13.418  18.851  0.00  0.00    +0.000 C 
ATOM     23  C   UNL     1       1.480  13.824  18.520  0.00  0.00    +0.000 C 
ATOM     24  C   UNL     1       2.335  12.590  18.211  0.00  0.00    +0.000 C 
ATOM     25  C   UNL     1       2.219  11.494  19.262  0.00  0.00    +0.000 C 
BRANCH  23  26
ATOM     26  N   UNL     1       2.091  14.734  19.491  0.00  0.00    +0.000 N 
ATOM     27  C   UNL     1       1.701  14.865  20.802  0.00  0.00    +0.000 A 
ATOM     28  C   UNL     1       2.517  15.816  21.358  0.00  0.00    +0.000 A 
ATOM     29  N   UNL     1       3.407  16.259  20.440  0.00  0.00    +0.000 NA
ATOM     30  C   UNL     1       3.161  15.605  19.307  0.00  0.00    +0.000 A 
BRANCH  30  31
ATOM     31  C   UNL     1       3.959  15.807  18.048  0.00  0.00    +0.000 C 
ATOM     32  F   UNL     1       3.218  15.969  16.923  0.00  0.00    +0.000 F 
ATOM     33  F   UNL     1       4.755  16.905  18.132  0.00  0.00    +0.000 F 
ATOM     34  F   UNL     1       4.776  14.747  17.802  0.00  0.00    +0.000 F 
ENDBRANCH  30  31
ENDBRANCH  23  26
ENDBRANCH   3  18
TORSDOF 3
ENDMDL
MODEL 5
REMARK VINA RESULT:      -7.3      7.276      8.734
REMARK  Name = 
REMARK  4 active torsions:
REMARK  status: ('A' for Active; 'I' for Inactive)
REMARK    1  A    between atoms: C_1  and  C_2
REMARK    2  A    between atoms: C_3  and  C_4
REMARK    3  A    between atoms: C_9  and  N_10
REMARK    4  A    between atoms: C_14  and  C_15
REMARK                            x       y       z     vdW  Elec       q    Type
REMARK                         _______ _______ _______ _____ _____    ______ ____
ROOT
ATOM      1  C   UNL     1       0.909  12.280  19.714  0.00  0.00    +0.000 C 
ATOM      2  C   UNL     1       0.548  10.978  20.339  0.00  0.00    +0.000 A 
ATOM      3  C   UNL     1       0.751   9.681  19.892  0.00  0.00    +0.000 A 
ATOM      4  C   UNL     1       0.180   8.875  20.895  0.00  0.00    +0.000 A 
ATOM      5  N   UNL     1      -0.391   9.579  21.866  0.00  0.00    +0.000 NA
ATOM      6  N   UNL     1      -0.151  10.882  21.533  0.00  0.00    +0.000 N 
ATOM      7  C   UNL     1      -0.636  11.910  22.367  0.00  0.00    +0.000 A 
ATOM      8  N   UNL     1      -0.254  13.152  22.279  0.00  0.00    +0.000 NA
ATOM      9  N   UNL     1      -0.955  13.965  23.103  0.00  0.00    +0.000 N 
ATOM     10  C   UNL     1      -0.666  15.266  23.411  0.00  0.00    +0.000 A 
ATOM     11  C   UNL     1      -1.705  15.765  24.173  0.00  0.00    +0.000 A 
ATOM     12  C   UNL     1      -2.661  14.735  24.322  0.00  0.00    +0.000 A 
ATOM     13  C   UNL     1      -2.126  13.614  23.714  0.00  0.00    +0.000 A 
ATOM     14  C   UNL     1      -2.569  12.267  23.607  0.00  0.00    +0.000 A 
ATOM     15  O   UNL     1      -3.728  11.893  23.742  0.00  0.00    +0.000 OA
ATOM     16  N   UNL     1      -1.552  11.416  23.266  0.00  0.00    +0.000 N 
ATOM     17  H   UNL     1      -1.033  11.218  24.117  0.00  0.00    +0.000 HD
ENDROOT
BRANCH   3  18
ATOM     18  C   UNL     1       1.468   9.287  18.692  0.00  0.00    +0.000 C 
ATOM     19  O   UNL     1       1.399   9.979  17.682  0.00  0.00    +0.000 OA
ATOM     20  N   UNL     1       2.231   8.115  18.730  0.00  0.00    +0.000 N 
ATOM     21  C   UNL     1       3.199   7.916  17.652  0.00  0.00    +0.000 C 
ATOM     22  C   UNL     1       3.136   6.509  17.083  0.00  0.00    +0.000 C 
ATOM     23  C   UNL     1       3.166   5.414  18.157  0.00  0.00    +0.000 C 
ATOM     24  C   UNL     1       2.123   5.691  19.245  0.00  0.00    +0.000 C 
ATOM     25  C   UNL     1       2.184   7.110  19.795  0.00  0.00    +0.000 C 
BRANCH  23  26
ATOM     26  N   UNL     1       4.499   5.119  18.684  0.00  0.00    +0.000 N 
ATOM     27  C   UNL     1       5.571   5.979  18.646  0.00  0.00    +0.000 A 
ATOM     28  C   UNL     1       6.621   5.321  19.232  0.00  0.00    +0.000 A 
ATOM     29  N   UNL     1       6.226   4.094  19.645  0.00  0.00    +0.000 NA
ATOM     30  C   UNL     1       4.942   3.965  19.324  0.00  0.00    +0.000 A 
BRANCH  30  31
ATOM     31  C   UNL     1       4.132   2.736  19.639  0.00  0.00    +0.000 C 
ATOM     32  F   UNL     1       3.431   2.232  18.593  0.00  0.00    +0.000 F 
ATOM     33  F   UNL     1       4.918   1.721  20.084  0.00  0.00    +0.000 F 
ATOM     34  F   UNL     1       3.215   2.982  20.614  0.00  0.00    +0.000 F 
ENDBRANCH  30  31
ENDBRANCH  23  26
ENDBRANCH   3  18
TORSDOF 3
ENDMDL
MODEL 6
REMARK VINA RESULT:      -7.1      5.801      8.480
REMARK  Name = 
REMARK  4 active torsions:
REMARK  status: ('A' for Active; 'I' for Inactive)
REMARK    1  A    between atoms: C_1  and  C_2
REMARK    2  A    between atoms: C_3  and  C_4
REMARK    3  A    between atoms: C_9  and  N_10
REMARK    4  A    between atoms: C_14  and  C_15
REMARK                            x       y       z     vdW  Elec       q    Type
REMARK                         _______ _______ _______ _____ _____    ______ ____
ROOT
ATOM      1  C   UNL     1       2.158   8.898  17.333  0.00  0.00    +0.000 C 
ATOM      2  C   UNL     1       1.960   8.342  18.699  0.00  0.00    +0.000 A 
ATOM      3  C   UNL     1       1.174   8.796  19.749  0.00  0.00    +0.000 A 
ATOM      4  C   UNL     1       1.412   7.873  20.785  0.00  0.00    +0.000 A 
ATOM      5  N   UNL     1       2.309   6.948  20.462  0.00  0.00    +0.000 NA
ATOM      6  N   UNL     1       2.638   7.225  19.166  0.00  0.00    +0.000 N 
ATOM      7  C   UNL     1       3.589   6.421  18.506  0.00  0.00    +0.000 A 
ATOM      8  N   UNL     1       3.785   6.441  17.218  0.00  0.00    +0.000 NA
ATOM      9  N   UNL     1       4.834   5.673  16.845  0.00  0.00    +0.000 N 
ATOM     10  C   UNL     1       5.169   5.307  15.571  0.00  0.00    +0.000 A 
ATOM     11  C   UNL     1       6.379   4.642  15.621  0.00  0.00    +0.000 A 
ATOM     12  C   UNL     1       6.796   4.612  16.972  0.00  0.00    +0.000 A 
ATOM     13  C   UNL     1       5.777   5.189  17.708  0.00  0.00    +0.000 A 
ATOM     14  C   UNL     1       5.575   5.371  19.103  0.00  0.00    +0.000 A 
ATOM     15  O   UNL     1       6.460   5.360  19.951  0.00  0.00    +0.000 OA
ATOM     16  N   UNL     1       4.264   5.629  19.405  0.00  0.00    +0.000 N 
ATOM     17  H   UNL     1       3.781   4.735  19.413  0.00  0.00    +0.000 HD
ENDROOT
BRANCH   3  18
ATOM     18  C   UNL     1       0.265   9.927  19.714  0.00  0.00    +0.000 C 
ATOM     19  O   UNL     1      -0.946   9.743  19.775  0.00  0.00    +0.000 OA
ATOM     20  N   UNL     1       0.809  11.213  19.615  0.00  0.00    +0.000 N 
ATOM     21  C   UNL     1      -0.076  12.336  19.919  0.00  0.00    +0.000 C 
ATOM     22  C   UNL     1       0.029  13.440  18.882  0.00  0.00    +0.000 C 
ATOM     23  C   UNL     1       1.473  13.853  18.573  0.00  0.00    +0.000 C 
ATOM     24  C   UNL     1       2.334  12.624  18.260  0.00  0.00    +0.000 C 
ATOM     25  C   UNL     1       2.207  11.516  19.297  0.00  0.00    +0.000 C 
BRANCH  23  26
ATOM     26  N   UNL     1       2.072  14.752  19.561  0.00  0.00    +0.000 N 
ATOM     27  C   UNL     1       2.761  14.349  20.679  0.00  0.00    +0.000 A 
ATOM     28  C   UNL     1       3.144  15.490  21.334  0.00  0.00    +0.000 A 
ATOM     29  N   UNL     1       2.731  16.580  20.647  0.00  0.00    +0.000 NA
ATOM     30  C   UNL     1       2.086  16.144  19.568  0.00  0.00    +0.000 A 
BRANCH  30  31
ATOM     31  C   UNL     1       1.490  17.062  18.536  0.00  0.00    +0.000 C 
ATOM     32  F   UNL     1       0.203  16.790  18.206  0.00  0.00    +0.000 F 
ATOM     33  F   UNL     1       1.502  18.356  18.952  0.00  0.00    +0.000 F 
ATOM     34  F   UNL     1       2.187  17.017  17.368  0.00  0.00    +0.000 F 
ENDBRANCH  30  31
ENDBRANCH  23  26
ENDBRANCH   3  18
TORSDOF 3
ENDMDL
MODEL 7
REMARK VINA RESULT:      -7.1      4.836      9.563
REMARK  Name = 
REMARK  4 active torsions:
REMARK  status: ('A' for Active; 'I' for Inactive)
REMARK    1  A    between atoms: C_1  and  C_2
REMARK    2  A    between atoms: C_3  and  C_4
REMARK    3  A    between atoms: C_9  and  N_10
REMARK    4  A    between atoms: C_14  and  C_15
REMARK                            x       y       z     vdW  Elec       q    Type
REMARK                         _______ _______ _______ _____ _____    ______ ____
ROOT
ATOM      1  C   UNL     1       5.447  14.422  17.743  0.00  0.00    +0.000 C 
ATOM      2  C   UNL     1       5.734  15.662  18.515  0.00  0.00    +0.000 A 
ATOM      3  C   UNL     1       4.878  16.655  18.970  0.00  0.00    +0.000 A 
ATOM      4  C   UNL     1       5.726  17.575  19.614  0.00  0.00    +0.000 A 
ATOM      5  N   UNL     1       7.010  17.245  19.534  0.00  0.00    +0.000 NA
ATOM      6  N   UNL     1       7.017  16.052  18.868  0.00  0.00    +0.000 N 
ATOM      7  C   UNL     1       8.246  15.415  18.604  0.00  0.00    +0.000 A 
ATOM      8  N   UNL     1       8.349  14.178  18.208  0.00  0.00    +0.000 NA
ATOM      9  N   UNL     1       9.622  13.839  17.903  0.00  0.00    +0.000 N 
ATOM     10  C   UNL     1      10.102  12.580  17.670  0.00  0.00    +0.000 A 
ATOM     11  C   UNL     1      11.417  12.692  17.260  0.00  0.00    +0.000 A 
ATOM     12  C   UNL     1      11.742  14.068  17.235  0.00  0.00    +0.000 A 
ATOM     13  C   UNL     1      10.633  14.740  17.715  0.00  0.00    +0.000 A 
ATOM     14  C   UNL     1      10.380  16.110  18.000  0.00  0.00    +0.000 A 
ATOM     15  O   UNL     1      11.006  17.054  17.532  0.00  0.00    +0.000 OA
ATOM     16  N   UNL     1       9.297  16.275  18.821  0.00  0.00    +0.000 N 
ATOM     17  H   UNL     1       9.616  16.097  19.770  0.00  0.00    +0.000 HD
ENDROOT
BRANCH   3  18
ATOM     18  C   UNL     1       3.431  16.661  18.854  0.00  0.00    +0.000 C 
ATOM     19  O   UNL     1       2.879  17.448  18.092  0.00  0.00    +0.000 OA
ATOM     20  N   UNL     1       2.700  15.750  19.624  0.00  0.00    +0.000 N 
ATOM     21  C   UNL     1       1.302  15.536  19.254  0.00  0.00    +0.000 C 
ATOM     22  C   UNL     1       0.382  15.561  20.462  0.00  0.00    +0.000 C 
ATOM     23  C   UNL     1       0.864  14.671  21.615  0.00  0.00    +0.000 C 
ATOM     24  C   UNL     1       2.333  14.959  21.946  0.00  0.00    +0.000 C 
ATOM     25  C   UNL     1       3.242  14.948  20.725  0.00  0.00    +0.000 C 
BRANCH  23  26
ATOM     26  N   UNL     1       0.568  13.248  21.446  0.00  0.00    +0.000 N 
ATOM     27  C   UNL     1       1.315  12.370  20.698  0.00  0.00    +0.000 A 
ATOM     28  C   UNL     1       0.698  11.150  20.796  0.00  0.00    +0.000 A 
ATOM     29  N   UNL     1      -0.391  11.244  21.594  0.00  0.00    +0.000 NA
ATOM     30  C   UNL     1      -0.475  12.509  21.998  0.00  0.00    +0.000 A 
BRANCH  30  31
ATOM     31  C   UNL     1      -1.551  13.009  22.923  0.00  0.00    +0.000 C 
ATOM     32  F   UNL     1      -1.103  13.731  23.980  0.00  0.00    +0.000 F 
ATOM     33  F   UNL     1      -2.435  13.811  22.273  0.00  0.00    +0.000 F 
ATOM     34  F   UNL     1      -2.267  11.982  23.455  0.00  0.00    +0.000 F 
ENDBRANCH  30  31
ENDBRANCH  23  26
ENDBRANCH   3  18
TORSDOF 3
ENDMDL
MODEL 8
REMARK VINA RESULT:      -7.0      5.429      7.899
REMARK  Name = 
REMARK  4 active torsions:
REMARK  status: ('A' for Active; 'I' for Inactive)
REMARK    1  A    between atoms: C_1  and  C_2
REMARK    2  A    between atoms: C_3  and  C_4
REMARK    3  A    between atoms: C_9  and  N_10
REMARK    4  A    between atoms: C_14  and  C_15
REMARK                            x       y       z     vdW  Elec       q    Type
REMARK                         _______ _______ _______ _____ _____    ______ ____
ROOT
ATOM      1  C   UNL     1       0.573   8.507  21.226  0.00  0.00    +0.000 C 
ATOM      2  C   UNL     1       1.109   8.802  19.869  0.00  0.00    +0.000 A 
ATOM      3  C   UNL     1       1.040   9.959  19.108  0.00  0.00    +0.000 A 
ATOM      4  C   UNL     1       1.707   9.630  17.914  0.00  0.00    +0.000 A 
ATOM      5  N   UNL     1       2.116   8.367  17.878  0.00  0.00    +0.000 NA
ATOM      6  N   UNL     1       1.761   7.855  19.093  0.00  0.00    +0.000 N 
ATOM      7  C   UNL     1       2.050   6.507  19.388  0.00  0.00    +0.000 A 
ATOM      8  N   UNL     1       1.985   5.999  20.586  0.00  0.00    +0.000 NA
ATOM      9  N   UNL     1       2.185   4.661  20.588  0.00  0.00    +0.000 N 
ATOM     10  C   UNL     1       2.395   3.866  21.681  0.00  0.00    +0.000 A 
ATOM     11  C   UNL     1       2.415   2.552  21.256  0.00  0.00    +0.000 A 
ATOM     12  C   UNL     1       2.199   2.550  19.859  0.00  0.00    +0.000 A 
ATOM     13  C   UNL     1       2.141   3.876  19.471  0.00  0.00    +0.000 A 
ATOM     14  C   UNL     1       2.027   4.509  18.203  0.00  0.00    +0.000 A 
ATOM     15  O   UNL     1       1.592   3.978  17.186  0.00  0.00    +0.000 OA
ATOM     16  N   UNL     1       2.402   5.825  18.247  0.00  0.00    +0.000 N 
ATOM     17  H   UNL     1       3.417   5.844  18.208  0.00  0.00    +0.000 HD
ENDROOT
BRANCH   3  18
ATOM     18  C   UNL     1       0.467  11.228  19.524  0.00  0.00    +0.000 C 
ATOM     19  O   UNL     1      -0.687  11.274  19.938  0.00  0.00    +0.000 OA
ATOM     20  N   UNL     1       1.265  12.374  19.442  0.00  0.00    +0.000 N 
ATOM     21  C   UNL     1       0.806  13.558  20.166  0.00  0.00    +0.000 C 
ATOM     22  C   UNL     1       0.893  14.814  19.317  0.00  0.00    +0.000 C 
ATOM     23  C   UNL     1       2.253  14.994  18.630  0.00  0.00    +0.000 C 
ATOM     24  C   UNL     1       2.660  13.715  17.890  0.00  0.00    +0.000 C 
ATOM     25  C   UNL     1       2.552  12.460  18.745  0.00  0.00    +0.000 C 
BRANCH  23  26
ATOM     26  N   UNL     1       3.304  15.531  19.495  0.00  0.00    +0.000 N 
ATOM     27  C   UNL     1       4.569  15.008  19.618  0.00  0.00    +0.000 A 
ATOM     28  C   UNL     1       5.230  15.794  20.525  0.00  0.00    +0.000 A 
ATOM     29  N   UNL     1       4.422  16.794  20.948  0.00  0.00    +0.000 NA
ATOM     30  C   UNL     1       3.256  16.647  20.326  0.00  0.00    +0.000 A 
BRANCH  30  31
ATOM     31  C   UNL     1       2.094  17.583  20.520  0.00  0.00    +0.000 C 
ATOM     32  F   UNL     1       0.994  17.019  21.079  0.00  0.00    +0.000 F 
ATOM     33  F   UNL     1       2.424  18.630  21.321  0.00  0.00    +0.000 F 
ATOM     34  F   UNL     1       1.677  18.109  19.336  0.00  0.00    +0.000 F 
ENDBRANCH  30  31
ENDBRANCH  23  26
ENDBRANCH   3  18
TORSDOF 3
ENDMDL
MODEL 9
REMARK VINA RESULT:      -7.0      5.967      8.382
REMARK  Name = 
REMARK  4 active torsions:
REMARK  status: ('A' for Active; 'I' for Inactive)
REMARK    1  A    between atoms: C_1  and  C_2
REMARK    2  A    between atoms: C_3  and  C_4
REMARK    3  A    between atoms: C_9  and  N_10
REMARK    4  A    between atoms: C_14  and  C_15
REMARK                            x       y       z     vdW  Elec       q    Type
REMARK                         _______ _______ _______ _____ _____    ______ ____
ROOT
ATOM      1  C   UNL     1       1.806   8.260  17.922  0.00  0.00    +0.000 C 
ATOM      2  C   UNL     1       1.618   7.940  19.364  0.00  0.00    +0.000 A 
ATOM      3  C   UNL     1       1.628   6.719  20.021  0.00  0.00    +0.000 A 
ATOM      4  C   UNL     1       1.375   7.047  21.366  0.00  0.00    +0.000 A 
ATOM      5  N   UNL     1       1.163   8.345  21.554  0.00  0.00    +0.000 NA
ATOM      6  N   UNL     1       1.328   8.903  20.319  0.00  0.00    +0.000 N 
ATOM      7  C   UNL     1       1.164  10.294  20.161  0.00  0.00    +0.000 A 
ATOM      8  N   UNL     1       1.539  10.950  19.099  0.00  0.00    +0.000 NA
ATOM      9  N   UNL     1       1.160  12.248  19.136  0.00  0.00    +0.000 N 
ATOM     10  C   UNL     1       1.574  13.247  18.299  0.00  0.00    +0.000 A 
ATOM     11  C   UNL     1       0.844  14.382  18.594  0.00  0.00    +0.000 A 
ATOM     12  C   UNL     1      -0.050  14.057  19.640  0.00  0.00    +0.000 A 
ATOM     13  C   UNL     1       0.230  12.752  20.002  0.00  0.00    +0.000 A 
ATOM     14  C   UNL     1      -0.268  11.905  21.030  0.00  0.00    +0.000 A 
ATOM     15  O   UNL     1      -1.337  12.054  21.610  0.00  0.00    +0.000 OA
ATOM     16  N   UNL     1       0.562  10.842  21.269  0.00  0.00    +0.000 N 
ATOM     17  H   UNL     1       1.315  11.182  21.861  0.00  0.00    +0.000 HD
ENDROOT
BRANCH   3  18
ATOM     18  C   UNL     1       1.917   5.426  19.428  0.00  0.00    +0.000 C 
ATOM     19  O   UNL     1       1.083   4.527  19.476  0.00  0.00    +0.000 OA
ATOM     20  N   UNL     1       3.157   5.244  18.804  0.00  0.00    +0.000 N 
ATOM     21  C   UNL     1       3.300   4.080  17.932  0.00  0.00    +0.000 C 
ATOM     22  C   UNL     1       4.595   3.330  18.192  0.00  0.00    +0.000 C 
ATOM     23  C   UNL     1       5.831   4.238  18.225  0.00  0.00    +0.000 C 
ATOM     24  C   UNL     1       5.605   5.429  19.163  0.00  0.00    +0.000 C 
ATOM     25  C   UNL     1       4.295   6.163  18.905  0.00  0.00    +0.000 C 
BRANCH  23  26
ATOM     26  N   UNL     1       6.340   4.617  16.906  0.00  0.00    +0.000 N 
ATOM     27  C   UNL     1       6.162   3.890  15.753  0.00  0.00    +0.000 A 
ATOM     28  C   UNL     1       6.794   4.583  14.753  0.00  0.00    +0.000 A 
ATOM     29  N   UNL     1       7.337   5.720  15.248  0.00  0.00    +0.000 NA
ATOM     30  C   UNL     1       7.062   5.753  16.550  0.00  0.00    +0.000 A 
BRANCH  30  31
ATOM     31  C   UNL     1       7.483   6.880  17.453  0.00  0.00    +0.000 C 
ATOM     32  F   UNL     1       8.054   6.491  18.621  0.00  0.00    +0.000 F 
ATOM     33  F   UNL     1       8.388   7.693  16.849  0.00  0.00    +0.000 F 
ATOM     34  F   UNL     1       6.423   7.659  17.803  0.00  0.00    +0.000 F 
ENDBRANCH  30  31
ENDBRANCH  23  26
ENDBRANCH   3  18
TORSDOF 3
ENDMDL
