MODEL 1
REMARK VINA RESULT:      -7.1      0.000      0.000
REMARK  Name = 
REMARK  3 active torsions:
REMARK  status: ('A' for Active; 'I' for Inactive)
REMARK    1  A    between atoms: C_2  and  O_3
REMARK    2  A    between atoms: C_2  and  C_16
REMARK    3  A    between atoms: O_3  and  N_4
REMARK                            x       y       z     vdW  Elec       q    Type
REMARK                         _______ _______ _______ _____ _____    ______ ____
ROOT
ATOM      1  N   UNL     1       3.313   3.194  17.353  0.00  0.00    +0.000 NA
ATOM      2  C   UNL     1       4.504   3.638  17.612  0.00  0.00    +0.000 C 
ATOM      3  C   UNL     1       5.104   3.810  19.010  0.00  0.00    +0.000 C 
ATOM      4  C   UNL     1       5.634   5.228  19.191  0.00  0.00    +0.000 C 
ATOM      5  S   UNL     1       7.051   5.519  18.137  0.00  0.00    +0.000 S 
ATOM      6  O   UNL     1       7.175   6.940  17.890  0.00  0.00    +0.000 OA
ATOM      7  O   UNL     1       8.145   4.680  18.567  0.00  0.00    +0.000 OA
ATOM      8  C   UNL     1       6.455   4.793  16.639  0.00  0.00    +0.000 A 
ATOM      9  S   UNL     1       7.321   5.073  15.208  0.00  0.00    +0.000 S 
ATOM     10  C   UNL     1       6.202   4.147  14.299  0.00  0.00    +0.000 A 
ATOM     11  C   UNL     1       5.193   3.632  15.088  0.00  0.00    +0.000 A 
ATOM     12  C   UNL     1       5.341   3.994  16.464  0.00  0.00    +0.000 A 
ENDROOT
BRANCH   1  13
ATOM     13  O   UNL     1       2.626   2.838  18.528  0.00  0.00    +0.000 OA
BRANCH  13  15
ATOM     14  O   UNL     1       0.694   3.755  17.765  0.00  0.00    +0.000 OA
ATOM     15  C   UNL     1       1.416   3.483  18.709  0.00  0.00    +0.000 C 
BRANCH  15  16
ATOM     16  C   UNL     1       0.984   3.773  20.111  0.00  0.00    +0.000 C 
ATOM     17  C   UNL     1       1.278   2.846  21.275  0.00  0.00    +0.000 C 
ATOM     18  C   UNL     1       2.035   4.132  21.135  0.00  0.00    +0.000 C 
ENDBRANCH  15  16
ENDBRANCH  13  15
ENDBRANCH   1  13
TORSDOF 3
ENDMDL
MODEL 2
REMARK VINA RESULT:      -7.1      1.973      3.236
REMARK  Name = 
REMARK  3 active torsions:
REMARK  status: ('A' for Active; 'I' for Inactive)
REMARK    1  A    between atoms: C_2  and  O_3
REMARK    2  A    between atoms: C_2  and  C_16
REMARK    3  A    between atoms: O_3  and  N_4
REMARK                            x       y       z     vdW  Elec       q    Type
REMARK                         _______ _______ _______ _____ _____    ______ ____
ROOT
ATOM      1  N   UNL     1       4.911   3.383  19.421  0.00  0.00    +0.000 NA
ATOM      2  C   UNL     1       4.978   4.218  18.431  0.00  0.00    +0.000 C 
ATOM      3  C   UNL     1       3.978   4.310  17.276  0.00  0.00    +0.000 C 
ATOM      4  C   UNL     1       4.701   4.229  15.937  0.00  0.00    +0.000 C 
ATOM      5  S   UNL     1       5.715   5.679  15.670  0.00  0.00    +0.000 S 
ATOM      6  O   UNL     1       6.779   5.352  14.746  0.00  0.00    +0.000 OA
ATOM      7  O   UNL     1       4.863   6.839  15.537  0.00  0.00    +0.000 OA
ATOM      8  C   UNL     1       6.456   5.816  17.270  0.00  0.00    +0.000 A 
ATOM      9  S   UNL     1       7.761   6.882  17.466  0.00  0.00    +0.000 S 
ATOM     10  C   UNL     1       7.914   6.461  19.119  0.00  0.00    +0.000 A 
ATOM     11  C   UNL     1       6.973   5.526  19.505  0.00  0.00    +0.000 A 
ATOM     12  C   UNL     1       6.105   5.153  18.430  0.00  0.00    +0.000 A 
ENDROOT
BRANCH   1  13
ATOM     13  O   UNL     1       3.762   2.574  19.339  0.00  0.00    +0.000 OA
BRANCH  13  15
ATOM     14  O   UNL     1       3.577   2.289  21.584  0.00  0.00    +0.000 OA
ATOM     15  C   UNL     1       3.033   2.485  20.511  0.00  0.00    +0.000 C 
BRANCH  15  16
ATOM     16  C   UNL     1       1.556   2.713  20.431  0.00  0.00    +0.000 C 
ATOM     17  C   UNL     1       0.942   4.079  20.195  0.00  0.00    +0.000 C 
ATOM     18  C   UNL     1       0.948   3.063  19.094  0.00  0.00    +0.000 C 
ENDBRANCH  15  16
ENDBRANCH  13  15
ENDBRANCH   1  13
TORSDOF 3
ENDMDL
MODEL 3
REMARK VINA RESULT:      -6.9      1.694      2.951
REMARK  Name = 
REMARK  3 active torsions:
REMARK  status: ('A' for Active; 'I' for Inactive)
REMARK    1  A    between atoms: C_2  and  O_3
REMARK    2  A    between atoms: C_2  and  C_16
REMARK    3  A    between atoms: O_3  and  N_4
REMARK                            x       y       z     vdW  Elec       q    Type
REMARK                         _______ _______ _______ _____ _____    ______ ____
ROOT
ATOM      1  N   UNL     1       4.570   3.033  18.833  0.00  0.00    +0.000 NA
ATOM      2  C   UNL     1       4.832   3.932  17.935  0.00  0.00    +0.000 C 
ATOM      3  C   UNL     1       4.108   4.090  16.596  0.00  0.00    +0.000 C 
ATOM      4  C   UNL     1       5.110   4.105  15.447  0.00  0.00    +0.000 C 
ATOM      5  S   UNL     1       6.121   5.581  15.502  0.00  0.00    +0.000 S 
ATOM      6  O   UNL     1       7.370   5.327  14.817  0.00  0.00    +0.000 OA
ATOM      7  O   UNL     1       5.290   6.737  15.256  0.00  0.00    +0.000 OA
ATOM      8  C   UNL     1       6.488   5.620  17.231  0.00  0.00    +0.000 A 
ATOM      9  S   UNL     1       7.691   6.684  17.776  0.00  0.00    +0.000 S 
ATOM     10  C   UNL     1       7.487   6.156  19.392  0.00  0.00    +0.000 A 
ATOM     11  C   UNL     1       6.509   5.188  19.502  0.00  0.00    +0.000 A 
ATOM     12  C   UNL     1       5.908   4.878  18.242  0.00  0.00    +0.000 A 
ENDROOT
BRANCH   1  13
ATOM     13  O   UNL     1       3.488   2.219  18.449  0.00  0.00    +0.000 OA
BRANCH  13  15
ATOM     14  O   UNL     1       1.269   1.991  18.875  0.00  0.00    +0.000 OA
ATOM     15  C   UNL     1       2.379   2.306  19.271  0.00  0.00    +0.000 C 
BRANCH  15  16
ATOM     16  C   UNL     1       2.594   2.728  20.689  0.00  0.00    +0.000 C 
ATOM     17  C   UNL     1       2.087   4.045  21.245  0.00  0.00    +0.000 C 
ATOM     18  C   UNL     1       1.406   2.764  21.623  0.00  0.00    +0.000 C 
ENDBRANCH  15  16
ENDBRANCH  13  15
ENDBRANCH   1  13
TORSDOF 3
ENDMDL
MODEL 4
REMARK VINA RESULT:      -6.8      4.006      5.001
REMARK  Name = 
REMARK  3 active torsions:
REMARK  status: ('A' for Active; 'I' for Inactive)
REMARK    1  A    between atoms: C_2  and  O_3
REMARK    2  A    between atoms: C_2  and  C_16
REMARK    3  A    between atoms: O_3  and  N_4
REMARK                            x       y       z     vdW  Elec       q    Type
REMARK                         _______ _______ _______ _____ _____    ______ ____
ROOT
ATOM      1  N   UNL     1       2.206   7.208  19.958  0.00  0.00    +0.000 NA
ATOM      2  C   UNL     1       2.373   5.947  19.704  0.00  0.00    +0.000 C 
ATOM      3  C   UNL     1       1.661   4.794  20.414  0.00  0.00    +0.000 C 
ATOM      4  C   UNL     1       2.675   3.785  20.941  0.00  0.00    +0.000 C 
ATOM      5  S   UNL     1       3.497   2.943  19.593  0.00  0.00    +0.000 S 
ATOM      6  O   UNL     1       4.781   2.455  20.050  0.00  0.00    +0.000 OA
ATOM      7  O   UNL     1       2.537   2.133  18.880  0.00  0.00    +0.000 OA
ATOM      8  C   UNL     1       3.825   4.326  18.541  0.00  0.00    +0.000 A 
ATOM      9  S   UNL     1       4.879   4.110  17.230  0.00  0.00    +0.000 S 
ATOM     10  C   UNL     1       4.710   5.750  16.768  0.00  0.00    +0.000 A 
ATOM     11  C   UNL     1       3.855   6.440  17.604  0.00  0.00    +0.000 A 
ATOM     12  C   UNL     1       3.320   5.609  18.638  0.00  0.00    +0.000 A 
ENDROOT
BRANCH   1  13
ATOM     13  O   UNL     1       1.239   7.409  20.960  0.00  0.00    +0.000 OA
BRANCH  13  15
ATOM     14  O   UNL     1       1.087   9.558  20.240  0.00  0.00    +0.000 OA
ATOM     15  C   UNL     1       0.735   8.695  21.028  0.00  0.00    +0.000 C 
BRANCH  15  16
ATOM     16  C   UNL     1      -0.316   8.980  22.055  0.00  0.00    +0.000 C 
ATOM     17  C   UNL     1       0.004   9.506  23.440  0.00  0.00    +0.000 C 
ATOM     18  C   UNL     1      -0.604  10.418  22.418  0.00  0.00    +0.000 C 
ENDBRANCH  15  16
ENDBRANCH  13  15
ENDBRANCH   1  13
TORSDOF 3
ENDMDL
MODEL 5
REMARK VINA RESULT:      -6.7      3.015      6.096
REMARK  Name = 
REMARK  3 active torsions:
REMARK  status: ('A' for Active; 'I' for Inactive)
REMARK    1  A    between atoms: C_2  and  O_3
REMARK    2  A    between atoms: C_2  and  C_16
REMARK    3  A    between atoms: O_3  and  N_4
REMARK                            x       y       z     vdW  Elec       q    Type
REMARK                         _______ _______ _______ _____ _____    ______ ____
ROOT
ATOM      1  N   UNL     1       6.155   6.168  15.858  0.00  0.00    +0.000 NA
ATOM      2  C   UNL     1       5.406   5.556  16.722  0.00  0.00    +0.000 C 
ATOM      3  C   UNL     1       5.611   4.123  17.220  0.00  0.00    +0.000 C 
ATOM      4  C   UNL     1       4.333   3.311  17.050  0.00  0.00    +0.000 C 
ATOM      5  S   UNL     1       3.048   3.907  18.144  0.00  0.00    +0.000 S 
ATOM      6  O   UNL     1       1.756   3.551  17.598  0.00  0.00    +0.000 OA
ATOM      7  O   UNL     1       3.437   3.663  19.514  0.00  0.00    +0.000 OA
ATOM      8  C   UNL     1       3.240   5.648  17.900  0.00  0.00    +0.000 A 
ATOM      9  S   UNL     1       2.037   6.684  18.498  0.00  0.00    +0.000 S 
ATOM     10  C   UNL     1       2.862   8.059  17.898  0.00  0.00    +0.000 A 
ATOM     11  C   UNL     1       4.039   7.721  17.260  0.00  0.00    +0.000 A 
ATOM     12  C   UNL     1       4.276   6.310  17.269  0.00  0.00    +0.000 A 
ENDROOT
BRANCH   1  13
ATOM     13  O   UNL     1       7.233   5.364  15.446  0.00  0.00    +0.000 OA
BRANCH  13  15
ATOM     14  O   UNL     1       7.872   5.640  13.284  0.00  0.00    +0.000 OA
ATOM     15  C   UNL     1       7.219   5.019  14.107  0.00  0.00    +0.000 C 
BRANCH  15  16
ATOM     16  C   UNL     1       6.435   3.810  13.706  0.00  0.00    +0.000 C 
ATOM     17  C   UNL     1       5.130   3.889  12.938  0.00  0.00    +0.000 C 
ATOM     18  C   UNL     1       6.378   3.435  12.244  0.00  0.00    +0.000 C 
ENDBRANCH  15  16
ENDBRANCH  13  15
ENDBRANCH   1  13
TORSDOF 3
ENDMDL
MODEL 6
REMARK VINA RESULT:      -6.7      3.064      6.271
REMARK  Name = 
REMARK  3 active torsions:
REMARK  status: ('A' for Active; 'I' for Inactive)
REMARK    1  A    between atoms: C_2  and  O_3
REMARK    2  A    between atoms: C_2  and  C_16
REMARK    3  A    between atoms: O_3  and  N_4
REMARK                            x       y       z     vdW  Elec       q    Type
REMARK                         _______ _______ _______ _____ _____    ______ ____
ROOT
ATOM      1  N   UNL     1       4.438   4.859  16.389  0.00  0.00    +0.000 NA
ATOM      2  C   UNL     1       3.941   4.289  17.442  0.00  0.00    +0.000 C 
ATOM      3  C   UNL     1       4.041   2.799  17.778  0.00  0.00    +0.000 C 
ATOM      4  C   UNL     1       2.659   2.221  18.054  0.00  0.00    +0.000 C 
ATOM      5  S   UNL     1       1.972   2.898  19.561  0.00  0.00    +0.000 S 
ATOM      6  O   UNL     1       0.529   2.808  19.509  0.00  0.00    +0.000 OA
ATOM      7  O   UNL     1       2.766   2.458  20.686  0.00  0.00    +0.000 OA
ATOM      8  C   UNL     1       2.383   4.603  19.329  0.00  0.00    +0.000 A 
ATOM      9  S   UNL     1       1.679   5.749  20.361  0.00  0.00    +0.000 S 
ATOM     10  C   UNL     1       2.479   7.031  19.554  0.00  0.00    +0.000 A 
ATOM     11  C   UNL     1       3.273   6.577  18.520  0.00  0.00    +0.000 A 
ATOM     12  C   UNL     1       3.234   5.153  18.390  0.00  0.00    +0.000 A 
ENDROOT
BRANCH   1  13
ATOM     13  O   UNL     1       5.136   3.940  15.583  0.00  0.00    +0.000 OA
BRANCH  13  15
ATOM     14  O   UNL     1       6.257   5.686  14.660  0.00  0.00    +0.000 OA
ATOM     15  C   UNL     1       5.927   4.513  14.604  0.00  0.00    +0.000 C 
BRANCH  15  16
ATOM     16  C   UNL     1       6.432   3.628  13.509  0.00  0.00    +0.000 C 
ATOM     17  C   UNL     1       5.652   3.362  12.237  0.00  0.00    +0.000 C 
ATOM     18  C   UNL     1       6.852   4.259  12.202  0.00  0.00    +0.000 C 
ENDBRANCH  15  16
ENDBRANCH  13  15
ENDBRANCH   1  13
TORSDOF 3
ENDMDL
MODEL 7
REMARK VINA RESULT:      -6.6      3.016      5.937
REMARK  Name = 
REMARK  3 active torsions:
REMARK  status: ('A' for Active; 'I' for Inactive)
REMARK    1  A    between atoms: C_2  and  O_3
REMARK    2  A    between atoms: C_2  and  C_16
REMARK    3  A    between atoms: O_3  and  N_4
REMARK                            x       y       z     vdW  Elec       q    Type
REMARK                         _______ _______ _______ _____ _____    ______ ____
ROOT
ATOM      1  N   UNL     1       5.858   4.129  16.226  0.00  0.00    +0.000 NA
ATOM      2  C   UNL     1       4.875   4.870  16.636  0.00  0.00    +0.000 C 
ATOM      3  C   UNL     1       4.806   6.395  16.528  0.00  0.00    +0.000 C 
ATOM      4  C   UNL     1       4.510   7.013  17.889  0.00  0.00    +0.000 C 
ATOM      5  S   UNL     1       2.855   6.601  18.431  0.00  0.00    +0.000 S 
ATOM      6  O   UNL     1       2.793   6.683  19.875  0.00  0.00    +0.000 OA
ATOM      7  O   UNL     1       1.895   7.224  17.548  0.00  0.00    +0.000 OA
ATOM      8  C   UNL     1       2.832   4.881  18.018  0.00  0.00    +0.000 A 
ATOM      9  S   UNL     1       1.563   3.926  18.613  0.00  0.00    +0.000 S 
ATOM     10  C   UNL     1       2.210   2.526  17.870  0.00  0.00    +0.000 A 
ATOM     11  C   UNL     1       3.372   2.797  17.175  0.00  0.00    +0.000 A 
ATOM     12  C   UNL     1       3.737   4.179  17.245  0.00  0.00    +0.000 A 
ENDROOT
BRANCH   1  13
ATOM     13  O   UNL     1       6.865   4.898  15.614  0.00  0.00    +0.000 OA
BRANCH  13  15
ATOM     14  O   UNL     1       7.641   5.498  13.566  0.00  0.00    +0.000 OA
ATOM     15  C   UNL     1       6.950   4.754  14.242  0.00  0.00    +0.000 C 
BRANCH  15  16
ATOM     16  C   UNL     1       6.225   3.606  13.615  0.00  0.00    +0.000 C 
ATOM     17  C   UNL     1       5.060   3.786  12.661  0.00  0.00    +0.000 C 
ATOM     18  C   UNL     1       6.397   3.361  12.134  0.00  0.00    +0.000 C 
ENDBRANCH  15  16
ENDBRANCH  13  15
ENDBRANCH   1  13
TORSDOF 3
ENDMDL
MODEL 8
REMARK VINA RESULT:      -6.6      2.940      5.949
REMARK  Name = 
REMARK  3 active torsions:
REMARK  status: ('A' for Active; 'I' for Inactive)
REMARK    1  A    between atoms: C_2  and  O_3
REMARK    2  A    between atoms: C_2  and  C_16
REMARK    3  A    between atoms: O_3  and  N_4
REMARK                            x       y       z     vdW  Elec       q    Type
REMARK                         _______ _______ _______ _____ _____    ______ ____
ROOT
ATOM      1  N   UNL     1       4.344   6.061  16.959  0.00  0.00    +0.000 NA
ATOM      2  C   UNL     1       4.105   5.083  17.777  0.00  0.00    +0.000 C 
ATOM      3  C   UNL     1       4.749   3.696  17.715  0.00  0.00    +0.000 C 
ATOM      4  C   UNL     1       3.678   2.611  17.704  0.00  0.00    +0.000 C 
ATOM      5  S   UNL     1       2.812   2.553  19.269  0.00  0.00    +0.000 S 
ATOM      6  O   UNL     1       1.501   1.974  19.066  0.00  0.00    +0.000 OA
ATOM      7  O   UNL     1       3.726   2.130  20.305  0.00  0.00    +0.000 OA
ATOM      8  C   UNL     1       2.566   4.285  19.532  0.00  0.00    +0.000 A 
ATOM      9  S   UNL     1       1.505   4.771  20.762  0.00  0.00    +0.000 S 
ATOM     10  C   UNL     1       1.768   6.423  20.396  0.00  0.00    +0.000 A 
ATOM     11  C   UNL     1       2.660   6.588  19.355  0.00  0.00    +0.000 A 
ATOM     12  C   UNL     1       3.144   5.339  18.851  0.00  0.00    +0.000 A 
ENDROOT
BRANCH   1  13
ATOM     13  O   UNL     1       5.319   5.713  16.006  0.00  0.00    +0.000 OA
BRANCH  13  15
ATOM     14  O   UNL     1       7.539   5.897  15.568  0.00  0.00    +0.000 OA
ATOM     15  C   UNL     1       6.597   6.153  16.298  0.00  0.00    +0.000 C 
BRANCH  15  16
ATOM     16  C   UNL     1       6.778   7.019  17.505  0.00  0.00    +0.000 C 
ATOM     17  C   UNL     1       7.912   6.832  18.493  0.00  0.00    +0.000 C 
ATOM     18  C   UNL     1       7.939   7.985  17.536  0.00  0.00    +0.000 C 
ENDBRANCH  15  16
ENDBRANCH  13  15
ENDBRANCH   1  13
TORSDOF 3
ENDMDL
MODEL 9
REMARK VINA RESULT:      -6.5      4.138      4.818
REMARK  Name = 
REMARK  3 active torsions:
REMARK  status: ('A' for Active; 'I' for Inactive)
REMARK    1  A    between atoms: C_2  and  O_3
REMARK    2  A    between atoms: C_2  and  C_16
REMARK    3  A    between atoms: O_3  and  N_4
REMARK                            x       y       z     vdW  Elec       q    Type
REMARK                         _______ _______ _______ _____ _____    ______ ____
ROOT
ATOM      1  N   UNL     1       3.281   7.898  17.811  0.00  0.00    +0.000 NA
ATOM      2  C   UNL     1       3.532   6.626  17.783  0.00  0.00    +0.000 C 
ATOM      3  C   UNL     1       2.494   5.511  17.927  0.00  0.00    +0.000 C 
ATOM      4  C   UNL     1       2.904   4.540  19.028  0.00  0.00    +0.000 C 
ATOM      5  S   UNL     1       4.371   3.627  18.559  0.00  0.00    +0.000 S 
ATOM      6  O   UNL     1       5.051   3.174  19.754  0.00  0.00    +0.000 OA
ATOM      7  O   UNL     1       4.062   2.772  17.436  0.00  0.00    +0.000 OA
ATOM      8  C   UNL     1       5.339   4.950  17.895  0.00  0.00    +0.000 A 
ATOM      9  S   UNL     1       6.980   4.666  17.574  0.00  0.00    +0.000 S 
ATOM     10  C   UNL     1       7.197   6.276  17.033  0.00  0.00    +0.000 A 
ATOM     11  C   UNL     1       6.028   7.007  17.095  0.00  0.00    +0.000 A 
ATOM     12  C   UNL     1       4.929   6.233  17.587  0.00  0.00    +0.000 A 
ENDROOT
BRANCH   1  13
ATOM     13  O   UNL     1       1.904   8.151  17.952  0.00  0.00    +0.000 OA
BRANCH  13  15
ATOM     14  O   UNL     1       2.339  10.351  17.600  0.00  0.00    +0.000 OA
ATOM     15  C   UNL     1       1.560   9.490  17.973  0.00  0.00    +0.000 C 
BRANCH  15  16
ATOM     16  C   UNL     1       0.171   9.847  18.398  0.00  0.00    +0.000 C 
ATOM     17  C   UNL     1      -0.229  10.022  19.850  0.00  0.00    +0.000 C 
ATOM     18  C   UNL     1      -0.082  11.224  18.966  0.00  0.00    +0.000 C 
ENDBRANCH  15  16
ENDBRANCH  13  15
ENDBRANCH   1  13
TORSDOF 3
ENDMDL
