MODEL 1
REMARK VINA RESULT:      -7.2      0.000      0.000
REMARK  Name = 
REMARK  2 active torsions:
REMARK  status: ('A' for Active; 'I' for Inactive)
REMARK    1  A    between atoms: N_3  and  C_4
REMARK    2  A    between atoms: C_15  and  C_16
REMARK                            x       y       z     vdW  Elec       q    Type
REMARK                         _______ _______ _______ _____ _____    ______ ____
ROOT
ATOM      1  O   UNL     1       9.998  10.708  20.305  0.00  0.00    +0.000 OA
ATOM      2  C   UNL     1       9.401  10.242  19.339  0.00  0.00    +0.000 C 
ATOM      3  N   UNL     1       9.129  10.908  18.169  0.00  0.00    +0.000 N 
ATOM      4  N   UNL     1       8.972   8.952  19.451  0.00  0.00    +0.000 N 
ATOM      5  C   UNL     1       8.302   8.232  18.505  0.00  0.00    +0.000 A 
ATOM      6  N   UNL     1       7.824   8.638  17.355  0.00  0.00    +0.000 NA
ATOM      7  N   UNL     1       7.206   7.606  16.674  0.00  0.00    +0.000 NA
ATOM      8  C   UNL     1       7.273   6.457  17.321  0.00  0.00    +0.000 A 
ATOM      9  S   UNL     1       8.061   6.582  18.853  0.00  0.00    +0.000 S 
ATOM     10  H   UNL     1       8.474  10.456  17.537  0.00  0.00    +0.000 HD
ATOM     11  H   UNL     1       9.204   8.507  20.323  0.00  0.00    +0.000 HD
ENDROOT
BRANCH   3  12
ATOM     12  C   UNL     1       9.476  12.247  17.872  0.00  0.00    +0.000 A 
ATOM     13  C   UNL     1      10.708  12.616  17.323  0.00  0.00    +0.000 A 
ATOM     14  C   UNL     1      11.034  13.964  17.145  0.00  0.00    +0.000 A 
ATOM     15  C   UNL     1      10.121  14.942  17.506  0.00  0.00    +0.000 A 
ATOM     16  F   UNL     1      10.448  16.234  17.372  0.00  0.00    +0.000 F 
ATOM     17  C   UNL     1       8.871  14.598  18.007  0.00  0.00    +0.000 A 
ATOM     18  C   UNL     1       8.539  13.248  18.172  0.00  0.00    +0.000 A 
ENDBRANCH   3  12
BRANCH   8  19
ATOM     19  C   UNL     1       6.744   5.150  16.815  0.00  0.00    +0.000 C 
ATOM     20  C   UNL     1       5.219   5.059  16.869  0.00  0.00    +0.000 C 
ATOM     21  C   UNL     1       4.885   3.923  15.909  0.00  0.00    +0.000 C 
ATOM     22  C   UNL     1       5.984   3.930  14.851  0.00  0.00    +0.000 C 
ATOM     23  C   UNL     1       7.036   4.932  15.328  0.00  0.00    +0.000 C 
ENDBRANCH   8  19
TORSDOF 2
ENDMDL
MODEL 2
REMARK VINA RESULT:      -7.0      7.340      9.916
REMARK  Name = 
REMARK  2 active torsions:
REMARK  status: ('A' for Active; 'I' for Inactive)
REMARK    1  A    between atoms: N_3  and  C_4
REMARK    2  A    between atoms: C_15  and  C_16
REMARK                            x       y       z     vdW  Elec       q    Type
REMARK                         _______ _______ _______ _____ _____    ______ ____
ROOT
ATOM      1  O   UNL     1       2.915   4.873  20.395  0.00  0.00    +0.000 OA
ATOM      2  C   UNL     1       2.600   5.992  20.003  0.00  0.00    +0.000 C 
ATOM      3  N   UNL     1       2.904   6.525  18.774  0.00  0.00    +0.000 N 
ATOM      4  N   UNL     1       1.890   6.766  20.873  0.00  0.00    +0.000 N 
ATOM      5  C   UNL     1       1.426   8.029  20.648  0.00  0.00    +0.000 A 
ATOM      6  N   UNL     1       1.654   8.814  19.623  0.00  0.00    +0.000 NA
ATOM      7  N   UNL     1       1.005  10.026  19.761  0.00  0.00    +0.000 NA
ATOM      8  C   UNL     1       0.286  10.094  20.867  0.00  0.00    +0.000 A 
ATOM      9  S   UNL     1       0.407   8.678  21.848  0.00  0.00    +0.000 S 
ATOM     10  H   UNL     1       2.734   7.520  18.662  0.00  0.00    +0.000 HD
ATOM     11  H   UNL     1       1.686   6.327  21.755  0.00  0.00    +0.000 HD
ENDROOT
BRANCH   3  12
ATOM     12  C   UNL     1       3.641   5.888  17.748  0.00  0.00    +0.000 A 
ATOM     13  C   UNL     1       3.543   4.520  17.469  0.00  0.00    +0.000 A 
ATOM     14  C   UNL     1       4.371   3.927  16.512  0.00  0.00    +0.000 A 
ATOM     15  C   UNL     1       5.290   4.706  15.825  0.00  0.00    +0.000 A 
ATOM     16  F   UNL     1       6.110   4.131  14.937  0.00  0.00    +0.000 F 
ATOM     17  C   UNL     1       5.371   6.075  16.050  0.00  0.00    +0.000 A 
ATOM     18  C   UNL     1       4.531   6.671  16.999  0.00  0.00    +0.000 A 
ENDBRANCH   3  12
BRANCH   8  19
ATOM     19  C   UNL     1      -0.571  11.257  21.267  0.00  0.00    +0.000 C 
ATOM     20  C   UNL     1      -1.014  11.199  22.729  0.00  0.00    +0.000 C 
ATOM     21  C   UNL     1      -1.433  12.631  23.042  0.00  0.00    +0.000 C 
ATOM     22  C   UNL     1      -0.573  13.524  22.151  0.00  0.00    +0.000 C 
ATOM     23  C   UNL     1       0.176  12.591  21.200  0.00  0.00    +0.000 C 
ENDBRANCH   8  19
TORSDOF 2
ENDMDL
MODEL 3
REMARK VINA RESULT:      -7.0      6.714      7.754
REMARK  Name = 
REMARK  2 active torsions:
REMARK  status: ('A' for Active; 'I' for Inactive)
REMARK    1  A    between atoms: N_3  and  C_4
REMARK    2  A    between atoms: C_15  and  C_16
REMARK                            x       y       z     vdW  Elec       q    Type
REMARK                         _______ _______ _______ _____ _____    ______ ____
ROOT
ATOM      1  O   UNL     1       0.591   8.471  21.910  0.00  0.00    +0.000 OA
ATOM      2  C   UNL     1       1.165   8.345  20.834  0.00  0.00    +0.000 C 
ATOM      3  N   UNL     1       1.150   9.256  19.806  0.00  0.00    +0.000 N 
ATOM      4  N   UNL     1       1.875   7.194  20.652  0.00  0.00    +0.000 N 
ATOM      5  C   UNL     1       2.596   6.849  19.546  0.00  0.00    +0.000 A 
ATOM      6  N   UNL     1       2.672   7.465  18.393  0.00  0.00    +0.000 NA
ATOM      7  N   UNL     1       3.511   6.801  17.519  0.00  0.00    +0.000 NA
ATOM      8  C   UNL     1       4.062   5.729  18.060  0.00  0.00    +0.000 A 
ATOM      9  S   UNL     1       3.534   5.433  19.678  0.00  0.00    +0.000 S 
ATOM     10  H   UNL     1       1.518   8.935  18.916  0.00  0.00    +0.000 HD
ATOM     11  H   UNL     1       1.862   6.565  21.436  0.00  0.00    +0.000 HD
ENDROOT
BRANCH   3  12
ATOM     12  C   UNL     1       0.462  10.492  19.799  0.00  0.00    +0.000 A 
ATOM     13  C   UNL     1       1.011  11.678  20.300  0.00  0.00    +0.000 A 
ATOM     14  C   UNL     1       0.247  12.847  20.359  0.00  0.00    +0.000 A 
ATOM     15  C   UNL     1      -1.063  12.833  19.906  0.00  0.00    +0.000 A 
ATOM     16  F   UNL     1      -1.807  13.942  19.999  0.00  0.00    +0.000 F 
ATOM     17  C   UNL     1      -1.613  11.680  19.359  0.00  0.00    +0.000 A 
ATOM     18  C   UNL     1      -0.844  10.512  19.286  0.00  0.00    +0.000 A 
ENDBRANCH   3  12
BRANCH   8  19
ATOM     19  C   UNL     1       5.055   4.835  17.382  0.00  0.00    +0.000 C 
ATOM     20  C   UNL     1       5.261   5.178  15.906  0.00  0.00    +0.000 C 
ATOM     21  C   UNL     1       6.588   4.514  15.557  0.00  0.00    +0.000 C 
ATOM     22  C   UNL     1       7.406   4.508  16.845  0.00  0.00    +0.000 C 
ATOM     23  C   UNL     1       6.467   4.979  17.956  0.00  0.00    +0.000 C 
ENDBRANCH   8  19
TORSDOF 2
ENDMDL
MODEL 4
REMARK VINA RESULT:      -6.9      6.654      7.700
REMARK  Name = 
REMARK  2 active torsions:
REMARK  status: ('A' for Active; 'I' for Inactive)
REMARK    1  A    between atoms: N_3  and  C_4
REMARK    2  A    between atoms: C_15  and  C_16
REMARK                            x       y       z     vdW  Elec       q    Type
REMARK                         _______ _______ _______ _____ _____    ______ ____
ROOT
ATOM      1  O   UNL     1       0.527   8.372  21.886  0.00  0.00    +0.000 OA
ATOM      2  C   UNL     1       1.122   8.279  20.817  0.00  0.00    +0.000 C 
ATOM      3  N   UNL     1       1.122   9.220  19.816  0.00  0.00    +0.000 N 
ATOM      4  N   UNL     1       1.841   7.137  20.617  0.00  0.00    +0.000 N 
ATOM      5  C   UNL     1       2.586   6.827  19.516  0.00  0.00    +0.000 A 
ATOM      6  N   UNL     1       2.681   7.477  18.383  0.00  0.00    +0.000 NA
ATOM      7  N   UNL     1       3.540   6.841  17.507  0.00  0.00    +0.000 NA
ATOM      8  C   UNL     1       4.085   5.756  18.028  0.00  0.00    +0.000 A 
ATOM      9  S   UNL     1       3.528   5.412  19.626  0.00  0.00    +0.000 S 
ATOM     10  H   UNL     1       1.510   8.926  18.924  0.00  0.00    +0.000 HD
ATOM     11  H   UNL     1       1.816   6.486  21.383  0.00  0.00    +0.000 HD
ENDROOT
BRANCH   3  12
ATOM     12  C   UNL     1       0.429  10.452  19.831  0.00  0.00    +0.000 A 
ATOM     13  C   UNL     1      -0.864  10.611  19.320  0.00  0.00    +0.000 A 
ATOM     14  C   UNL     1      -1.460  11.875  19.269  0.00  0.00    +0.000 A 
ATOM     15  C   UNL     1      -0.766  12.978  19.739  0.00  0.00    +0.000 A 
ATOM     16  F   UNL     1      -1.321  14.194  19.654  0.00  0.00    +0.000 F 
ATOM     17  C   UNL     1       0.500  12.838  20.296  0.00  0.00    +0.000 A 
ATOM     18  C   UNL     1       1.091  11.570  20.360  0.00  0.00    +0.000 A 
ENDBRANCH   3  12
BRANCH   8  19
ATOM     19  C   UNL     1       5.096   4.887  17.344  0.00  0.00    +0.000 C 
ATOM     20  C   UNL     1       5.380   5.315  15.904  0.00  0.00    +0.000 C 
ATOM     21  C   UNL     1       6.711   4.649  15.578  0.00  0.00    +0.000 C 
ATOM     22  C   UNL     1       7.465   4.548  16.901  0.00  0.00    +0.000 C 
ATOM     23  C   UNL     1       6.480   4.969  17.992  0.00  0.00    +0.000 C 
ENDBRANCH   8  19
TORSDOF 2
ENDMDL
MODEL 5
REMARK VINA RESULT:      -6.9      6.928      9.499
REMARK  Name = 
REMARK  2 active torsions:
REMARK  status: ('A' for Active; 'I' for Inactive)
REMARK    1  A    between atoms: N_3  and  C_4
REMARK    2  A    between atoms: C_15  and  C_16
REMARK                            x       y       z     vdW  Elec       q    Type
REMARK                         _______ _______ _______ _____ _____    ______ ____
ROOT
ATOM      1  O   UNL     1       3.809   4.835  20.007  0.00  0.00    +0.000 OA
ATOM      2  C   UNL     1       3.307   5.839  19.512  0.00  0.00    +0.000 C 
ATOM      3  N   UNL     1       3.435   6.234  18.202  0.00  0.00    +0.000 N 
ATOM      4  N   UNL     1       2.563   6.624  20.343  0.00  0.00    +0.000 N 
ATOM      5  C   UNL     1       1.908   7.772  20.008  0.00  0.00    +0.000 A 
ATOM      6  N   UNL     1       1.941   8.433  18.877  0.00  0.00    +0.000 NA
ATOM      7  N   UNL     1       1.137   9.556  18.924  0.00  0.00    +0.000 NA
ATOM      8  C   UNL     1       0.504   9.680  20.077  0.00  0.00    +0.000 A 
ATOM      9  S   UNL     1       0.903   8.439  21.211  0.00  0.00    +0.000 S 
ATOM     10  H   UNL     1       3.116   7.174  17.984  0.00  0.00    +0.000 HD
ATOM     11  H   UNL     1       2.494   6.286  21.288  0.00  0.00    +0.000 HD
ENDROOT
BRANCH   3  12
ATOM     12  C   UNL     1       4.173   5.566  17.198  0.00  0.00    +0.000 A 
ATOM     13  C   UNL     1       4.202   4.173  17.065  0.00  0.00    +0.000 A 
ATOM     14  C   UNL     1       5.031   3.565  16.118  0.00  0.00    +0.000 A 
ATOM     15  C   UNL     1       5.822   4.351  15.295  0.00  0.00    +0.000 A 
ATOM     16  F   UNL     1       6.644   3.767  14.414  0.00  0.00    +0.000 F 
ATOM     17  C   UNL     1       5.772   5.738  15.375  0.00  0.00    +0.000 A 
ATOM     18  C   UNL     1       4.932   6.348  16.314  0.00  0.00    +0.000 A 
ENDBRANCH   3  12
BRANCH   8  19
ATOM     19  C   UNL     1      -0.476  10.763  20.410  0.00  0.00    +0.000 C 
ATOM     20  C   UNL     1       0.194  12.095  20.748  0.00  0.00    +0.000 C 
ATOM     21  C   UNL     1      -0.922  13.120  20.581  0.00  0.00    +0.000 C 
ATOM     22  C   UNL     1      -1.852  12.556  19.510  0.00  0.00    +0.000 C 
ATOM     23  C   UNL     1      -1.371  11.133  19.225  0.00  0.00    +0.000 C 
ENDBRANCH   8  19
TORSDOF 2
ENDMDL
MODEL 6
REMARK VINA RESULT:      -6.9      7.458      9.863
REMARK  Name = 
REMARK  2 active torsions:
REMARK  status: ('A' for Active; 'I' for Inactive)
REMARK    1  A    between atoms: N_3  and  C_4
REMARK    2  A    between atoms: C_15  and  C_16
REMARK                            x       y       z     vdW  Elec       q    Type
REMARK                         _______ _______ _______ _____ _____    ______ ____
ROOT
ATOM      1  O   UNL     1       2.990   5.176  20.348  0.00  0.00    +0.000 OA
ATOM      2  C   UNL     1       2.672   6.236  19.818  0.00  0.00    +0.000 C 
ATOM      3  N   UNL     1       2.979   6.613  18.533  0.00  0.00    +0.000 N 
ATOM      4  N   UNL     1       1.954   7.109  20.582  0.00  0.00    +0.000 N 
ATOM      5  C   UNL     1       1.487   8.332  20.199  0.00  0.00    +0.000 A 
ATOM      6  N   UNL     1       1.716   8.984  19.086  0.00  0.00    +0.000 NA
ATOM      7  N   UNL     1       1.061  10.201  19.069  0.00  0.00    +0.000 NA
ATOM      8  C   UNL     1       0.336  10.402  20.155  0.00  0.00    +0.000 A 
ATOM      9  S   UNL     1       0.459   9.120  21.306  0.00  0.00    +0.000 S 
ATOM     10  H   UNL     1       2.806   7.586  18.298  0.00  0.00    +0.000 HD
ATOM     11  H   UNL     1       1.748   6.782  21.511  0.00  0.00    +0.000 HD
ENDROOT
BRANCH   3  12
ATOM     12  C   UNL     1       3.724   5.857  17.598  0.00  0.00    +0.000 A 
ATOM     13  C   UNL     1       3.574   4.476  17.436  0.00  0.00    +0.000 A 
ATOM     14  C   UNL     1       4.409   3.766  16.568  0.00  0.00    +0.000 A 
ATOM     15  C   UNL     1       5.388   4.440  15.855  0.00  0.00    +0.000 A 
ATOM     16  F   UNL     1       6.213   3.755  15.054  0.00  0.00    +0.000 F 
ATOM     17  C   UNL     1       5.522   5.819  15.963  0.00  0.00    +0.000 A 
ATOM     18  C   UNL     1       4.677   6.532  16.821  0.00  0.00    +0.000 A 
ENDBRANCH   3  12
BRANCH   8  19
ATOM     19  C   UNL     1      -0.527  11.602  20.404  0.00  0.00    +0.000 C 
ATOM     20  C   UNL     1      -1.743  11.668  19.480  0.00  0.00    +0.000 C 
ATOM     21  C   UNL     1      -2.690  12.631  20.186  0.00  0.00    +0.000 C 
ATOM     22  C   UNL     1      -2.405  12.479  21.678  0.00  0.00    +0.000 C 
ATOM     23  C   UNL     1      -1.168  11.588  21.794  0.00  0.00    +0.000 C 
ENDBRANCH   8  19
TORSDOF 2
ENDMDL
MODEL 7
REMARK VINA RESULT:      -6.9      6.768      7.763
REMARK  Name = 
REMARK  2 active torsions:
REMARK  status: ('A' for Active; 'I' for Inactive)
REMARK    1  A    between atoms: N_3  and  C_4
REMARK    2  A    between atoms: C_15  and  C_16
REMARK                            x       y       z     vdW  Elec       q    Type
REMARK                         _______ _______ _______ _____ _____    ______ ____
ROOT
ATOM      1  O   UNL     1       0.506   8.334  21.895  0.00  0.00    +0.000 OA
ATOM      2  C   UNL     1       1.095   8.363  20.819  0.00  0.00    +0.000 C 
ATOM      3  N   UNL     1       1.044   9.390  19.907  0.00  0.00    +0.000 N 
ATOM      4  N   UNL     1       1.860   7.277  20.512  0.00  0.00    +0.000 N 
ATOM      5  C   UNL     1       2.607   7.101  19.383  0.00  0.00    +0.000 A 
ATOM      6  N   UNL     1       2.663   7.854  18.313  0.00  0.00    +0.000 NA
ATOM      7  N   UNL     1       3.541   7.338  17.378  0.00  0.00    +0.000 NA
ATOM      8  C   UNL     1       4.137   6.236  17.795  0.00  0.00    +0.000 A 
ATOM      9  S   UNL     1       3.611   5.725  19.359  0.00  0.00    +0.000 S 
ATOM     10  H   UNL     1       1.436   9.195  18.990  0.00  0.00    +0.000 HD
ATOM     11  H   UNL     1       1.871   6.559  21.215  0.00  0.00    +0.000 HD
ENDROOT
BRANCH   3  12
ATOM     12  C   UNL     1       0.298  10.585  20.037  0.00  0.00    +0.000 A 
ATOM     13  C   UNL     1      -0.958  10.772  19.450  0.00  0.00    +0.000 A 
ATOM     14  C   UNL     1      -1.602  12.010  19.528  0.00  0.00    +0.000 A 
ATOM     15  C   UNL     1      -0.995  13.057  20.203  0.00  0.00    +0.000 A 
ATOM     16  F   UNL     1      -1.595  14.254  20.244  0.00  0.00    +0.000 F 
ATOM     17  C   UNL     1       0.229  12.880  20.837  0.00  0.00    +0.000 A 
ATOM     18  C   UNL     1       0.868  11.636  20.771  0.00  0.00    +0.000 A 
ENDBRANCH   3  12
BRANCH   8  19
ATOM     19  C   UNL     1       5.178   5.477  17.029  0.00  0.00    +0.000 C 
ATOM     20  C   UNL     1       4.778   4.029  16.747  0.00  0.00    +0.000 C 
ATOM     21  C   UNL     1       5.697   3.611  15.605  0.00  0.00    +0.000 C 
ATOM     22  C   UNL     1       5.988   4.883  14.814  0.00  0.00    +0.000 C 
ATOM     23  C   UNL     1       5.403   6.039  15.624  0.00  0.00    +0.000 C 
ENDBRANCH   8  19
TORSDOF 2
ENDMDL
MODEL 8
REMARK VINA RESULT:      -6.8      6.903      9.448
REMARK  Name = 
REMARK  2 active torsions:
REMARK  status: ('A' for Active; 'I' for Inactive)
REMARK    1  A    between atoms: N_3  and  C_4
REMARK    2  A    between atoms: C_15  and  C_16
REMARK                            x       y       z     vdW  Elec       q    Type
REMARK                         _______ _______ _______ _____ _____    ______ ____
ROOT
ATOM      1  O   UNL     1       3.965   4.814  19.914  0.00  0.00    +0.000 OA
ATOM      2  C   UNL     1       3.451   5.809  19.412  0.00  0.00    +0.000 C 
ATOM      3  N   UNL     1       3.604   6.218  18.109  0.00  0.00    +0.000 N 
ATOM      4  N   UNL     1       2.665   6.567  20.228  0.00  0.00    +0.000 N 
ATOM      5  C   UNL     1       1.988   7.701  19.883  0.00  0.00    +0.000 A 
ATOM      6  N   UNL     1       2.035   8.371  18.758  0.00  0.00    +0.000 NA
ATOM      7  N   UNL     1       1.201   9.473  18.792  0.00  0.00    +0.000 NA
ATOM      8  C   UNL     1       0.534   9.570  19.928  0.00  0.00    +0.000 A 
ATOM      9  S   UNL     1       0.934   8.331  21.063  0.00  0.00    +0.000 S 
ATOM     10  H   UNL     1       3.267   7.150  17.890  0.00  0.00    +0.000 HD
ATOM     11  H   UNL     1       2.578   6.221  21.168  0.00  0.00    +0.000 HD
ENDROOT
BRANCH   3  12
ATOM     12  C   UNL     1       4.387   5.577  17.121  0.00  0.00    +0.000 A 
ATOM     13  C   UNL     1       5.170   6.273  16.193  0.00  0.00    +0.000 A 
ATOM     14  C   UNL     1       5.842   5.590  15.175  0.00  0.00    +0.000 A 
ATOM     15  C   UNL     1       5.741   4.210  15.093  0.00  0.00    +0.000 A 
ATOM     16  F   UNL     1       6.354   3.561  14.095  0.00  0.00    +0.000 F 
ATOM     17  C   UNL     1       5.011   3.494  16.033  0.00  0.00    +0.000 A 
ATOM     18  C   UNL     1       4.348   4.176  17.061  0.00  0.00    +0.000 A 
ENDBRANCH   3  12
BRANCH   8  19
ATOM     19  C   UNL     1      -0.484  10.625  20.242  0.00  0.00    +0.000 C 
ATOM     20  C   UNL     1       0.134  12.004  20.472  0.00  0.00    +0.000 C 
ATOM     21  C   UNL     1      -1.037  12.964  20.296  0.00  0.00    +0.000 C 
ATOM     22  C   UNL     1      -1.982  12.295  19.302  0.00  0.00    +0.000 C 
ATOM     23  C   UNL     1      -1.445  10.882  19.079  0.00  0.00    +0.000 C 
ENDBRANCH   8  19
TORSDOF 2
ENDMDL
MODEL 9
REMARK VINA RESULT:      -6.8      6.902      7.881
REMARK  Name = 
REMARK  2 active torsions:
REMARK  status: ('A' for Active; 'I' for Inactive)
REMARK    1  A    between atoms: N_3  and  C_4
REMARK    2  A    between atoms: C_15  and  C_16
REMARK                            x       y       z     vdW  Elec       q    Type
REMARK                         _______ _______ _______ _____ _____    ______ ____
ROOT
ATOM      1  O   UNL     1       0.498   8.439  21.895  0.00  0.00    +0.000 OA
ATOM      2  C   UNL     1       1.078   8.454  20.813  0.00  0.00    +0.000 C 
ATOM      3  N   UNL     1       1.014   9.465  19.885  0.00  0.00    +0.000 N 
ATOM      4  N   UNL     1       1.847   7.367  20.518  0.00  0.00    +0.000 N 
ATOM      5  C   UNL     1       2.586   7.176  19.387  0.00  0.00    +0.000 A 
ATOM      6  N   UNL     1       2.628   7.911  18.303  0.00  0.00    +0.000 NA
ATOM      7  N   UNL     1       3.501   7.385  17.370  0.00  0.00    +0.000 NA
ATOM      8  C   UNL     1       4.108   6.293  17.801  0.00  0.00    +0.000 A 
ATOM      9  S   UNL     1       3.597   5.805  19.377  0.00  0.00    +0.000 S 
ATOM     10  H   UNL     1       1.398   9.256  18.968  0.00  0.00    +0.000 HD
ATOM     11  H   UNL     1       1.868   6.661  21.234  0.00  0.00    +0.000 HD
ENDROOT
BRANCH   3  12
ATOM     12  C   UNL     1       0.262  10.657  20.001  0.00  0.00    +0.000 A 
ATOM     13  C   UNL     1       0.681  11.758  20.756  0.00  0.00    +0.000 A 
ATOM     14  C   UNL     1      -0.151  12.869  20.917  0.00  0.00    +0.000 A 
ATOM     15  C   UNL     1      -1.398  12.885  20.312  0.00  0.00    +0.000 A 
ATOM     16  F   UNL     1      -2.210  13.933  20.499  0.00  0.00    +0.000 F 
ATOM     17  C   UNL     1      -1.815  11.824  19.517  0.00  0.00    +0.000 A 
ATOM     18  C   UNL     1      -0.977  10.717  19.344  0.00  0.00    +0.000 A 
ENDBRANCH   3  12
BRANCH   8  19
ATOM     19  C   UNL     1       5.147   5.528  17.039  0.00  0.00    +0.000 C 
ATOM     20  C   UNL     1       4.752   4.074  16.782  0.00  0.00    +0.000 C 
ATOM     21  C   UNL     1       5.665   3.642  15.640  0.00  0.00    +0.000 C 
ATOM     22  C   UNL     1       5.944   4.903  14.827  0.00  0.00    +0.000 C 
ATOM     23  C   UNL     1       5.359   6.069  15.623  0.00  0.00    +0.000 C 
ENDBRANCH   8  19
TORSDOF 2
ENDMDL
