MODEL 1
REMARK VINA RESULT:      -7.3      0.000      0.000
REMARK  Name = 
REMARK  12 active torsions:
REMARK  status: ('A' for Active; 'I' for Inactive)
REMARK    1  A    between atoms: C_1  and  O_2
REMARK    2  A    between atoms: O_2  and  C_3
REMARK    3  A    between atoms: C_3  and  C_4
REMARK    4  A    between atoms: C_6  and  C_7
REMARK    5  A    between atoms: C_7  and  C_8
REMARK    6  A    between atoms: C_8  and  C_9
REMARK    7  A    between atoms: C_9  and  O_10
REMARK    8  A    between atoms: O_10  and  C_11
REMARK    9  A    between atoms: C_12  and  C_13
REMARK   10  A    between atoms: C_15  and  C_16
REMARK   11  A    between atoms: C_19  and  C_20
REMARK   12  A    between atoms: C_23  and  C_24
REMARK                            x       y       z     vdW  Elec       q    Type
REMARK                         _______ _______ _______ _____ _____    ______ ____
ROOT
ATOM      1  C   UNL     1       2.380   5.547  18.909  0.00  0.00    +0.000 A 
ATOM      2  C   UNL     1       1.743   5.178  20.117  0.00  0.00    +0.000 A 
ATOM      3  C   UNL     1       1.374   3.806  20.617  0.00  0.00    +0.000 C 
ATOM      4  C   UNL     1       1.295   6.208  20.972  0.00  0.00    +0.000 A 
ATOM      5  C   UNL     1       1.482   7.562  20.701  0.00  0.00    +0.000 A 
ATOM      6  C   UNL     1       2.146   7.915  19.528  0.00  0.00    +0.000 A 
ATOM      7  C   UNL     1       2.598   6.927  18.635  0.00  0.00    +0.000 A 
ATOM      8  C   UNL     1       3.321   7.370  17.387  0.00  0.00    +0.000 C 
ENDROOT
BRANCH   5   9
ATOM      9  C   UNL     1       0.986   8.564  21.628  0.00  0.00    +0.000 A 
ATOM     10  N   UNL     1       1.749   9.145  22.575  0.00  0.00    +0.000 NA
ATOM     11  O   UNL     1       0.882  10.017  23.222  0.00  0.00    +0.000 OA
ATOM     12  C   UNL     1      -0.323   9.883  22.603  0.00  0.00    +0.000 A 
ATOM     13  C   UNL     1      -1.424  10.715  23.114  0.00  0.00    +0.000 C 
ATOM     14  N   UNL     1      -0.317   9.011  21.619  0.00  0.00    +0.000 NA
ENDBRANCH   5   9
BRANCH   1  15
ATOM     15  O   UNL     1       2.833   4.734  17.895  0.00  0.00    +0.000 OA
BRANCH  15  16
ATOM     16  C   UNL     1       3.837   3.793  18.207  0.00  0.00    +0.000 C 
BRANCH  16  17
ATOM     17  C   UNL     1       5.073   4.452  18.791  0.00  0.00    +0.000 C 
BRANCH  17  18
ATOM     18  C   UNL     1       6.097   4.627  17.670  0.00  0.00    +0.000 C 
BRANCH  18  21
ATOM     19  C   UNL     1       7.811   7.838  17.975  0.00  0.00    +0.000 A 
ATOM     20  C   UNL     1       6.867   7.084  17.250  0.00  0.00    +0.000 A 
ATOM     21  C   UNL     1       6.877   5.858  17.859  0.00  0.00    +0.000 A 
ATOM     22  O   UNL     1       7.798   5.855  18.856  0.00  0.00    +0.000 OA
ATOM     23  N   UNL     1       8.397   7.101  18.928  0.00  0.00    +0.000 NA
BRANCH  19  24
ATOM     24  C   UNL     1       8.168   9.265  17.776  0.00  0.00    +0.000 C 
BRANCH  24  26
ATOM     25  C   UNL     1       9.701  10.889  18.525  0.00  0.00    +0.000 C 
ATOM     26  O   UNL     1       8.914   9.767  18.892  0.00  0.00    +0.000 OA
ENDBRANCH  24  26
ENDBRANCH  19  24
ENDBRANCH  18  21
ENDBRANCH  17  18
ENDBRANCH  16  17
ENDBRANCH  15  16
ENDBRANCH   1  15
TORSDOF 8
ENDMDL
MODEL 2
REMARK VINA RESULT:      -7.2      3.029      4.470
REMARK  Name = 
REMARK  12 active torsions:
REMARK  status: ('A' for Active; 'I' for Inactive)
REMARK    1  A    between atoms: C_1  and  O_2
REMARK    2  A    between atoms: O_2  and  C_3
REMARK    3  A    between atoms: C_3  and  C_4
REMARK    4  A    between atoms: C_6  and  C_7
REMARK    5  A    between atoms: C_7  and  C_8
REMARK    6  A    between atoms: C_8  and  C_9
REMARK    7  A    between atoms: C_9  and  O_10
REMARK    8  A    between atoms: O_10  and  C_11
REMARK    9  A    between atoms: C_12  and  C_13
REMARK   10  A    between atoms: C_15  and  C_16
REMARK   11  A    between atoms: C_19  and  C_20
REMARK   12  A    between atoms: C_23  and  C_24
REMARK                            x       y       z     vdW  Elec       q    Type
REMARK                         _______ _______ _______ _____ _____    ______ ____
ROOT
ATOM      1  C   UNL     1       2.518   6.400  19.239  0.00  0.00    +0.000 A 
ATOM      2  C   UNL     1       2.376   7.736  18.793  0.00  0.00    +0.000 A 
ATOM      3  C   UNL     1       2.906   8.381  17.540  0.00  0.00    +0.000 C 
ATOM      4  C   UNL     1       1.725   8.653  19.646  0.00  0.00    +0.000 A 
ATOM      5  C   UNL     1       1.187   8.300  20.881  0.00  0.00    +0.000 A 
ATOM      6  C   UNL     1       1.297   6.974  21.294  0.00  0.00    +0.000 A 
ATOM      7  C   UNL     1       1.950   6.024  20.489  0.00  0.00    +0.000 A 
ATOM      8  C   UNL     1       2.027   4.601  20.984  0.00  0.00    +0.000 C 
ENDROOT
BRANCH   5   9
ATOM      9  C   UNL     1       0.537   9.304  21.705  0.00  0.00    +0.000 A 
ATOM     10  N   UNL     1       0.794   9.471  23.018  0.00  0.00    +0.000 NA
ATOM     11  O   UNL     1      -0.041  10.515  23.397  0.00  0.00    +0.000 OA
ATOM     12  C   UNL     1      -0.723  10.882  22.277  0.00  0.00    +0.000 A 
ATOM     13  C   UNL     1      -1.685  11.986  22.422  0.00  0.00    +0.000 C 
ATOM     14  N   UNL     1      -0.408  10.178  21.212  0.00  0.00    +0.000 NA
ENDBRANCH   5   9
BRANCH   1  15
ATOM     15  O   UNL     1       3.170   5.356  18.624  0.00  0.00    +0.000 OA
BRANCH  15  16
ATOM     16  C   UNL     1       4.577   5.314  18.717  0.00  0.00    +0.000 C 
BRANCH  16  17
ATOM     17  C   UNL     1       5.185   4.340  17.726  0.00  0.00    +0.000 C 
BRANCH  17  18
ATOM     18  C   UNL     1       6.440   4.980  17.133  0.00  0.00    +0.000 C 
BRANCH  18  21
ATOM     19  C   UNL     1       6.434   4.104  13.586  0.00  0.00    +0.000 A 
ATOM     20  C   UNL     1       5.921   3.802  14.864  0.00  0.00    +0.000 A 
ATOM     21  C   UNL     1       6.550   4.688  15.697  0.00  0.00    +0.000 A 
ATOM     22  O   UNL     1       7.420   5.444  14.981  0.00  0.00    +0.000 OA
ATOM     23  N   UNL     1       7.357   5.074  13.648  0.00  0.00    +0.000 NA
BRANCH  19  24
ATOM     24  C   UNL     1       6.057   3.480  12.293  0.00  0.00    +0.000 C 
BRANCH  24  26
ATOM     25  C   UNL     1       7.048   1.614  11.254  0.00  0.00    +0.000 C 
ATOM     26  O   UNL     1       7.212   2.977  11.611  0.00  0.00    +0.000 OA
ENDBRANCH  24  26
ENDBRANCH  19  24
ENDBRANCH  18  21
ENDBRANCH  17  18
ENDBRANCH  16  17
ENDBRANCH  15  16
ENDBRANCH   1  15
TORSDOF 8
ENDMDL
MODEL 3
REMARK VINA RESULT:      -7.2      2.926      8.660
REMARK  Name = 
REMARK  12 active torsions:
REMARK  status: ('A' for Active; 'I' for Inactive)
REMARK    1  A    between atoms: C_1  and  O_2
REMARK    2  A    between atoms: O_2  and  C_3
REMARK    3  A    between atoms: C_3  and  C_4
REMARK    4  A    between atoms: C_6  and  C_7
REMARK    5  A    between atoms: C_7  and  C_8
REMARK    6  A    between atoms: C_8  and  C_9
REMARK    7  A    between atoms: C_9  and  O_10
REMARK    8  A    between atoms: O_10  and  C_11
REMARK    9  A    between atoms: C_12  and  C_13
REMARK   10  A    between atoms: C_15  and  C_16
REMARK   11  A    between atoms: C_19  and  C_20
REMARK   12  A    between atoms: C_23  and  C_24
REMARK                            x       y       z     vdW  Elec       q    Type
REMARK                         _______ _______ _______ _____ _____    ______ ____
ROOT
ATOM      1  C   UNL     1       2.914   5.266  18.318  0.00  0.00    +0.000 A 
ATOM      2  C   UNL     1       3.393   6.436  17.682  0.00  0.00    +0.000 A 
ATOM      3  C   UNL     1       2.941   7.863  17.852  0.00  0.00    +0.000 C 
ATOM      4  C   UNL     1       4.375   6.291  16.679  0.00  0.00    +0.000 A 
ATOM      5  C   UNL     1       4.918   5.061  16.314  0.00  0.00    +0.000 A 
ATOM      6  C   UNL     1       4.469   3.919  16.973  0.00  0.00    +0.000 A 
ATOM      7  C   UNL     1       3.481   4.008  17.969  0.00  0.00    +0.000 A 
ATOM      8  C   UNL     1       3.044   2.738  18.657  0.00  0.00    +0.000 C 
ENDROOT
BRANCH   5   9
ATOM      9  C   UNL     1       5.922   4.992  15.266  0.00  0.00    +0.000 A 
ATOM     10  N   UNL     1       7.116   5.612  15.336  0.00  0.00    +0.000 NA
ATOM     11  O   UNL     1       7.739   5.286  14.138  0.00  0.00    +0.000 OA
ATOM     12  C   UNL     1       6.864   4.497  13.457  0.00  0.00    +0.000 A 
ATOM     13  C   UNL     1       7.299   4.014  12.137  0.00  0.00    +0.000 C 
ATOM     14  N   UNL     1       5.737   4.281  14.099  0.00  0.00    +0.000 NA
ENDBRANCH   5   9
BRANCH   1  15
ATOM     15  O   UNL     1       1.921   5.149  19.263  0.00  0.00    +0.000 OA
BRANCH  15  16
ATOM     16  C   UNL     1       2.194   5.621  20.565  0.00  0.00    +0.000 C 
BRANCH  16  17
ATOM     17  C   UNL     1       1.168   6.637  21.029  0.00  0.00    +0.000 C 
BRANCH  17  18
ATOM     18  C   UNL     1       1.783   8.031  20.905  0.00  0.00    +0.000 C 
BRANCH  18  21
ATOM     19  C   UNL     1      -0.496  10.568  22.212  0.00  0.00    +0.000 A 
ATOM     20  C   UNL     1       0.080  10.001  21.058  0.00  0.00    +0.000 A 
ATOM     21  C   UNL     1       0.928   9.041  21.542  0.00  0.00    +0.000 A 
ATOM     22  O   UNL     1       0.903   9.058  22.899  0.00  0.00    +0.000 OA
ATOM     23  N   UNL     1       0.011  10.027  23.328  0.00  0.00    +0.000 NA
BRANCH  19  24
ATOM     24  C   UNL     1      -1.533  11.629  22.274  0.00  0.00    +0.000 C 
BRANCH  24  26
ATOM     25  C   UNL     1      -3.282  12.547  23.555  0.00  0.00    +0.000 C 
ATOM     26  O   UNL     1      -2.301  11.525  23.479  0.00  0.00    +0.000 OA
ENDBRANCH  24  26
ENDBRANCH  19  24
ENDBRANCH  18  21
ENDBRANCH  17  18
ENDBRANCH  16  17
ENDBRANCH  15  16
ENDBRANCH   1  15
TORSDOF 8
ENDMDL
MODEL 4
REMARK VINA RESULT:      -7.0      3.046      4.580
REMARK  Name = 
REMARK  12 active torsions:
REMARK  status: ('A' for Active; 'I' for Inactive)
REMARK    1  A    between atoms: C_1  and  O_2
REMARK    2  A    between atoms: O_2  and  C_3
REMARK    3  A    between atoms: C_3  and  C_4
REMARK    4  A    between atoms: C_6  and  C_7
REMARK    5  A    between atoms: C_7  and  C_8
REMARK    6  A    between atoms: C_8  and  C_9
REMARK    7  A    between atoms: C_9  and  O_10
REMARK    8  A    between atoms: O_10  and  C_11
REMARK    9  A    between atoms: C_12  and  C_13
REMARK   10  A    between atoms: C_15  and  C_16
REMARK   11  A    between atoms: C_19  and  C_20
REMARK   12  A    between atoms: C_23  and  C_24
REMARK                            x       y       z     vdW  Elec       q    Type
REMARK                         _______ _______ _______ _____ _____    ______ ____
ROOT
ATOM      1  C   UNL     1       2.220   7.296  19.108  0.00  0.00    +0.000 A 
ATOM      2  C   UNL     1       1.864   8.623  18.767  0.00  0.00    +0.000 A 
ATOM      3  C   UNL     1       2.182   9.400  17.517  0.00  0.00    +0.000 C 
ATOM      4  C   UNL     1       1.188   9.397  19.734  0.00  0.00    +0.000 A 
ATOM      5  C   UNL     1       0.824   8.907  20.987  0.00  0.00    +0.000 A 
ATOM      6  C   UNL     1       1.143   7.588  21.299  0.00  0.00    +0.000 A 
ATOM      7  C   UNL     1       1.831   6.779  20.375  0.00  0.00    +0.000 A 
ATOM      8  C   UNL     1       2.138   5.354  20.765  0.00  0.00    +0.000 C 
ENDROOT
BRANCH   5   9
ATOM      9  C   UNL     1       0.134   9.768  21.932  0.00  0.00    +0.000 A 
ATOM     10  N   UNL     1       0.333   9.722  23.264  0.00  0.00    +0.000 NA
ATOM     11  O   UNL     1      -0.522  10.694  23.769  0.00  0.00    +0.000 OA
ATOM     12  C   UNL     1      -1.156  11.238  22.693  0.00  0.00    +0.000 A 
ATOM     13  C   UNL     1      -2.128  12.307  22.970  0.00  0.00    +0.000 C 
ATOM     14  N   UNL     1      -0.792  10.713  21.544  0.00  0.00    +0.000 NA
ENDBRANCH   5   9
BRANCH   1  15
ATOM     15  O   UNL     1       2.937   6.383  18.368  0.00  0.00    +0.000 OA
BRANCH  15  16
ATOM     16  C   UNL     1       4.303   6.652  18.139  0.00  0.00    +0.000 C 
BRANCH  16  17
ATOM     17  C   UNL     1       4.724   6.301  16.725  0.00  0.00    +0.000 C 
BRANCH  17  18
ATOM     18  C   UNL     1       5.863   5.285  16.802  0.00  0.00    +0.000 C 
BRANCH  18  21
ATOM     19  C   UNL     1       6.859   4.416  13.397  0.00  0.00    +0.000 A 
ATOM     20  C   UNL     1       5.916   4.213  14.424  0.00  0.00    +0.000 A 
ATOM     21  C   UNL     1       6.381   4.974  15.463  0.00  0.00    +0.000 A 
ATOM     22  O   UNL     1       7.552   5.560  15.106  0.00  0.00    +0.000 OA
ATOM     23  N   UNL     1       7.863   5.204  13.804  0.00  0.00    +0.000 NA
BRANCH  19  24
ATOM     24  C   UNL     1       6.821   3.867  12.018  0.00  0.00    +0.000 C 
BRANCH  24  26
ATOM     25  C   UNL     1       4.753   2.927  11.395  0.00  0.00    +0.000 C 
ATOM     26  O   UNL     1       6.029   2.674  11.963  0.00  0.00    +0.000 OA
ENDBRANCH  24  26
ENDBRANCH  19  24
ENDBRANCH  18  21
ENDBRANCH  17  18
ENDBRANCH  16  17
ENDBRANCH  15  16
ENDBRANCH   1  15
TORSDOF 8
ENDMDL
MODEL 5
REMARK VINA RESULT:      -7.0      2.982      4.487
REMARK  Name = 
REMARK  12 active torsions:
REMARK  status: ('A' for Active; 'I' for Inactive)
REMARK    1  A    between atoms: C_1  and  O_2
REMARK    2  A    between atoms: O_2  and  C_3
REMARK    3  A    between atoms: C_3  and  C_4
REMARK    4  A    between atoms: C_6  and  C_7
REMARK    5  A    between atoms: C_7  and  C_8
REMARK    6  A    between atoms: C_8  and  C_9
REMARK    7  A    between atoms: C_9  and  O_10
REMARK    8  A    between atoms: O_10  and  C_11
REMARK    9  A    between atoms: C_12  and  C_13
REMARK   10  A    between atoms: C_15  and  C_16
REMARK   11  A    between atoms: C_19  and  C_20
REMARK   12  A    between atoms: C_23  and  C_24
REMARK                            x       y       z     vdW  Elec       q    Type
REMARK                         _______ _______ _______ _____ _____    ______ ____
ROOT
ATOM      1  C   UNL     1       3.617   5.909  18.524  0.00  0.00    +0.000 A 
ATOM      2  C   UNL     1       3.680   6.960  17.578  0.00  0.00    +0.000 A 
ATOM      3  C   UNL     1       4.537   7.079  16.345  0.00  0.00    +0.000 C 
ATOM      4  C   UNL     1       2.914   8.120  17.824  0.00  0.00    +0.000 A 
ATOM      5  C   UNL     1       2.075   8.262  18.928  0.00  0.00    +0.000 A 
ATOM      6  C   UNL     1       1.989   7.206  19.832  0.00  0.00    +0.000 A 
ATOM      7  C   UNL     1       2.745   6.035  19.641  0.00  0.00    +0.000 A 
ATOM      8  C   UNL     1       2.600   4.921  20.648  0.00  0.00    +0.000 C 
ENDROOT
BRANCH   5   9
ATOM      9  C   UNL     1       1.322   9.490  19.115  0.00  0.00    +0.000 A 
ATOM     10  N   UNL     1       1.573  10.628  18.438  0.00  0.00    +0.000 NA
ATOM     11  O   UNL     1       0.636  11.529  18.930  0.00  0.00    +0.000 OA
ATOM     12  C   UNL     1      -0.094  10.849  19.857  0.00  0.00    +0.000 A 
ATOM     13  C   UNL     1      -1.166  11.598  20.531  0.00  0.00    +0.000 C 
ATOM     14  N   UNL     1       0.279   9.598  20.009  0.00  0.00    +0.000 NA
ENDBRANCH   5   9
BRANCH   1  15
ATOM     15  O   UNL     1       4.319   4.726  18.539  0.00  0.00    +0.000 OA
BRANCH  15  16
ATOM     16  C   UNL     1       5.532   4.691  19.259  0.00  0.00    +0.000 C 
BRANCH  16  17
ATOM     17  C   UNL     1       6.605   5.544  18.610  0.00  0.00    +0.000 C 
BRANCH  17  18
ATOM     18  C   UNL     1       7.515   4.629  17.791  0.00  0.00    +0.000 C 
BRANCH  18  21
ATOM     19  C   UNL     1       6.248   4.416  14.371  0.00  0.00    +0.000 A 
ATOM     20  C   UNL     1       6.219   3.854  15.663  0.00  0.00    +0.000 A 
ATOM     21  C   UNL     1       7.107   4.611  16.379  0.00  0.00    +0.000 A 
ATOM     22  O   UNL     1       7.671   5.539  15.565  0.00  0.00    +0.000 OA
ATOM     23  N   UNL     1       7.138   5.415  14.293  0.00  0.00    +0.000 NA
BRANCH  19  24
ATOM     24  C   UNL     1       5.433   4.017  13.196  0.00  0.00    +0.000 C 
BRANCH  24  26
ATOM     25  C   UNL     1       6.929   3.099  11.626  0.00  0.00    +0.000 C 
ATOM     26  O   UNL     1       5.942   2.815  12.605  0.00  0.00    +0.000 OA
ENDBRANCH  24  26
ENDBRANCH  19  24
ENDBRANCH  18  21
ENDBRANCH  17  18
ENDBRANCH  16  17
ENDBRANCH  15  16
ENDBRANCH   1  15
TORSDOF 8
ENDMDL
MODEL 6
REMARK VINA RESULT:      -7.0      2.374      3.891
REMARK  Name = 
REMARK  12 active torsions:
REMARK  status: ('A' for Active; 'I' for Inactive)
REMARK    1  A    between atoms: C_1  and  O_2
REMARK    2  A    between atoms: O_2  and  C_3
REMARK    3  A    between atoms: C_3  and  C_4
REMARK    4  A    between atoms: C_6  and  C_7
REMARK    5  A    between atoms: C_7  and  C_8
REMARK    6  A    between atoms: C_8  and  C_9
REMARK    7  A    between atoms: C_9  and  O_10
REMARK    8  A    between atoms: O_10  and  C_11
REMARK    9  A    between atoms: C_12  and  C_13
REMARK   10  A    between atoms: C_15  and  C_16
REMARK   11  A    between atoms: C_19  and  C_20
REMARK   12  A    between atoms: C_23  and  C_24
REMARK                            x       y       z     vdW  Elec       q    Type
REMARK                         _______ _______ _______ _____ _____    ______ ____
ROOT
ATOM      1  C   UNL     1       2.489   6.682  19.205  0.00  0.00    +0.000 A 
ATOM      2  C   UNL     1       2.248   8.012  18.785  0.00  0.00    +0.000 A 
ATOM      3  C   UNL     1       2.700   8.708  17.528  0.00  0.00    +0.000 C 
ATOM      4  C   UNL     1       1.565   8.873  19.670  0.00  0.00    +0.000 A 
ATOM      5  C   UNL     1       1.087   8.468  20.914  0.00  0.00    +0.000 A 
ATOM      6  C   UNL     1       1.293   7.146  21.302  0.00  0.00    +0.000 A 
ATOM      7  C   UNL     1       1.982   6.252  20.463  0.00  0.00    +0.000 A 
ATOM      8  C   UNL     1       2.164   4.829  20.932  0.00  0.00    +0.000 C 
ENDROOT
BRANCH   5   9
ATOM      9  C   UNL     1       0.397   9.416  21.772  0.00  0.00    +0.000 A 
ATOM     10  N   UNL     1       0.626   9.525  23.096  0.00  0.00    +0.000 NA
ATOM     11  O   UNL     1      -0.240  10.530  23.508  0.00  0.00    +0.000 OA
ATOM     12  C   UNL     1      -0.910  10.935  22.394  0.00  0.00    +0.000 A 
ATOM     13  C   UNL     1      -1.901  12.008  22.573  0.00  0.00    +0.000 C 
ATOM     14  N   UNL     1      -0.559  10.291  21.303  0.00  0.00    +0.000 NA
ENDBRANCH   5   9
BRANCH   1  15
ATOM     15  O   UNL     1       3.188   5.691  18.555  0.00  0.00    +0.000 OA
BRANCH  15  16
ATOM     16  C   UNL     1       4.525   5.960  18.192  0.00  0.00    +0.000 C 
BRANCH  16  17
ATOM     17  C   UNL     1       5.499   5.599  19.298  0.00  0.00    +0.000 C 
BRANCH  17  18
ATOM     18  C   UNL     1       6.905   5.549  18.701  0.00  0.00    +0.000 C 
BRANCH  18  21
ATOM     19  C   UNL     1       6.540   4.538  15.210  0.00  0.00    +0.000 A 
ATOM     20  C   UNL     1       6.279   4.205  16.554  0.00  0.00    +0.000 A 
ATOM     21  C   UNL     1       6.855   5.220  17.269  0.00  0.00    +0.000 A 
ATOM     22  O   UNL     1       7.465   6.085  16.419  0.00  0.00    +0.000 OA
ATOM     23  N   UNL     1       7.276   5.654  15.116  0.00  0.00    +0.000 NA
BRANCH  19  24
ATOM     24  C   UNL     1       6.095   3.806  13.997  0.00  0.00    +0.000 C 
BRANCH  24  26
ATOM     25  C   UNL     1       6.618   3.306  11.756  0.00  0.00    +0.000 C 
ATOM     26  O   UNL     1       6.923   4.126  12.873  0.00  0.00    +0.000 OA
ENDBRANCH  24  26
ENDBRANCH  19  24
ENDBRANCH  18  21
ENDBRANCH  17  18
ENDBRANCH  16  17
ENDBRANCH  15  16
ENDBRANCH   1  15
TORSDOF 8
ENDMDL
MODEL 7
REMARK VINA RESULT:      -6.9      2.592      3.841
REMARK  Name = 
REMARK  12 active torsions:
REMARK  status: ('A' for Active; 'I' for Inactive)
REMARK    1  A    between atoms: C_1  and  O_2
REMARK    2  A    between atoms: O_2  and  C_3
REMARK    3  A    between atoms: C_3  and  C_4
REMARK    4  A    between atoms: C_6  and  C_7
REMARK    5  A    between atoms: C_7  and  C_8
REMARK    6  A    between atoms: C_8  and  C_9
REMARK    7  A    between atoms: C_9  and  O_10
REMARK    8  A    between atoms: O_10  and  C_11
REMARK    9  A    between atoms: C_12  and  C_13
REMARK   10  A    between atoms: C_15  and  C_16
REMARK   11  A    between atoms: C_19  and  C_20
REMARK   12  A    between atoms: C_23  and  C_24
REMARK                            x       y       z     vdW  Elec       q    Type
REMARK                         _______ _______ _______ _____ _____    ______ ____
ROOT
ATOM      1  C   UNL     1       3.205   5.508  18.956  0.00  0.00    +0.000 A 
ATOM      2  C   UNL     1       2.500   5.406  20.179  0.00  0.00    +0.000 A 
ATOM      3  C   UNL     1       2.288   4.200  21.056  0.00  0.00    +0.000 C 
ATOM      4  C   UNL     1       1.812   6.547  20.644  0.00  0.00    +0.000 A 
ATOM      5  C   UNL     1       1.824   7.771  19.979  0.00  0.00    +0.000 A 
ATOM      6  C   UNL     1       2.553   7.873  18.796  0.00  0.00    +0.000 A 
ATOM      7  C   UNL     1       3.244   6.761  18.282  0.00  0.00    +0.000 A 
ATOM      8  C   UNL     1       4.027   6.935  17.004  0.00  0.00    +0.000 C 
ENDROOT
BRANCH   5   9
ATOM      9  C   UNL     1       1.084   8.899  20.518  0.00  0.00    +0.000 A 
ATOM     10  N   UNL     1       0.893  10.053  19.848  0.00  0.00    +0.000 NA
ATOM     11  O   UNL     1       0.155  10.837  20.726  0.00  0.00    +0.000 OA
ATOM     12  C   UNL     1      -0.032  10.082  21.844  0.00  0.00    +0.000 A 
ATOM     13  C   UNL     1      -0.798  10.701  22.938  0.00  0.00    +0.000 C 
ATOM     14  N   UNL     1       0.511   8.887  21.771  0.00  0.00    +0.000 NA
ENDBRANCH   5   9
BRANCH   1  15
ATOM     15  O   UNL     1       3.884   4.525  18.273  0.00  0.00    +0.000 OA
BRANCH  15  16
ATOM     16  C   UNL     1       5.092   4.053  18.830  0.00  0.00    +0.000 C 
BRANCH  16  17
ATOM     17  C   UNL     1       6.134   5.150  18.941  0.00  0.00    +0.000 C 
BRANCH  17  18
ATOM     18  C   UNL     1       7.337   4.756  18.084  0.00  0.00    +0.000 C 
BRANCH  18  21
ATOM     19  C   UNL     1       6.202   4.456  14.625  0.00  0.00    +0.000 A 
ATOM     20  C   UNL     1       6.196   3.876  15.909  0.00  0.00    +0.000 A 
ATOM     21  C   UNL     1       6.975   4.714  16.660  0.00  0.00    +0.000 A 
ATOM     22  O   UNL     1       7.459   5.709  15.874  0.00  0.00    +0.000 OA
ATOM     23  N   UNL     1       6.979   5.546  14.585  0.00  0.00    +0.000 NA
BRANCH  19  24
ATOM     24  C   UNL     1       5.470   3.987  13.421  0.00  0.00    +0.000 C 
BRANCH  24  26
ATOM     25  C   UNL     1       5.750   2.707  11.464  0.00  0.00    +0.000 C 
ATOM     26  O   UNL     1       6.136   2.870  12.819  0.00  0.00    +0.000 OA
ENDBRANCH  24  26
ENDBRANCH  19  24
ENDBRANCH  18  21
ENDBRANCH  17  18
ENDBRANCH  16  17
ENDBRANCH  15  16
ENDBRANCH   1  15
TORSDOF 8
ENDMDL
MODEL 8
REMARK VINA RESULT:      -6.9      2.411      4.092
REMARK  Name = 
REMARK  12 active torsions:
REMARK  status: ('A' for Active; 'I' for Inactive)
REMARK    1  A    between atoms: C_1  and  O_2
REMARK    2  A    between atoms: O_2  and  C_3
REMARK    3  A    between atoms: C_3  and  C_4
REMARK    4  A    between atoms: C_6  and  C_7
REMARK    5  A    between atoms: C_7  and  C_8
REMARK    6  A    between atoms: C_8  and  C_9
REMARK    7  A    between atoms: C_9  and  O_10
REMARK    8  A    between atoms: O_10  and  C_11
REMARK    9  A    between atoms: C_12  and  C_13
REMARK   10  A    between atoms: C_15  and  C_16
REMARK   11  A    between atoms: C_19  and  C_20
REMARK   12  A    between atoms: C_23  and  C_24
REMARK                            x       y       z     vdW  Elec       q    Type
REMARK                         _______ _______ _______ _____ _____    ______ ____
ROOT
ATOM      1  C   UNL     1       3.098   5.471  19.006  0.00  0.00    +0.000 A 
ATOM      2  C   UNL     1       3.063   6.711  18.325  0.00  0.00    +0.000 A 
ATOM      3  C   UNL     1       3.749   7.114  17.046  0.00  0.00    +0.000 C 
ATOM      4  C   UNL     1       2.369   7.781  18.931  0.00  0.00    +0.000 A 
ATOM      5  C   UNL     1       1.690   7.662  20.142  0.00  0.00    +0.000 A 
ATOM      6  C   UNL     1       1.696   6.427  20.785  0.00  0.00    +0.000 A 
ATOM      7  C   UNL     1       2.387   5.334  20.231  0.00  0.00    +0.000 A 
ATOM      8  C   UNL     1       2.347   4.017  20.967  0.00  0.00    +0.000 C 
ENDROOT
BRANCH   5   9
ATOM      9  C   UNL     1       1.003   8.812  20.706  0.00  0.00    +0.000 A 
ATOM     10  N   UNL     1       1.046  10.045  20.164  0.00  0.00    +0.000 NA
ATOM     11  O   UNL     1       0.270  10.818  21.018  0.00  0.00    +0.000 OA
ATOM     12  C   UNL     1      -0.171   9.979  21.995  0.00  0.00    +0.000 A 
ATOM     13  C   UNL     1      -1.026  10.570  23.037  0.00  0.00    +0.000 C 
ATOM     14  N   UNL     1       0.243   8.739  21.854  0.00  0.00    +0.000 NA
ENDBRANCH   5   9
BRANCH   1  15
ATOM     15  O   UNL     1       3.762   4.318  18.654  0.00  0.00    +0.000 OA
BRANCH  15  16
ATOM     16  C   UNL     1       5.083   4.153  19.122  0.00  0.00    +0.000 C 
BRANCH  16  17
ATOM     17  C   UNL     1       5.894   5.429  19.000  0.00  0.00    +0.000 C 
BRANCH  17  18
ATOM     18  C   UNL     1       7.201   5.099  18.279  0.00  0.00    +0.000 C 
BRANCH  18  21
ATOM     19  C   UNL     1       6.564   4.417  14.747  0.00  0.00    +0.000 A 
ATOM     20  C   UNL     1       6.850   3.860  16.010  0.00  0.00    +0.000 A 
ATOM     21  C   UNL     1       6.978   4.945  16.835  0.00  0.00    +0.000 A 
ATOM     22  O   UNL     1       6.827   6.084  16.111  0.00  0.00    +0.000 OA
ATOM     23  N   UNL     1       6.574   5.756  14.790  0.00  0.00    +0.000 NA
BRANCH  19  24
ATOM     24  C   UNL     1       6.278   3.689  13.485  0.00  0.00    +0.000 C 
BRANCH  24  26
ATOM     25  C   UNL     1       4.681   3.327  11.792  0.00  0.00    +0.000 C 
ATOM     26  O   UNL     1       4.926   3.906  13.064  0.00  0.00    +0.000 OA
ENDBRANCH  24  26
ENDBRANCH  19  24
ENDBRANCH  18  21
ENDBRANCH  17  18
ENDBRANCH  16  17
ENDBRANCH  15  16
ENDBRANCH   1  15
TORSDOF 8
ENDMDL
MODEL 9
REMARK VINA RESULT:      -6.8      2.981      8.372
REMARK  Name = 
REMARK  12 active torsions:
REMARK  status: ('A' for Active; 'I' for Inactive)
REMARK    1  A    between atoms: C_1  and  O_2
REMARK    2  A    between atoms: O_2  and  C_3
REMARK    3  A    between atoms: C_3  and  C_4
REMARK    4  A    between atoms: C_6  and  C_7
REMARK    5  A    between atoms: C_7  and  C_8
REMARK    6  A    between atoms: C_8  and  C_9
REMARK    7  A    between atoms: C_9  and  O_10
REMARK    8  A    between atoms: O_10  and  C_11
REMARK    9  A    between atoms: C_12  and  C_13
REMARK   10  A    between atoms: C_15  and  C_16
REMARK   11  A    between atoms: C_19  and  C_20
REMARK   12  A    between atoms: C_23  and  C_24
REMARK                            x       y       z     vdW  Elec       q    Type
REMARK                         _______ _______ _______ _____ _____    ______ ____
ROOT
ATOM      1  C   UNL     1       2.863   5.304  18.375  0.00  0.00    +0.000 A 
ATOM      2  C   UNL     1       3.367   6.473  17.758  0.00  0.00    +0.000 A 
ATOM      3  C   UNL     1       2.928   7.903  17.931  0.00  0.00    +0.000 C 
ATOM      4  C   UNL     1       4.364   6.324  16.770  0.00  0.00    +0.000 A 
ATOM      5  C   UNL     1       4.899   5.091  16.404  0.00  0.00    +0.000 A 
ATOM      6  C   UNL     1       4.426   3.949  17.046  0.00  0.00    +0.000 A 
ATOM      7  C   UNL     1       3.421   4.042  18.026  0.00  0.00    +0.000 A 
ATOM      8  C   UNL     1       2.957   2.772  18.695  0.00  0.00    +0.000 C 
ENDROOT
BRANCH   5   9
ATOM      9  C   UNL     1       5.920   5.018  15.374  0.00  0.00    +0.000 A 
ATOM     10  N   UNL     1       7.147   5.563  15.500  0.00  0.00    +0.000 NA
ATOM     11  O   UNL     1       7.776   5.264  14.299  0.00  0.00    +0.000 OA
ATOM     12  C   UNL     1       6.872   4.564  13.560  0.00  0.00    +0.000 A 
ATOM     13  C   UNL     1       7.309   4.126  12.224  0.00  0.00    +0.000 C 
ATOM     14  N   UNL     1       5.721   4.381  14.168  0.00  0.00    +0.000 NA
ENDBRANCH   5   9
BRANCH   1  15
ATOM     15  O   UNL     1       1.852   5.191  19.302  0.00  0.00    +0.000 OA
BRANCH  15  16
ATOM     16  C   UNL     1       2.059   5.768  20.573  0.00  0.00    +0.000 C 
BRANCH  16  17
ATOM     17  C   UNL     1       1.039   6.848  20.881  0.00  0.00    +0.000 C 
BRANCH  17  18
ATOM     18  C   UNL     1       1.788   8.091  21.360  0.00  0.00    +0.000 C 
BRANCH  18  21
ATOM     19  C   UNL     1      -0.468  10.920  20.864  0.00  0.00    +0.000 A 
ATOM     20  C   UNL     1       0.109   9.773  20.284  0.00  0.00    +0.000 A 
ATOM     21  C   UNL     1       0.940   9.287  21.257  0.00  0.00    +0.000 A 
ATOM     22  O   UNL     1       0.906  10.111  22.335  0.00  0.00    +0.000 OA
ATOM     23  N   UNL     1       0.023  11.149  22.089  0.00  0.00    +0.000 NA
BRANCH  19  24
ATOM     24  C   UNL     1      -1.493  11.814  20.266  0.00  0.00    +0.000 C 
BRANCH  24  26
ATOM     25  C   UNL     1      -1.203  14.149  20.174  0.00  0.00    +0.000 C 
ATOM     26  O   UNL     1      -1.579  13.048  20.987  0.00  0.00    +0.000 OA
ENDBRANCH  24  26
ENDBRANCH  19  24
ENDBRANCH  18  21
ENDBRANCH  17  18
ENDBRANCH  16  17
ENDBRANCH  15  16
ENDBRANCH   1  15
TORSDOF 8
ENDMDL
