MODEL 1
REMARK VINA RESULT:      -8.9      0.000      0.000
REMARK  Name = 
REMARK  9 active torsions:
REMARK  status: ('A' for Active; 'I' for Inactive)
REMARK    1  A    between atoms: C_1  and  O_2
REMARK    2  A    between atoms: O_2  and  C_3
REMARK    3  A    between atoms: C_3  and  C_4
REMARK    4  A    between atoms: C_7  and  C_8
REMARK    5  A    between atoms: C_10  and  C_11
REMARK    6  A    between atoms: C_16  and  C_17
REMARK    7  A    between atoms: C_20  and  C_21
REMARK    8  A    between atoms: C_27  and  C_28
REMARK    9  A    between atoms: C_30  and  C_31
REMARK                            x       y       z     vdW  Elec       q    Type
REMARK                         _______ _______ _______ _____ _____    ______ ____
ROOT
ATOM      1  C   UNL     1       4.375   5.652  18.102  0.00  0.00    +0.000 A 
ATOM      2  C   UNL     1       3.734   6.879  17.761  0.00  0.00    +0.000 A 
ATOM      3  C   UNL     1       2.653   7.377  18.488  0.00  0.00    +0.000 A 
ATOM      4  C   UNL     1       2.199   6.603  19.596  0.00  0.00    +0.000 A 
ATOM      5  C   UNL     1       1.057   6.933  20.531  0.00  0.00    +0.000 C 
ATOM      6  C   UNL     1       2.866   5.409  19.939  0.00  0.00    +0.000 A 
ATOM      7  C   UNL     1       3.961   4.901  19.230  0.00  0.00    +0.000 A 
ENDROOT
BRANCH   3   8
ATOM      8  C   UNL     1       2.133   8.762  18.290  0.00  0.00    +0.000 C 
ATOM      9  O   UNL     1       2.365   9.190  17.147  0.00  0.00    +0.000 OA
ATOM     10  N   UNL     1       1.418   9.614  19.191  0.00  0.00    +0.000 N 
ATOM     11  C   UNL     1       1.370  10.949  18.652  0.00  0.00    +0.000 C 
ATOM     12  C   UNL     1       0.531  12.032  19.273  0.00  0.00    +0.000 C 
ATOM     13  C   UNL     1      -0.465  11.722  20.374  0.00  0.00    +0.000 C 
ATOM     14  C   UNL     1       0.007  10.510  21.206  0.00  0.00    +0.000 C 
ATOM     15  C   UNL     1       0.851   9.378  20.529  0.00  0.00    +0.000 C 
BRANCH  13  16
ATOM     16  C   UNL     1      -1.900  11.875  19.831  0.00  0.00    +0.000 A 
ATOM     17  C   UNL     1      -2.907  12.577  20.494  0.00  0.00    +0.000 A 
ATOM     18  C   UNL     1      -4.215  12.601  19.988  0.00  0.00    +0.000 A 
ATOM     19  C   UNL     1      -4.551  11.930  18.795  0.00  0.00    +0.000 A 
ATOM     20  C   UNL     1      -3.567  11.235  18.113  0.00  0.00    +0.000 A 
ATOM     21  C   UNL     1      -2.255  11.242  18.614  0.00  0.00    +0.000 A 
BRANCH  19  22
ATOM     22  C   UNL     1      -5.932  11.952  18.318  0.00  0.00    +0.000 C 
ATOM     23  N   UNL     1      -7.021  11.999  17.928  0.00  0.00    +0.000 NA
ENDBRANCH  19  22
ENDBRANCH  13  16
ENDBRANCH   3   8
BRANCH   1  27
ATOM     24  C   UNL     1       6.602   4.711  15.424  0.00  0.00    +0.000 A 
ATOM     25  N   UNL     1       7.423   4.623  16.448  0.00  0.00    +0.000 NA
ATOM     26  N   UNL     1       6.714   4.955  17.581  0.00  0.00    +0.000 NA
ATOM     27  C   UNL     1       5.466   5.215  17.234  0.00  0.00    +0.000 A 
ATOM     28  N   UNL     1       5.372   5.086  15.877  0.00  0.00    +0.000 N 
ATOM     29  H   UNL     1       4.565   5.270  15.304  0.00  0.00    +0.000 HD
BRANCH  24  30
ATOM     30  C   UNL     1       6.872   4.476  13.990  0.00  0.00    +0.000 C 
BRANCH  30  32
ATOM     31  C   UNL     1       6.016   3.267  12.162  0.00  0.00    +0.000 C 
ATOM     32  O   UNL     1       5.778   3.704  13.493  0.00  0.00    +0.000 OA
ENDBRANCH  30  32
ENDBRANCH  24  30
ENDBRANCH   1  27
BRANCH   7  33
ATOM     33  C   UNL     1       4.529   3.569  19.710  0.00  0.00    +0.000 C 
ATOM     34  C   UNL     1       3.747   2.552  20.505  0.00  0.00    +0.000 C 
ATOM     35  C   UNL     1       4.035   2.284  19.063  0.00  0.00    +0.000 C 
ENDBRANCH   7  33
TORSDOF 7
ENDMDL
MODEL 2
REMARK VINA RESULT:      -8.8      2.603      3.957
REMARK  Name = 
REMARK  9 active torsions:
REMARK  status: ('A' for Active; 'I' for Inactive)
REMARK    1  A    between atoms: C_1  and  O_2
REMARK    2  A    between atoms: O_2  and  C_3
REMARK    3  A    between atoms: C_3  and  C_4
REMARK    4  A    between atoms: C_7  and  C_8
REMARK    5  A    between atoms: C_10  and  C_11
REMARK    6  A    between atoms: C_16  and  C_17
REMARK    7  A    between atoms: C_20  and  C_21
REMARK    8  A    between atoms: C_27  and  C_28
REMARK    9  A    between atoms: C_30  and  C_31
REMARK                            x       y       z     vdW  Elec       q    Type
REMARK                         _______ _______ _______ _____ _____    ______ ____
ROOT
ATOM      1  C   UNL     1       4.164   5.364  18.179  0.00  0.00    +0.000 A 
ATOM      2  C   UNL     1       3.526   6.570  18.593  0.00  0.00    +0.000 A 
ATOM      3  C   UNL     1       2.401   6.568  19.418  0.00  0.00    +0.000 A 
ATOM      4  C   UNL     1       1.898   5.299  19.832  0.00  0.00    +0.000 A 
ATOM      5  C   UNL     1       0.703   5.040  20.722  0.00  0.00    +0.000 C 
ATOM      6  C   UNL     1       2.561   4.119  19.440  0.00  0.00    +0.000 A 
ATOM      7  C   UNL     1       3.699   4.102  18.625  0.00  0.00    +0.000 A 
ENDROOT
BRANCH   3   8
ATOM      8  C   UNL     1       1.874   7.815  20.047  0.00  0.00    +0.000 C 
ATOM      9  O   UNL     1       2.186   7.900  21.247  0.00  0.00    +0.000 OA
ATOM     10  N   UNL     1       1.112   8.883  19.475  0.00  0.00    +0.000 N 
ATOM     11  C   UNL     1       0.605   9.726  20.527  0.00  0.00    +0.000 C 
ATOM     12  C   UNL     1      -0.078  11.035  20.243  0.00  0.00    +0.000 C 
ATOM     13  C   UNL     1      -0.084  11.633  18.849  0.00  0.00    +0.000 C 
ATOM     14  C   UNL     1      -0.031  10.518  17.781  0.00  0.00    +0.000 C 
ATOM     15  C   UNL     1       0.715   9.177  18.089  0.00  0.00    +0.000 C 
BRANCH  13  16
ATOM     16  C   UNL     1       0.817  12.884  18.819  0.00  0.00    +0.000 A 
ATOM     17  C   UNL     1       0.344  14.182  19.015  0.00  0.00    +0.000 A 
ATOM     18  C   UNL     1       1.203  15.284  18.886  0.00  0.00    +0.000 A 
ATOM     19  C   UNL     1       2.565  15.116  18.565  0.00  0.00    +0.000 A 
ATOM     20  C   UNL     1       3.061  13.838  18.376  0.00  0.00    +0.000 A 
ATOM     21  C   UNL     1       2.199  12.742  18.536  0.00  0.00    +0.000 A 
BRANCH  19  22
ATOM     22  C   UNL     1       3.420  16.291  18.407  0.00  0.00    +0.000 C 
ATOM     23  N   UNL     1       4.094  17.228  18.314  0.00  0.00    +0.000 NA
ENDBRANCH  19  22
ENDBRANCH  13  16
ENDBRANCH   3   8
BRANCH   1  27
ATOM     24  C   UNL     1       6.570   5.326  15.491  0.00  0.00    +0.000 A 
ATOM     25  N   UNL     1       7.189   6.115  16.343  0.00  0.00    +0.000 NA
ATOM     26  N   UNL     1       6.387   6.237  17.457  0.00  0.00    +0.000 NA
ATOM     27  C   UNL     1       5.305   5.499  17.277  0.00  0.00    +0.000 A 
ATOM     28  N   UNL     1       5.387   4.929  16.038  0.00  0.00    +0.000 N 
ATOM     29  H   UNL     1       4.694   4.355  15.588  0.00  0.00    +0.000 HD
BRANCH  24  30
ATOM     30  C   UNL     1       6.997   4.894  14.143  0.00  0.00    +0.000 C 
BRANCH  30  32
ATOM     31  C   UNL     1       6.209   3.457  12.455  0.00  0.00    +0.000 C 
ATOM     32  O   UNL     1       6.273   3.697  13.854  0.00  0.00    +0.000 OA
ENDBRANCH  30  32
ENDBRANCH  24  30
ENDBRANCH   1  27
BRANCH   7  33
ATOM     33  C   UNL     1       4.258   2.731  18.256  0.00  0.00    +0.000 C 
ATOM     34  C   UNL     1       3.678   1.423  18.737  0.00  0.00    +0.000 C 
ATOM     35  C   UNL     1       3.458   1.840  17.319  0.00  0.00    +0.000 C 
ENDBRANCH   7  33
TORSDOF 7
ENDMDL
MODEL 3
REMARK VINA RESULT:      -8.6      4.538     11.791
REMARK  Name = 
REMARK  9 active torsions:
REMARK  status: ('A' for Active; 'I' for Inactive)
REMARK    1  A    between atoms: C_1  and  O_2
REMARK    2  A    between atoms: O_2  and  C_3
REMARK    3  A    between atoms: C_3  and  C_4
REMARK    4  A    between atoms: C_7  and  C_8
REMARK    5  A    between atoms: C_10  and  C_11
REMARK    6  A    between atoms: C_16  and  C_17
REMARK    7  A    between atoms: C_20  and  C_21
REMARK    8  A    between atoms: C_27  and  C_28
REMARK    9  A    between atoms: C_30  and  C_31
REMARK                            x       y       z     vdW  Elec       q    Type
REMARK                         _______ _______ _______ _____ _____    ______ ____
ROOT
ATOM      1  C   UNL     1      -2.826  14.289  23.615  0.00  0.00    +0.000 A 
ATOM      2  C   UNL     1      -1.880  13.752  22.693  0.00  0.00    +0.000 A 
ATOM      3  C   UNL     1      -0.731  14.450  22.321  0.00  0.00    +0.000 A 
ATOM      4  C   UNL     1      -0.536  15.741  22.894  0.00  0.00    +0.000 A 
ATOM      5  C   UNL     1       0.624  16.680  22.650  0.00  0.00    +0.000 C 
ATOM      6  C   UNL     1      -1.466  16.241  23.829  0.00  0.00    +0.000 A 
ATOM      7  C   UNL     1      -2.616  15.549  24.225  0.00  0.00    +0.000 A 
ENDROOT
BRANCH   3   8
ATOM      8  C   UNL     1       0.376  13.807  21.552  0.00  0.00    +0.000 C 
ATOM      9  O   UNL     1       1.490  14.055  22.042  0.00  0.00    +0.000 OA
ATOM     10  N   UNL     1       0.325  12.966  20.395  0.00  0.00    +0.000 N 
ATOM     11  C   UNL     1       1.651  12.815  19.854  0.00  0.00    +0.000 C 
ATOM     12  C   UNL     1       1.958  11.843  18.748  0.00  0.00    +0.000 C 
ATOM     13  C   UNL     1       0.930  10.827  18.287  0.00  0.00    +0.000 C 
ATOM     14  C   UNL     1      -0.500  11.373  18.489  0.00  0.00    +0.000 C 
ATOM     15  C   UNL     1      -0.801  12.357  19.669  0.00  0.00    +0.000 C 
BRANCH  13  16
ATOM     16  C   UNL     1       1.372   9.414  18.718  0.00  0.00    +0.000 A 
ATOM     17  C   UNL     1       1.212   8.915  20.011  0.00  0.00    +0.000 A 
ATOM     18  C   UNL     1       1.718   7.654  20.359  0.00  0.00    +0.000 A 
ATOM     19  C   UNL     1       2.392   6.850  19.417  0.00  0.00    +0.000 A 
ATOM     20  C   UNL     1       2.554   7.318  18.125  0.00  0.00    +0.000 A 
ATOM     21  C   UNL     1       2.018   8.570  17.781  0.00  0.00    +0.000 A 
BRANCH  19  22
ATOM     22  C   UNL     1       2.933   5.556  19.828  0.00  0.00    +0.000 C 
ATOM     23  N   UNL     1       3.332   4.518  20.151  0.00  0.00    +0.000 NA
ENDBRANCH  19  22
ENDBRANCH  13  16
ENDBRANCH   3   8
BRANCH   1  27
ATOM     24  C   UNL     1      -6.065  12.709  23.788  0.00  0.00    +0.000 A 
ATOM     25  N   UNL     1      -5.377  11.912  24.577  0.00  0.00    +0.000 NA
ATOM     26  N   UNL     1      -4.085  12.386  24.625  0.00  0.00    +0.000 NA
ATOM     27  C   UNL     1      -4.012  13.480  23.887  0.00  0.00    +0.000 A 
ATOM     28  N   UNL     1      -5.242  13.696  23.333  0.00  0.00    +0.000 N 
ATOM     29  H   UNL     1      -5.495  14.418  22.680  0.00  0.00    +0.000 HD
BRANCH  24  30
ATOM     30  C   UNL     1      -7.487  12.627  23.392  0.00  0.00    +0.000 C 
BRANCH  30  32
ATOM     31  C   UNL     1      -7.892  11.269  21.515  0.00  0.00    +0.000 C 
ATOM     32  O   UNL     1      -7.701  11.296  22.922  0.00  0.00    +0.000 OA
ENDBRANCH  30  32
ENDBRANCH  24  30
ENDBRANCH   1  27
BRANCH   7  33
ATOM     33  C   UNL     1      -3.540  16.263  25.208  0.00  0.00    +0.000 C 
ATOM     34  C   UNL     1      -3.704  17.762  25.280  0.00  0.00    +0.000 C 
ATOM     35  C   UNL     1      -4.795  16.937  24.678  0.00  0.00    +0.000 C 
ENDBRANCH   7  33
TORSDOF 7
ENDMDL
MODEL 4
REMARK VINA RESULT:      -8.5      5.735     10.837
REMARK  Name = 
REMARK  9 active torsions:
REMARK  status: ('A' for Active; 'I' for Inactive)
REMARK    1  A    between atoms: C_1  and  O_2
REMARK    2  A    between atoms: O_2  and  C_3
REMARK    3  A    between atoms: C_3  and  C_4
REMARK    4  A    between atoms: C_7  and  C_8
REMARK    5  A    between atoms: C_10  and  C_11
REMARK    6  A    between atoms: C_16  and  C_17
REMARK    7  A    between atoms: C_20  and  C_21
REMARK    8  A    between atoms: C_27  and  C_28
REMARK    9  A    between atoms: C_30  and  C_31
REMARK                            x       y       z     vdW  Elec       q    Type
REMARK                         _______ _______ _______ _____ _____    ______ ____
ROOT
ATOM      1  C   UNL     1      -2.622  11.640  18.947  0.00  0.00    +0.000 A 
ATOM      2  C   UNL     1      -1.582  12.170  19.766  0.00  0.00    +0.000 A 
ATOM      3  C   UNL     1      -0.259  11.742  19.653  0.00  0.00    +0.000 A 
ATOM      4  C   UNL     1       0.021  10.735  18.682  0.00  0.00    +0.000 A 
ATOM      5  C   UNL     1       1.367  10.118  18.373  0.00  0.00    +0.000 C 
ATOM      6  C   UNL     1      -1.014  10.247  17.859  0.00  0.00    +0.000 A 
ATOM      7  C   UNL     1      -2.344  10.675  17.948  0.00  0.00    +0.000 A 
ENDROOT
BRANCH   3   8
ATOM      8  C   UNL     1       0.867  12.452  20.329  0.00  0.00    +0.000 C 
ATOM      9  O   UNL     1       1.185  11.909  21.401  0.00  0.00    +0.000 OA
ATOM     10  N   UNL     1       1.607  13.605  19.917  0.00  0.00    +0.000 N 
ATOM     11  C   UNL     1       2.406  14.080  21.018  0.00  0.00    +0.000 C 
ATOM     12  C   UNL     1       3.434  15.164  20.849  0.00  0.00    +0.000 C 
ATOM     13  C   UNL     1       3.827  15.670  19.474  0.00  0.00    +0.000 C 
ATOM     14  C   UNL     1       2.643  15.540  18.491  0.00  0.00    +0.000 C 
ATOM     15  C   UNL     1       1.604  14.382  18.667  0.00  0.00    +0.000 C 
BRANCH  13  16
ATOM     16  C   UNL     1       5.262  15.210  19.145  0.00  0.00    +0.000 A 
ATOM     17  C   UNL     1       5.655  14.743  17.890  0.00  0.00    +0.000 A 
ATOM     18  C   UNL     1       6.954  14.255  17.684  0.00  0.00    +0.000 A 
ATOM     19  C   UNL     1       7.901  14.229  18.727  0.00  0.00    +0.000 A 
ATOM     20  C   UNL     1       7.539  14.696  19.978  0.00  0.00    +0.000 A 
ATOM     21  C   UNL     1       6.245  15.209  20.166  0.00  0.00    +0.000 A 
BRANCH  19  22
ATOM     22  C   UNL     1       9.234  13.683  18.479  0.00  0.00    +0.000 C 
ATOM     23  N   UNL     1      10.282  13.247  18.252  0.00  0.00    +0.000 NA
ENDBRANCH  19  22
ENDBRANCH  13  16
ENDBRANCH   3   8
BRANCH   1  27
ATOM     24  C   UNL     1      -5.980  12.955  18.845  0.00  0.00    +0.000 A 
ATOM     25  N   UNL     1      -5.897  12.632  20.118  0.00  0.00    +0.000 NA
ATOM     26  N   UNL     1      -4.644  12.104  20.334  0.00  0.00    +0.000 NA
ATOM     27  C   UNL     1      -3.973  12.137  19.196  0.00  0.00    +0.000 A 
ATOM     28  N   UNL     1      -4.798  12.652  18.236  0.00  0.00    +0.000 N 
ATOM     29  H   UNL     1      -4.598  12.757  17.256  0.00  0.00    +0.000 HD
BRANCH  24  30
ATOM     30  C   UNL     1      -7.118  13.539  18.104  0.00  0.00    +0.000 C 
BRANCH  30  32
ATOM     31  C   UNL     1      -7.398  14.952  16.244  0.00  0.00    +0.000 C 
ATOM     32  O   UNL     1      -6.614  13.919  16.822  0.00  0.00    +0.000 OA
ENDBRANCH  30  32
ENDBRANCH  24  30
ENDBRANCH   1  27
BRANCH   7  33
ATOM     33  C   UNL     1      -3.344  10.002  17.012  0.00  0.00    +0.000 C 
ATOM     34  C   UNL     1      -3.932  10.659  15.787  0.00  0.00    +0.000 C 
ATOM     35  C   UNL     1      -2.890   9.602  15.617  0.00  0.00    +0.000 C 
ENDBRANCH   7  33
TORSDOF 7
ENDMDL
MODEL 5
REMARK VINA RESULT:      -8.3      5.697     10.945
REMARK  Name = 
REMARK  9 active torsions:
REMARK  status: ('A' for Active; 'I' for Inactive)
REMARK    1  A    between atoms: C_1  and  O_2
REMARK    2  A    between atoms: O_2  and  C_3
REMARK    3  A    between atoms: C_3  and  C_4
REMARK    4  A    between atoms: C_7  and  C_8
REMARK    5  A    between atoms: C_10  and  C_11
REMARK    6  A    between atoms: C_16  and  C_17
REMARK    7  A    between atoms: C_20  and  C_21
REMARK    8  A    between atoms: C_27  and  C_28
REMARK    9  A    between atoms: C_30  and  C_31
REMARK                            x       y       z     vdW  Elec       q    Type
REMARK                         _______ _______ _______ _____ _____    ______ ____
ROOT
ATOM      1  C   UNL     1      -2.529  11.508  18.793  0.00  0.00    +0.000 A 
ATOM      2  C   UNL     1      -1.501  11.990  19.657  0.00  0.00    +0.000 A 
ATOM      3  C   UNL     1      -0.183  11.546  19.558  0.00  0.00    +0.000 A 
ATOM      4  C   UNL     1       0.106  10.574  18.555  0.00  0.00    +0.000 A 
ATOM      5  C   UNL     1       1.450   9.948  18.253  0.00  0.00    +0.000 C 
ATOM      6  C   UNL     1      -0.915  10.134  17.689  0.00  0.00    +0.000 A 
ATOM      7  C   UNL     1      -2.240  10.579  17.763  0.00  0.00    +0.000 A 
ENDROOT
BRANCH   3   8
ATOM      8  C   UNL     1       0.937  12.211  20.288  0.00  0.00    +0.000 C 
ATOM      9  O   UNL     1       1.254  11.595  21.319  0.00  0.00    +0.000 OA
ATOM     10  N   UNL     1       1.672  13.395  19.963  0.00  0.00    +0.000 N 
ATOM     11  C   UNL     1       2.464  13.794  21.098  0.00  0.00    +0.000 C 
ATOM     12  C   UNL     1       3.487  14.893  21.012  0.00  0.00    +0.000 C 
ATOM     13  C   UNL     1       3.882  15.498  19.679  0.00  0.00    +0.000 C 
ATOM     14  C   UNL     1       2.703  15.433  18.684  0.00  0.00    +0.000 C 
ATOM     15  C   UNL     1       1.670  14.260  18.772  0.00  0.00    +0.000 C 
BRANCH  13  16
ATOM     16  C   UNL     1       5.321  15.071  19.323  0.00  0.00    +0.000 A 
ATOM     17  C   UNL     1       6.373  15.064  20.239  0.00  0.00    +0.000 A 
ATOM     18  C   UNL     1       7.677  14.751  19.827  0.00  0.00    +0.000 A 
ATOM     19  C   UNL     1       7.964  14.424  18.487  0.00  0.00    +0.000 A 
ATOM     20  C   UNL     1       6.935  14.413  17.561  0.00  0.00    +0.000 A 
ATOM     21  C   UNL     1       5.629  14.701  17.990  0.00  0.00    +0.000 A 
BRANCH  19  22
ATOM     22  C   UNL     1       9.340  14.135  18.092  0.00  0.00    +0.000 C 
ATOM     23  N   UNL     1      10.438  13.937  17.781  0.00  0.00    +0.000 NA
ENDBRANCH  19  22
ENDBRANCH  13  16
ENDBRANCH   3   8
BRANCH   1  27
ATOM     24  C   UNL     1      -5.520  13.363  19.585  0.00  0.00    +0.000 A 
ATOM     25  N   UNL     1      -6.052  12.283  19.055  0.00  0.00    +0.000 NA
ATOM     26  N   UNL     1      -5.021  11.445  18.691  0.00  0.00    +0.000 NA
ATOM     27  C   UNL     1      -3.878  12.016  19.029  0.00  0.00    +0.000 A 
ATOM     28  N   UNL     1      -4.163  13.234  19.578  0.00  0.00    +0.000 N 
ATOM     29  H   UNL     1      -3.504  13.930  19.885  0.00  0.00    +0.000 HD
BRANCH  24  30
ATOM     30  C   UNL     1      -6.191  14.568  20.116  0.00  0.00    +0.000 C 
BRANCH  30  32
ATOM     31  C   UNL     1      -7.151  13.634  22.050  0.00  0.00    +0.000 C 
ATOM     32  O   UNL     1      -6.126  14.475  21.539  0.00  0.00    +0.000 OA
ENDBRANCH  30  32
ENDBRANCH  24  30
ENDBRANCH   1  27
BRANCH   7  33
ATOM     33  C   UNL     1      -3.227   9.959  16.778  0.00  0.00    +0.000 C 
ATOM     34  C   UNL     1      -3.880  10.713  15.645  0.00  0.00    +0.000 C 
ATOM     35  C   UNL     1      -2.788   9.739  15.339  0.00  0.00    +0.000 C 
ENDBRANCH   7  33
TORSDOF 7
ENDMDL
MODEL 6
REMARK VINA RESULT:      -8.3      6.157     10.714
REMARK  Name = 
REMARK  9 active torsions:
REMARK  status: ('A' for Active; 'I' for Inactive)
REMARK    1  A    between atoms: C_1  and  O_2
REMARK    2  A    between atoms: O_2  and  C_3
REMARK    3  A    between atoms: C_3  and  C_4
REMARK    4  A    between atoms: C_7  and  C_8
REMARK    5  A    between atoms: C_10  and  C_11
REMARK    6  A    between atoms: C_16  and  C_17
REMARK    7  A    between atoms: C_20  and  C_21
REMARK    8  A    between atoms: C_27  and  C_28
REMARK    9  A    between atoms: C_30  and  C_31
REMARK                            x       y       z     vdW  Elec       q    Type
REMARK                         _______ _______ _______ _____ _____    ______ ____
ROOT
ATOM      1  C   UNL     1      -3.221  11.189  18.193  0.00  0.00    +0.000 A 
ATOM      2  C   UNL     1      -2.535  11.781  19.294  0.00  0.00    +0.000 A 
ATOM      3  C   UNL     1      -1.181  11.546  19.536  0.00  0.00    +0.000 A 
ATOM      4  C   UNL     1      -0.499  10.673  18.637  0.00  0.00    +0.000 A 
ATOM      5  C   UNL     1       0.958  10.271  18.689  0.00  0.00    +0.000 C 
ATOM      6  C   UNL     1      -1.186  10.124  17.536  0.00  0.00    +0.000 A 
ATOM      7  C   UNL     1      -2.540  10.360  17.269  0.00  0.00    +0.000 A 
ENDROOT
BRANCH   3   8
ATOM      8  C   UNL     1      -0.402  12.340  20.532  0.00  0.00    +0.000 C 
ATOM      9  O   UNL     1      -0.545  11.908  21.688  0.00  0.00    +0.000 OA
ATOM     10  N   UNL     1       0.463  13.464  20.338  0.00  0.00    +0.000 N 
ATOM     11  C   UNL     1       0.769  14.057  21.615  0.00  0.00    +0.000 C 
ATOM     12  C   UNL     1       1.800  15.141  21.765  0.00  0.00    +0.000 C 
ATOM     13  C   UNL     1       2.715  15.521  20.616  0.00  0.00    +0.000 C 
ATOM     14  C   UNL     1       2.015  15.275  19.262  0.00  0.00    +0.000 C 
ATOM     15  C   UNL     1       0.970  14.118  19.122  0.00  0.00    +0.000 C 
BRANCH  13  16
ATOM     16  C   UNL     1       4.154  15.062  20.928  0.00  0.00    +0.000 A 
ATOM     17  C   UNL     1       4.534  14.481  22.138  0.00  0.00    +0.000 A 
ATOM     18  C   UNL     1       5.879  14.169  22.390  0.00  0.00    +0.000 A 
ATOM     19  C   UNL     1       6.881  14.420  21.431  0.00  0.00    +0.000 A 
ATOM     20  C   UNL     1       6.527  14.985  20.219  0.00  0.00    +0.000 A 
ATOM     21  C   UNL     1       5.175  15.268  19.967  0.00  0.00    +0.000 A 
BRANCH  19  22
ATOM     22  C   UNL     1       8.274  14.110  21.745  0.00  0.00    +0.000 C 
ATOM     23  N   UNL     1       9.373  13.876  22.023  0.00  0.00    +0.000 NA
ENDBRANCH  19  22
ENDBRANCH  13  16
ENDBRANCH   3   8
BRANCH   1  27
ATOM     24  C   UNL     1      -6.526  12.472  17.523  0.00  0.00    +0.000 A 
ATOM     25  N   UNL     1      -6.835  11.335  18.109  0.00  0.00    +0.000 NA
ATOM     26  N   UNL     1      -5.656  10.703  18.441  0.00  0.00    +0.000 NA
ATOM     27  C   UNL     1      -4.649  11.477  18.076  0.00  0.00    +0.000 A 
ATOM     28  N   UNL     1      -5.169  12.590  17.478  0.00  0.00    +0.000 N 
ATOM     29  H   UNL     1      -4.658  13.342  17.047  0.00  0.00    +0.000 HD
BRANCH  24  30
ATOM     30  C   UNL     1      -7.423  13.505  16.964  0.00  0.00    +0.000 C 
BRANCH  30  32
ATOM     31  C   UNL     1      -6.932  15.754  17.450  0.00  0.00    +0.000 C 
ATOM     32  O   UNL     1      -6.600  14.628  16.649  0.00  0.00    +0.000 OA
ENDBRANCH  30  32
ENDBRANCH  24  30
ENDBRANCH   1  27
BRANCH   7  33
ATOM     33  C   UNL     1      -3.135   9.642  16.061  0.00  0.00    +0.000 C 
ATOM     34  C   UNL     1      -4.029  10.302  15.040  0.00  0.00    +0.000 C 
ATOM     35  C   UNL     1      -2.615   9.984  14.674  0.00  0.00    +0.000 C 
ENDBRANCH   7  33
TORSDOF 7
ENDMDL
MODEL 7
REMARK VINA RESULT:      -8.2      3.374      4.923
REMARK  Name = 
REMARK  9 active torsions:
REMARK  status: ('A' for Active; 'I' for Inactive)
REMARK    1  A    between atoms: C_1  and  O_2
REMARK    2  A    between atoms: O_2  and  C_3
REMARK    3  A    between atoms: C_3  and  C_4
REMARK    4  A    between atoms: C_7  and  C_8
REMARK    5  A    between atoms: C_10  and  C_11
REMARK    6  A    between atoms: C_16  and  C_17
REMARK    7  A    between atoms: C_20  and  C_21
REMARK    8  A    between atoms: C_27  and  C_28
REMARK    9  A    between atoms: C_30  and  C_31
REMARK                            x       y       z     vdW  Elec       q    Type
REMARK                         _______ _______ _______ _____ _____    ______ ____
ROOT
ATOM      1  C   UNL     1       2.854   5.513  19.592  0.00  0.00    +0.000 A 
ATOM      2  C   UNL     1       2.267   6.535  20.396  0.00  0.00    +0.000 A 
ATOM      3  C   UNL     1       2.061   7.828  19.915  0.00  0.00    +0.000 A 
ATOM      4  C   UNL     1       2.469   8.101  18.577  0.00  0.00    +0.000 A 
ATOM      5  C   UNL     1       2.347   9.414  17.836  0.00  0.00    +0.000 C 
ATOM      6  C   UNL     1       3.016   7.069  17.786  0.00  0.00    +0.000 A 
ATOM      7  C   UNL     1       3.217   5.763  18.246  0.00  0.00    +0.000 A 
ENDROOT
BRANCH   3   8
ATOM      8  C   UNL     1       1.238   8.830  20.657  0.00  0.00    +0.000 C 
ATOM      9  O   UNL     1       1.619   8.969  21.831  0.00  0.00    +0.000 OA
ATOM     10  N   UNL     1       0.137   9.628  20.210  0.00  0.00    +0.000 N 
ATOM     11  C   UNL     1      -0.504  10.237  21.346  0.00  0.00    +0.000 C 
ATOM     12  C   UNL     1      -1.577  11.280  21.194  0.00  0.00    +0.000 C 
ATOM     13  C   UNL     1      -1.894  11.892  19.843  0.00  0.00    +0.000 C 
ATOM     14  C   UNL     1      -1.602  10.883  18.710  0.00  0.00    +0.000 C 
ATOM     15  C   UNL     1      -0.457   9.829  18.879  0.00  0.00    +0.000 C 
BRANCH  13  16
ATOM     16  C   UNL     1      -1.425  13.360  19.818  0.00  0.00    +0.000 A 
ATOM     17  C   UNL     1      -2.003  14.369  20.589  0.00  0.00    +0.000 A 
ATOM     18  C   UNL     1      -1.587  15.702  20.450  0.00  0.00    +0.000 A 
ATOM     19  C   UNL     1      -0.572  16.062  19.542  0.00  0.00    +0.000 A 
ATOM     20  C   UNL     1       0.025  15.078  18.774  0.00  0.00    +0.000 A 
ATOM     21  C   UNL     1      -0.380  13.743  18.941  0.00  0.00    +0.000 A 
BRANCH  19  22
ATOM     22  C   UNL     1      -0.190  17.465  19.405  0.00  0.00    +0.000 C 
ATOM     23  N   UNL     1       0.139  18.568  19.279  0.00  0.00    +0.000 NA
ENDBRANCH  19  22
ENDBRANCH  13  16
ENDBRANCH   3   8
BRANCH   1  27
ATOM     24  C   UNL     1       3.956   2.279  20.750  0.00  0.00    +0.000 A 
ATOM     25  N   UNL     1       2.933   2.476  21.554  0.00  0.00    +0.000 NA
ATOM     26  N   UNL     1       2.381   3.697  21.236  0.00  0.00    +0.000 NA
ATOM     27  C   UNL     1       3.059   4.214  20.226  0.00  0.00    +0.000 A 
ATOM     28  N   UNL     1       4.069   3.348  19.912  0.00  0.00    +0.000 N 
ATOM     29  H   UNL     1       4.790   3.482  19.222  0.00  0.00    +0.000 HD
BRANCH  24  30
ATOM     30  C   UNL     1       4.889   1.135  20.693  0.00  0.00    +0.000 C 
BRANCH  30  32
ATOM     31  C   UNL     1       6.279  -0.072  22.159  0.00  0.00    +0.000 C 
ATOM     32  O   UNL     1       5.656   1.177  21.897  0.00  0.00    +0.000 OA
ENDBRANCH  30  32
ENDBRANCH  24  30
ENDBRANCH   1  27
BRANCH   7  33
ATOM     33  C   UNL     1       3.869   4.786  17.271  0.00  0.00    +0.000 C 
ATOM     34  C   UNL     1       4.702   5.204  16.084  0.00  0.00    +0.000 C 
ATOM     35  C   UNL     1       5.382   4.633  17.286  0.00  0.00    +0.000 C 
ENDBRANCH   7  33
TORSDOF 7
ENDMDL
MODEL 8
REMARK VINA RESULT:      -8.2      3.819     11.582
REMARK  Name = 
REMARK  9 active torsions:
REMARK  status: ('A' for Active; 'I' for Inactive)
REMARK    1  A    between atoms: C_1  and  O_2
REMARK    2  A    between atoms: O_2  and  C_3
REMARK    3  A    between atoms: C_3  and  C_4
REMARK    4  A    between atoms: C_7  and  C_8
REMARK    5  A    between atoms: C_10  and  C_11
REMARK    6  A    between atoms: C_16  and  C_17
REMARK    7  A    between atoms: C_20  and  C_21
REMARK    8  A    between atoms: C_27  and  C_28
REMARK    9  A    between atoms: C_30  and  C_31
REMARK                            x       y       z     vdW  Elec       q    Type
REMARK                         _______ _______ _______ _____ _____    ______ ____
ROOT
ATOM      1  C   UNL     1      -2.824  13.772  21.684  0.00  0.00    +0.000 A 
ATOM      2  C   UNL     1      -1.547  13.531  21.096  0.00  0.00    +0.000 A 
ATOM      3  C   UNL     1      -0.753  12.446  21.469  0.00  0.00    +0.000 A 
ATOM      4  C   UNL     1      -1.265  11.578  22.478  0.00  0.00    +0.000 A 
ATOM      5  C   UNL     1      -0.598  10.343  23.042  0.00  0.00    +0.000 C 
ATOM      6  C   UNL     1      -2.543  11.814  23.024  0.00  0.00    +0.000 A 
ATOM      7  C   UNL     1      -3.360  12.888  22.652  0.00  0.00    +0.000 A 
ENDROOT
BRANCH   3   8
ATOM      8  C   UNL     1       0.464  12.050  20.699  0.00  0.00    +0.000 C 
ATOM      9  O   UNL     1       1.496  12.567  21.160  0.00  0.00    +0.000 OA
ATOM     10  N   UNL     1       0.596  11.180  19.571  0.00  0.00    +0.000 N 
ATOM     11  C   UNL     1       1.915  11.322  19.009  0.00  0.00    +0.000 C 
ATOM     12  C   UNL     1       2.426  10.409  17.929  0.00  0.00    +0.000 C 
ATOM     13  C   UNL     1       1.657   9.166  17.520  0.00  0.00    +0.000 C 
ATOM     14  C   UNL     1       0.142   9.372  17.733  0.00  0.00    +0.000 C 
ATOM     15  C   UNL     1      -0.366  10.301  18.887  0.00  0.00    +0.000 C 
BRANCH  13  16
ATOM     16  C   UNL     1       2.420   7.910  17.987  0.00  0.00    +0.000 A 
ATOM     17  C   UNL     1       2.182   7.269  19.203  0.00  0.00    +0.000 A 
ATOM     18  C   UNL     1       2.974   6.184  19.607  0.00  0.00    +0.000 A 
ATOM     19  C   UNL     1       4.024   5.703  18.799  0.00  0.00    +0.000 A 
ATOM     20  C   UNL     1       4.273   6.315  17.584  0.00  0.00    +0.000 A 
ATOM     21  C   UNL     1       3.456   7.382  17.177  0.00  0.00    +0.000 A 
BRANCH  19  22
ATOM     22  C   UNL     1       4.847   4.591  19.270  0.00  0.00    +0.000 C 
ATOM     23  N   UNL     1       5.472   3.693  19.647  0.00  0.00    +0.000 NA
ENDBRANCH  19  22
ENDBRANCH  13  16
ENDBRANCH   3   8
BRANCH   1  27
ATOM     24  C   UNL     1      -5.014  16.257  20.254  0.00  0.00    +0.000 A 
ATOM     25  N   UNL     1      -4.261  17.023  21.014  0.00  0.00    +0.000 NA
ATOM     26  N   UNL     1      -3.345  16.212  21.647  0.00  0.00    +0.000 NA
ATOM     27  C   UNL     1      -3.536  14.968  21.242  0.00  0.00    +0.000 A 
ATOM     28  N   UNL     1      -4.594  14.966  20.377  0.00  0.00    +0.000 N 
ATOM     29  H   UNL     1      -5.017  14.165  19.939  0.00  0.00    +0.000 HD
BRANCH  24  30
ATOM     30  C   UNL     1      -6.150  16.634  19.387  0.00  0.00    +0.000 C 
BRANCH  30  32
ATOM     31  C   UNL     1      -7.855  18.148  19.965  0.00  0.00    +0.000 C 
ATOM     32  O   UNL     1      -6.468  17.990  19.703  0.00  0.00    +0.000 OA
ENDBRANCH  30  32
ENDBRANCH  24  30
ENDBRANCH   1  27
BRANCH   7  33
ATOM     33  C   UNL     1      -4.693  13.020  23.383  0.00  0.00    +0.000 C 
ATOM     34  C   UNL     1      -4.956  12.483  24.769  0.00  0.00    +0.000 C 
ATOM     35  C   UNL     1      -4.785  13.956  24.579  0.00  0.00    +0.000 C 
ENDBRANCH   7  33
TORSDOF 7
ENDMDL
MODEL 9
REMARK VINA RESULT:      -8.1      6.031     11.155
REMARK  Name = 
REMARK  9 active torsions:
REMARK  status: ('A' for Active; 'I' for Inactive)
REMARK    1  A    between atoms: C_1  and  O_2
REMARK    2  A    between atoms: O_2  and  C_3
REMARK    3  A    between atoms: C_3  and  C_4
REMARK    4  A    between atoms: C_7  and  C_8
REMARK    5  A    between atoms: C_10  and  C_11
REMARK    6  A    between atoms: C_16  and  C_17
REMARK    7  A    between atoms: C_20  and  C_21
REMARK    8  A    between atoms: C_27  and  C_28
REMARK    9  A    between atoms: C_30  and  C_31
REMARK                            x       y       z     vdW  Elec       q    Type
REMARK                         _______ _______ _______ _____ _____    ______ ____
ROOT
ATOM      1  C   UNL     1      -1.644  12.205  19.742  0.00  0.00    +0.000 A 
ATOM      2  C   UNL     1      -0.480  12.807  20.305  0.00  0.00    +0.000 A 
ATOM      3  C   UNL     1       0.805  12.472  19.879  0.00  0.00    +0.000 A 
ATOM      4  C   UNL     1       0.919  11.487  18.855  0.00  0.00    +0.000 A 
ATOM      5  C   UNL     1       2.194  10.964  18.230  0.00  0.00    +0.000 C 
ATOM      6  C   UNL     1      -0.244  10.927  18.287  0.00  0.00    +0.000 A 
ATOM      7  C   UNL     1      -1.542  11.262  18.690  0.00  0.00    +0.000 A 
ENDROOT
BRANCH   3   8
ATOM      8  C   UNL     1       2.008  13.259  20.286  0.00  0.00    +0.000 C 
ATOM      9  O   UNL     1       2.313  13.064  21.474  0.00  0.00    +0.000 OA
ATOM     10  N   UNL     1       2.828  14.147  19.520  0.00  0.00    +0.000 N 
ATOM     11  C   UNL     1       3.698  14.878  20.405  0.00  0.00    +0.000 C 
ATOM     12  C   UNL     1       4.807  15.754  19.891  0.00  0.00    +0.000 C 
ATOM     13  C   UNL     1       5.196  15.752  18.425  0.00  0.00    +0.000 C 
ATOM     14  C   UNL     1       3.975  15.419  17.541  0.00  0.00    +0.000 C 
ATOM     15  C   UNL     1       2.850  14.476  18.086  0.00  0.00    +0.000 C 
BRANCH  13  16
ATOM     16  C   UNL     1       6.577  15.085  18.258  0.00  0.00    +0.000 A 
ATOM     17  C   UNL     1       7.775  15.678  18.659  0.00  0.00    +0.000 A 
ATOM     18  C   UNL     1       9.004  15.055  18.396  0.00  0.00    +0.000 A 
ATOM     19  C   UNL     1       9.068  13.814  17.731  0.00  0.00    +0.000 A 
ATOM     20  C   UNL     1       7.893  13.201  17.333  0.00  0.00    +0.000 A 
ATOM     21  C   UNL     1       6.667  13.820  17.628  0.00  0.00    +0.000 A 
BRANCH  19  22
ATOM     22  C   UNL     1      10.370  13.214  17.447  0.00  0.00    +0.000 C 
ATOM     23  N   UNL     1      11.415  12.765  17.231  0.00  0.00    +0.000 NA
ENDBRANCH  19  22
ENDBRANCH  13  16
ENDBRANCH   3   8
BRANCH   1  27
ATOM     24  C   UNL     1      -5.013  13.288  20.445  0.00  0.00    +0.000 A 
ATOM     25  N   UNL     1      -4.617  12.964  21.658  0.00  0.00    +0.000 NA
ATOM     26  N   UNL     1      -3.316  12.521  21.567  0.00  0.00    +0.000 NA
ATOM     27  C   UNL     1      -2.930  12.607  20.306  0.00  0.00    +0.000 A 
ATOM     28  N   UNL     1      -3.987  13.071  19.575  0.00  0.00    +0.000 N 
ATOM     29  H   UNL     1      -4.027  13.195  18.577  0.00  0.00    +0.000 HD
BRANCH  24  30
ATOM     30  C   UNL     1      -6.327  13.798  20.000  0.00  0.00    +0.000 C 
BRANCH  30  32
ATOM     31  C   UNL     1      -7.308  11.690  19.639  0.00  0.00    +0.000 C 
ATOM     32  O   UNL     1      -7.301  12.856  20.451  0.00  0.00    +0.000 OA
ENDBRANCH  30  32
ENDBRANCH  24  30
ENDBRANCH   1  27
BRANCH   7  33
ATOM     33  C   UNL     1      -2.685  10.520  18.003  0.00  0.00    +0.000 C 
ATOM     34  C   UNL     1      -3.417  11.033  16.787  0.00  0.00    +0.000 C 
ATOM     35  C   UNL     1      -2.444   9.909  16.632  0.00  0.00    +0.000 C 
ENDBRANCH   7  33
TORSDOF 7
ENDMDL
