MODEL 1
REMARK VINA RESULT:      -6.4      0.000      0.000
REMARK  Name = 
REMARK  7 active torsions:
REMARK  status: ('A' for Active; 'I' for Inactive)
REMARK    1  A    between atoms: C_1  and  N_2
REMARK    2  A    between atoms: C_5  and  C_6
REMARK    3  A    between atoms: C_7  and  O_8
REMARK    4  A    between atoms: C_10  and  O_11
REMARK    5  A    between atoms: C_16  and  C_17
REMARK    6  A    between atoms: C_25  and  C_26
REMARK    7  A    between atoms: C_26  and  O_27
REMARK                            x       y       z     vdW  Elec       q    Type
REMARK                         _______ _______ _______ _____ _____    ______ ____
ROOT
ATOM      1  C   UNL     1      -2.232  11.930  19.295  0.00  0.00    +0.000 A 
ATOM      2  C   UNL     1      -1.651  11.454  18.106  0.00  0.00    +0.000 A 
ATOM      3  C   UNL     1      -2.419  11.166  16.978  0.00  0.00    +0.000 A 
ATOM      4  C   UNL     1      -3.801  11.327  17.013  0.00  0.00    +0.000 A 
ATOM      5  C   UNL     1      -4.423  11.779  18.180  0.00  0.00    +0.000 A 
ATOM      6  C   UNL     1      -5.895  11.951  18.267  0.00  0.00    +0.000 A 
ATOM      7  O   UNL     1      -6.678  11.773  17.348  0.00  0.00    +0.000 OA
ATOM      8  C   UNL     1      -6.428  12.371  19.572  0.00  0.00    +0.000 A 
ATOM      9  C   UNL     1      -5.581  12.622  20.572  0.00  0.00    +0.000 A 
ATOM     10  O   UNL     1      -4.209  12.524  20.490  0.00  0.00    +0.000 OA
ATOM     11  C   UNL     1      -3.642  12.078  19.311  0.00  0.00    +0.000 A 
ENDROOT
BRANCH   1  16
ATOM     12  C   UNL     1       1.075   9.829  21.775  0.00  0.00    +0.000 C 
ATOM     13  N   UNL     1       0.328  10.769  20.946  0.00  0.00    +0.000 NA
ATOM     14  C   UNL     1       0.995  12.072  20.857  0.00  0.00    +0.000 C 
ATOM     15  C   UNL     1      -0.059  12.943  20.188  0.00  0.00    +0.000 C 
ATOM     16  C   UNL     1      -1.412  12.288  20.535  0.00  0.00    +0.000 C 
ATOM     17  C   UNL     1      -1.054  11.056  21.405  0.00  0.00    +0.000 C 
BRANCH  17  18
ATOM     18  C   UNL     1      -1.251  11.371  22.912  0.00  0.00    +0.000 C 
BRANCH  18  19
ATOM     19  O   UNL     1      -2.514  11.973  23.185  0.00  0.00    +0.000 OA
ATOM     20  H   UNL     1      -2.594  12.077  24.149  0.00  0.00    +0.000 HD
ENDBRANCH  18  19
ENDBRANCH  17  18
ENDBRANCH   1  16
BRANCH   9  21
ATOM     21  C   UNL     1      -6.098  13.069  21.871  0.00  0.00    +0.000 A 
ATOM     22  C   UNL     1      -7.197  12.433  22.462  0.00  0.00    +0.000 A 
ATOM     23  C   UNL     1      -7.745  12.924  23.650  0.00  0.00    +0.000 A 
ATOM     24  C   UNL     1      -7.190  14.047  24.260  0.00  0.00    +0.000 A 
ATOM     25  C   UNL     1      -6.083  14.675  23.691  0.00  0.00    +0.000 A 
ATOM     26  C   UNL     1      -5.538  14.189  22.499  0.00  0.00    +0.000 A 
ENDBRANCH   9  21
BRANCH   2  27
ATOM     27  O   UNL     1      -0.310  11.233  17.943  0.00  0.00    +0.000 OA
ATOM     28  H   UNL     1       0.178  12.083  17.896  0.00  0.00    +0.000 HD
ENDBRANCH   2  27
BRANCH   4  29
ATOM     29  O   UNL     1      -4.524  11.023  15.896  0.00  0.00    +0.000 OA
ATOM     30  H   UNL     1      -5.446  10.836  16.130  0.00  0.00    +0.000 HD
ENDBRANCH   4  29
TORSDOF 6
ENDMDL
MODEL 2
REMARK VINA RESULT:      -6.3      6.849     10.163
REMARK  Name = 
REMARK  7 active torsions:
REMARK  status: ('A' for Active; 'I' for Inactive)
REMARK    1  A    between atoms: C_1  and  N_2
REMARK    2  A    between atoms: C_5  and  C_6
REMARK    3  A    between atoms: C_7  and  O_8
REMARK    4  A    between atoms: C_10  and  O_11
REMARK    5  A    between atoms: C_16  and  C_17
REMARK    6  A    between atoms: C_25  and  C_26
REMARK    7  A    between atoms: C_26  and  O_27
REMARK                            x       y       z     vdW  Elec       q    Type
REMARK                         _______ _______ _______ _____ _____    ______ ____
ROOT
ATOM      1  C   UNL     1       4.776   5.321  18.554  0.00  0.00    +0.000 A 
ATOM      2  C   UNL     1       5.370   4.048  18.619  0.00  0.00    +0.000 A 
ATOM      3  C   UNL     1       4.818   3.018  19.381  0.00  0.00    +0.000 A 
ATOM      4  C   UNL     1       3.660   3.238  20.121  0.00  0.00    +0.000 A 
ATOM      5  C   UNL     1       3.047   4.494  20.101  0.00  0.00    +0.000 A 
ATOM      6  C   UNL     1       1.818   4.778  20.885  0.00  0.00    +0.000 A 
ATOM      7  O   UNL     1       1.212   3.962  21.560  0.00  0.00    +0.000 OA
ATOM      8  C   UNL     1       1.311   6.158  20.828  0.00  0.00    +0.000 A 
ATOM      9  C   UNL     1       1.931   7.049  20.053  0.00  0.00    +0.000 A 
ATOM     10  O   UNL     1       3.036   6.786  19.273  0.00  0.00    +0.000 OA
ATOM     11  C   UNL     1       3.602   5.526  19.322  0.00  0.00    +0.000 A 
ENDROOT
BRANCH   1  16
ATOM     12  C   UNL     1       7.435   5.588  14.765  0.00  0.00    +0.000 C 
ATOM     13  N   UNL     1       6.334   5.701  15.715  0.00  0.00    +0.000 NA
ATOM     14  C   UNL     1       5.320   6.662  15.271  0.00  0.00    +0.000 C 
ATOM     15  C   UNL     1       4.434   6.808  16.500  0.00  0.00    +0.000 C 
ATOM     16  C   UNL     1       5.338   6.457  17.700  0.00  0.00    +0.000 C 
ATOM     17  C   UNL     1       6.722   6.129  17.082  0.00  0.00    +0.000 C 
BRANCH  17  18
ATOM     18  C   UNL     1       7.679   7.344  17.201  0.00  0.00    +0.000 C 
BRANCH  18  19
ATOM     19  O   UNL     1       8.248   7.469  18.502  0.00  0.00    +0.000 OA
ATOM     20  H   UNL     1       8.113   8.384  18.801  0.00  0.00    +0.000 HD
ENDBRANCH  18  19
ENDBRANCH  17  18
ENDBRANCH   1  16
BRANCH   9  21
ATOM     21  C   UNL     1       1.418   8.421  19.965  0.00  0.00    +0.000 A 
ATOM     22  C   UNL     1       0.785   9.021  21.061  0.00  0.00    +0.000 A 
ATOM     23  C   UNL     1       0.214  10.290  20.941  0.00  0.00    +0.000 A 
ATOM     24  C   UNL     1       0.280  10.971  19.727  0.00  0.00    +0.000 A 
ATOM     25  C   UNL     1       0.925  10.392  18.636  0.00  0.00    +0.000 A 
ATOM     26  C   UNL     1       1.492   9.120  18.753  0.00  0.00    +0.000 A 
ENDBRANCH   9  21
BRANCH   2  27
ATOM     27  O   UNL     1       6.518   3.703  17.958  0.00  0.00    +0.000 OA
ATOM     28  H   UNL     1       7.279   3.673  18.577  0.00  0.00    +0.000 HD
ENDBRANCH   2  27
BRANCH   4  29
ATOM     29  O   UNL     1       3.153   2.213  20.864  0.00  0.00    +0.000 OA
ATOM     30  H   UNL     1       3.512   1.365  20.560  0.00  0.00    +0.000 HD
ENDBRANCH   4  29
TORSDOF 6
ENDMDL
MODEL 3
REMARK VINA RESULT:      -6.3      7.087     10.191
REMARK  Name = 
REMARK  7 active torsions:
REMARK  status: ('A' for Active; 'I' for Inactive)
REMARK    1  A    between atoms: C_1  and  N_2
REMARK    2  A    between atoms: C_5  and  C_6
REMARK    3  A    between atoms: C_7  and  O_8
REMARK    4  A    between atoms: C_10  and  O_11
REMARK    5  A    between atoms: C_16  and  C_17
REMARK    6  A    between atoms: C_25  and  C_26
REMARK    7  A    between atoms: C_26  and  O_27
REMARK                            x       y       z     vdW  Elec       q    Type
REMARK                         _______ _______ _______ _____ _____    ______ ____
ROOT
ATOM      1  C   UNL     1       4.214   4.790  17.838  0.00  0.00    +0.000 A 
ATOM      2  C   UNL     1       4.535   3.474  17.461  0.00  0.00    +0.000 A 
ATOM      3  C   UNL     1       3.792   2.381  17.906  0.00  0.00    +0.000 A 
ATOM      4  C   UNL     1       2.711   2.572  18.762  0.00  0.00    +0.000 A 
ATOM      5  C   UNL     1       2.368   3.862  19.178  0.00  0.00    +0.000 A 
ATOM      6  C   UNL     1       1.232   4.111  20.101  0.00  0.00    +0.000 A 
ATOM      7  O   UNL     1       0.479   3.254  20.534  0.00  0.00    +0.000 OA
ATOM      8  C   UNL     1       1.019   5.507  20.512  0.00  0.00    +0.000 A 
ATOM      9  C   UNL     1       1.800   6.463  20.006  0.00  0.00    +0.000 A 
ATOM     10  O   UNL     1       2.820   6.255  19.103  0.00  0.00    +0.000 OA
ATOM     11  C   UNL     1       3.115   4.961  18.717  0.00  0.00    +0.000 A 
ENDROOT
BRANCH   1  16
ATOM     12  C   UNL     1       7.424   5.544  14.577  0.00  0.00    +0.000 C 
ATOM     13  N   UNL     1       6.206   5.578  15.379  0.00  0.00    +0.000 NA
ATOM     14  C   UNL     1       5.352   6.719  15.033  0.00  0.00    +0.000 C 
ATOM     15  C   UNL     1       4.307   6.703  16.140  0.00  0.00    +0.000 C 
ATOM     16  C   UNL     1       4.990   6.010  17.338  0.00  0.00    +0.000 C 
ATOM     17  C   UNL     1       6.419   5.665  16.846  0.00  0.00    +0.000 C 
BRANCH  17  18
ATOM     18  C   UNL     1       7.444   6.713  17.354  0.00  0.00    +0.000 C 
BRANCH  18  19
ATOM     19  O   UNL     1       7.870   6.459  18.690  0.00  0.00    +0.000 OA
ATOM     20  H   UNL     1       8.031   5.503  18.777  0.00  0.00    +0.000 HD
ENDBRANCH  18  19
ENDBRANCH  17  18
ENDBRANCH   1  16
BRANCH   9  21
ATOM     21  C   UNL     1       1.579   7.863  20.386  0.00  0.00    +0.000 A 
ATOM     22  C   UNL     1       1.391   8.220  21.727  0.00  0.00    +0.000 A 
ATOM     23  C   UNL     1       1.085   9.539  22.072  0.00  0.00    +0.000 A 
ATOM     24  C   UNL     1       0.974  10.510  21.079  0.00  0.00    +0.000 A 
ATOM     25  C   UNL     1       1.180  10.170  19.743  0.00  0.00    +0.000 A 
ATOM     26  C   UNL     1       1.480   8.849  19.396  0.00  0.00    +0.000 A 
ENDBRANCH   9  21
BRANCH   2  27
ATOM     27  O   UNL     1       5.581   3.145  16.642  0.00  0.00    +0.000 OA
ATOM     28  H   UNL     1       5.690   3.814  15.932  0.00  0.00    +0.000 HD
ENDBRANCH   2  27
BRANCH   4  29
ATOM     29  O   UNL     1       2.013   1.480  19.187  0.00  0.00    +0.000 OA
ATOM     30  H   UNL     1       1.176   1.403  18.703  0.00  0.00    +0.000 HD
ENDBRANCH   4  29
TORSDOF 6
ENDMDL
MODEL 4
REMARK VINA RESULT:      -6.2      2.038      2.594
REMARK  Name = 
REMARK  7 active torsions:
REMARK  status: ('A' for Active; 'I' for Inactive)
REMARK    1  A    between atoms: C_1  and  N_2
REMARK    2  A    between atoms: C_5  and  C_6
REMARK    3  A    between atoms: C_7  and  O_8
REMARK    4  A    between atoms: C_10  and  O_11
REMARK    5  A    between atoms: C_16  and  C_17
REMARK    6  A    between atoms: C_25  and  C_26
REMARK    7  A    between atoms: C_26  and  O_27
REMARK                            x       y       z     vdW  Elec       q    Type
REMARK                         _______ _______ _______ _____ _____    ______ ____
ROOT
ATOM      1  C   UNL     1      -1.876  11.358  18.906  0.00  0.00    +0.000 A 
ATOM      2  C   UNL     1      -2.140  10.671  17.707  0.00  0.00    +0.000 A 
ATOM      3  C   UNL     1      -3.407  10.673  17.124  0.00  0.00    +0.000 A 
ATOM      4  C   UNL     1      -4.459  11.350  17.736  0.00  0.00    +0.000 A 
ATOM      5  C   UNL     1      -4.246  12.030  18.939  0.00  0.00    +0.000 A 
ATOM      6  C   UNL     1      -5.341  12.753  19.634  0.00  0.00    +0.000 A 
ATOM      7  O   UNL     1      -6.481  12.867  19.217  0.00  0.00    +0.000 OA
ATOM      8  C   UNL     1      -4.999  13.371  20.924  0.00  0.00    +0.000 A 
ATOM      9  C   UNL     1      -3.743  13.301  21.369  0.00  0.00    +0.000 A 
ATOM     10  O   UNL     1      -2.703  12.686  20.707  0.00  0.00    +0.000 OA
ATOM     11  C   UNL     1      -2.963  12.033  19.517  0.00  0.00    +0.000 A 
ENDROOT
BRANCH   1  16
ATOM     12  C   UNL     1       1.807   8.542  18.990  0.00  0.00    +0.000 C 
ATOM     13  N   UNL     1       0.920   9.684  18.798  0.00  0.00    +0.000 NA
ATOM     14  C   UNL     1       1.663  10.916  18.515  0.00  0.00    +0.000 C 
ATOM     15  C   UNL     1       0.586  11.988  18.612  0.00  0.00    +0.000 C 
ATOM     16  C   UNL     1      -0.491  11.402  19.550  0.00  0.00    +0.000 C 
ATOM     17  C   UNL     1       0.041  10.001  19.951  0.00  0.00    +0.000 C 
BRANCH  17  18
ATOM     18  C   UNL     1       0.699  10.045  21.355  0.00  0.00    +0.000 C 
BRANCH  18  19
ATOM     19  O   UNL     1       0.372  11.229  22.078  0.00  0.00    +0.000 OA
ATOM     20  H   UNL     1       1.073  11.382  22.735  0.00  0.00    +0.000 HD
ENDBRANCH  18  19
ENDBRANCH  17  18
ENDBRANCH   1  16
BRANCH   9  21
ATOM     21  C   UNL     1      -3.383  13.940  22.640  0.00  0.00    +0.000 A 
ATOM     22  C   UNL     1      -4.330  14.672  23.367  0.00  0.00    +0.000 A 
ATOM     23  C   UNL     1      -3.957  15.358  24.526  0.00  0.00    +0.000 A 
ATOM     24  C   UNL     1      -2.637  15.306  24.971  0.00  0.00    +0.000 A 
ATOM     25  C   UNL     1      -1.692  14.562  24.266  0.00  0.00    +0.000 A 
ATOM     26  C   UNL     1      -2.062  13.882  23.103  0.00  0.00    +0.000 A 
ENDBRANCH   9  21
BRANCH   2  27
ATOM     27  O   UNL     1      -1.205   9.952  17.014  0.00  0.00    +0.000 OA
ATOM     28  H   UNL     1      -0.314  10.351  17.118  0.00  0.00    +0.000 HD
ENDBRANCH   2  27
BRANCH   4  29
ATOM     29  O   UNL     1      -5.687  11.322  17.145  0.00  0.00    +0.000 OA
ATOM     30  H   UNL     1      -5.601  11.387  16.181  0.00  0.00    +0.000 HD
ENDBRANCH   4  29
TORSDOF 6
ENDMDL
MODEL 5
REMARK VINA RESULT:      -6.2      0.675      1.131
REMARK  Name = 
REMARK  7 active torsions:
REMARK  status: ('A' for Active; 'I' for Inactive)
REMARK    1  A    between atoms: C_1  and  N_2
REMARK    2  A    between atoms: C_5  and  C_6
REMARK    3  A    between atoms: C_7  and  O_8
REMARK    4  A    between atoms: C_10  and  O_11
REMARK    5  A    between atoms: C_16  and  C_17
REMARK    6  A    between atoms: C_25  and  C_26
REMARK    7  A    between atoms: C_26  and  O_27
REMARK                            x       y       z     vdW  Elec       q    Type
REMARK                         _______ _______ _______ _____ _____    ______ ____
ROOT
ATOM      1  C   UNL     1      -1.977  11.521  19.062  0.00  0.00    +0.000 A 
ATOM      2  C   UNL     1      -1.485  10.829  17.942  0.00  0.00    +0.000 A 
ATOM      3  C   UNL     1      -2.293  10.548  16.840  0.00  0.00    +0.000 A 
ATOM      4  C   UNL     1      -3.630  10.935  16.835  0.00  0.00    +0.000 A 
ATOM      5  C   UNL     1      -4.166  11.609  17.937  0.00  0.00    +0.000 A 
ATOM      6  C   UNL     1      -5.590  12.028  17.981  0.00  0.00    +0.000 A 
ATOM      7  O   UNL     1      -6.393  11.881  17.075  0.00  0.00    +0.000 OA
ATOM      8  C   UNL     1      -6.043  12.670  19.224  0.00  0.00    +0.000 A 
ATOM      9  C   UNL     1      -5.164  12.887  20.204  0.00  0.00    +0.000 A 
ATOM     10  O   UNL     1      -3.827  12.558  20.155  0.00  0.00    +0.000 OA
ATOM     11  C   UNL     1      -3.344  11.899  19.040  0.00  0.00    +0.000 A 
ENDROOT
BRANCH   1  16
ATOM     12  C   UNL     1       1.083   9.240  21.695  0.00  0.00    +0.000 C 
ATOM     13  N   UNL     1       0.445  10.195  20.796  0.00  0.00    +0.000 NA
ATOM     14  C   UNL     1       1.261  11.398  20.603  0.00  0.00    +0.000 C 
ATOM     15  C   UNL     1       0.311  12.334  19.869  0.00  0.00    +0.000 C 
ATOM     16  C   UNL     1      -1.107  11.874  20.269  0.00  0.00    +0.000 C 
ATOM     17  C   UNL     1      -0.888  10.680  21.233  0.00  0.00    +0.000 C 
BRANCH  17  18
ATOM     18  C   UNL     1      -1.029  11.133  22.710  0.00  0.00    +0.000 C 
BRANCH  18  19
ATOM     19  O   UNL     1      -2.224  11.873  22.945  0.00  0.00    +0.000 OA
ATOM     20  H   UNL     1      -2.119  12.355  23.782  0.00  0.00    +0.000 HD
ENDBRANCH  18  19
ENDBRANCH  17  18
ENDBRANCH   1  16
BRANCH   9  21
ATOM     21  C   UNL     1      -5.598  13.553  21.438  0.00  0.00    +0.000 A 
ATOM     22  C   UNL     1      -4.697  14.311  22.197  0.00  0.00    +0.000 A 
ATOM     23  C   UNL     1      -5.090  14.862  23.420  0.00  0.00    +0.000 A 
ATOM     24  C   UNL     1      -6.389  14.667  23.885  0.00  0.00    +0.000 A 
ATOM     25  C   UNL     1      -7.299  13.932  23.128  0.00  0.00    +0.000 A 
ATOM     26  C   UNL     1      -6.905  13.375  21.908  0.00  0.00    +0.000 A 
ENDBRANCH   9  21
BRANCH   2  27
ATOM     27  O   UNL     1      -0.199  10.375  17.824  0.00  0.00    +0.000 OA
ATOM     28  H   UNL     1       0.386  10.820  18.475  0.00  0.00    +0.000 HD
ENDBRANCH   2  27
BRANCH   4  29
ATOM     29  O   UNL     1      -4.395  10.634  15.747  0.00  0.00    +0.000 OA
ATOM     30  H   UNL     1      -3.982  10.974  14.938  0.00  0.00    +0.000 HD
ENDBRANCH   4  29
TORSDOF 6
ENDMDL
MODEL 6
REMARK VINA RESULT:      -6.0      2.345      5.675
REMARK  Name = 
REMARK  7 active torsions:
REMARK  status: ('A' for Active; 'I' for Inactive)
REMARK    1  A    between atoms: C_1  and  N_2
REMARK    2  A    between atoms: C_5  and  C_6
REMARK    3  A    between atoms: C_7  and  O_8
REMARK    4  A    between atoms: C_10  and  O_11
REMARK    5  A    between atoms: C_16  and  C_17
REMARK    6  A    between atoms: C_25  and  C_26
REMARK    7  A    between atoms: C_26  and  O_27
REMARK                            x       y       z     vdW  Elec       q    Type
REMARK                         _______ _______ _______ _____ _____    ______ ____
ROOT
ATOM      1  C   UNL     1      -3.212  13.669  21.719  0.00  0.00    +0.000 A 
ATOM      2  C   UNL     1      -3.717  14.331  22.853  0.00  0.00    +0.000 A 
ATOM      3  C   UNL     1      -5.067  14.271  23.198  0.00  0.00    +0.000 A 
ATOM      4  C   UNL     1      -5.961  13.559  22.403  0.00  0.00    +0.000 A 
ATOM      5  C   UNL     1      -5.506  12.902  21.257  0.00  0.00    +0.000 A 
ATOM      6  C   UNL     1      -6.427  12.142  20.373  0.00  0.00    +0.000 A 
ATOM      7  O   UNL     1      -7.618  11.977  20.576  0.00  0.00    +0.000 OA
ATOM      8  C   UNL     1      -5.832  11.552  19.164  0.00  0.00    +0.000 A 
ATOM      9  C   UNL     1      -4.520  11.678  18.953  0.00  0.00    +0.000 A 
ATOM     10  O   UNL     1      -3.644  12.329  19.794  0.00  0.00    +0.000 OA
ATOM     11  C   UNL     1      -4.142  12.957  20.920  0.00  0.00    +0.000 A 
ENDROOT
BRANCH   1  16
ATOM     12  C   UNL     1       0.005  16.964  21.175  0.00  0.00    +0.000 C 
ATOM     13  N   UNL     1      -0.743  15.796  21.628  0.00  0.00    +0.000 NA
ATOM     14  C   UNL     1       0.086  14.890  22.430  0.00  0.00    +0.000 C 
ATOM     15  C   UNL     1      -0.797  13.657  22.563  0.00  0.00    +0.000 C 
ATOM     16  C   UNL     1      -1.733  13.689  21.336  0.00  0.00    +0.000 C 
ATOM     17  C   UNL     1      -1.323  14.960  20.548  0.00  0.00    +0.000 C 
BRANCH  17  18
ATOM     18  C   UNL     1      -0.398  14.595  19.358  0.00  0.00    +0.000 C 
BRANCH  18  19
ATOM     19  O   UNL     1      -0.942  13.565  18.536  0.00  0.00    +0.000 OA
ATOM     20  H   UNL     1      -1.530  13.982  17.883  0.00  0.00    +0.000 HD
ENDBRANCH  18  19
ENDBRANCH  17  18
ENDBRANCH   1  16
BRANCH   9  21
ATOM     21  C   UNL     1      -3.910  11.069  17.765  0.00  0.00    +0.000 A 
ATOM     22  C   UNL     1      -2.707  10.359  17.863  0.00  0.00    +0.000 A 
ATOM     23  C   UNL     1      -2.081   9.865  16.716  0.00  0.00    +0.000 A 
ATOM     24  C   UNL     1      -2.661  10.069  15.465  0.00  0.00    +0.000 A 
ATOM     25  C   UNL     1      -3.869  10.756  15.359  0.00  0.00    +0.000 A 
ATOM     26  C   UNL     1      -4.492  11.257  16.505  0.00  0.00    +0.000 A 
ENDBRANCH   9  21
BRANCH   2  27
ATOM     27  O   UNL     1      -2.953  15.080  23.707  0.00  0.00    +0.000 OA
ATOM     28  H   UNL     1      -2.061  14.685  23.811  0.00  0.00    +0.000 HD
ENDBRANCH   2  27
BRANCH   4  29
ATOM     29  O   UNL     1      -7.277  13.530  22.763  0.00  0.00    +0.000 OA
ATOM     30  H   UNL     1      -7.779  14.192  22.262  0.00  0.00    +0.000 HD
ENDBRANCH   4  29
TORSDOF 6
ENDMDL
MODEL 7
REMARK VINA RESULT:      -6.0      2.073      4.856
REMARK  Name = 
REMARK  7 active torsions:
REMARK  status: ('A' for Active; 'I' for Inactive)
REMARK    1  A    between atoms: C_1  and  N_2
REMARK    2  A    between atoms: C_5  and  C_6
REMARK    3  A    between atoms: C_7  and  O_8
REMARK    4  A    between atoms: C_10  and  O_11
REMARK    5  A    between atoms: C_16  and  C_17
REMARK    6  A    between atoms: C_25  and  C_26
REMARK    7  A    between atoms: C_26  and  O_27
REMARK                            x       y       z     vdW  Elec       q    Type
REMARK                         _______ _______ _______ _____ _____    ______ ____
ROOT
ATOM      1  C   UNL     1      -2.292  12.318  21.428  0.00  0.00    +0.000 A 
ATOM      2  C   UNL     1      -1.673  12.028  22.657  0.00  0.00    +0.000 A 
ATOM      3  C   UNL     1      -2.358  12.134  23.867  0.00  0.00    +0.000 A 
ATOM      4  C   UNL     1      -3.685  12.555  23.885  0.00  0.00    +0.000 A 
ATOM      5  C   UNL     1      -4.333  12.873  22.689  0.00  0.00    +0.000 A 
ATOM      6  C   UNL     1      -5.743  13.340  22.662  0.00  0.00    +0.000 A 
ATOM      7  O   UNL     1      -6.467  13.441  23.639  0.00  0.00    +0.000 OA
ATOM      8  C   UNL     1      -6.286  13.703  21.345  0.00  0.00    +0.000 A 
ATOM      9  C   UNL     1      -5.524  13.548  20.260  0.00  0.00    +0.000 A 
ATOM     10  O   UNL     1      -4.236  13.060  20.261  0.00  0.00    +0.000 OA
ATOM     11  C   UNL     1      -3.640  12.754  21.471  0.00  0.00    +0.000 A 
ENDROOT
BRANCH   1  16
ATOM     12  C   UNL     1       2.048  12.956  19.923  0.00  0.00    +0.000 C 
ATOM     13  N   UNL     1       0.754  12.375  20.266  0.00  0.00    +0.000 NA
ATOM     14  C   UNL     1       0.548  11.074  19.621  0.00  0.00    +0.000 C 
ATOM     15  C   UNL     1      -0.923  10.792  19.897  0.00  0.00    +0.000 C 
ATOM     16  C   UNL     1      -1.577  12.177  20.084  0.00  0.00    +0.000 C 
ATOM     17  C   UNL     1      -0.425  13.198  19.896  0.00  0.00    +0.000 C 
BRANCH  17  18
ATOM     18  C   UNL     1      -0.451  13.799  18.466  0.00  0.00    +0.000 C 
BRANCH  18  19
ATOM     19  O   UNL     1      -1.123  12.959  17.530  0.00  0.00    +0.000 OA
ATOM     20  H   UNL     1      -2.029  13.295  17.423  0.00  0.00    +0.000 HD
ENDBRANCH  18  19
ENDBRANCH  17  18
ENDBRANCH   1  16
BRANCH   9  21
ATOM     21  C   UNL     1      -6.064  13.880  18.936  0.00  0.00    +0.000 A 
ATOM     22  C   UNL     1      -6.527  15.171  18.654  0.00  0.00    +0.000 A 
ATOM     23  C   UNL     1      -7.128  15.456  17.425  0.00  0.00    +0.000 A 
ATOM     24  C   UNL     1      -7.261  14.452  16.467  0.00  0.00    +0.000 A 
ATOM     25  C   UNL     1      -6.786  13.168  16.730  0.00  0.00    +0.000 A 
ATOM     26  C   UNL     1      -6.190  12.881  17.961  0.00  0.00    +0.000 A 
ENDBRANCH   9  21
BRANCH   2  27
ATOM     27  O   UNL     1      -0.372  11.623  22.783  0.00  0.00    +0.000 OA
ATOM     28  H   UNL     1      -0.073  11.698  23.715  0.00  0.00    +0.000 HD
ENDBRANCH   2  27
BRANCH   4  29
ATOM     29  O   UNL     1      -4.321  12.660  25.087  0.00  0.00    +0.000 OA
ATOM     30  H   UNL     1      -4.401  13.591  25.348  0.00  0.00    +0.000 HD
ENDBRANCH   4  29
TORSDOF 6
ENDMDL
MODEL 8
REMARK VINA RESULT:      -5.9      2.217      5.133
REMARK  Name = 
REMARK  7 active torsions:
REMARK  status: ('A' for Active; 'I' for Inactive)
REMARK    1  A    between atoms: C_1  and  N_2
REMARK    2  A    between atoms: C_5  and  C_6
REMARK    3  A    between atoms: C_7  and  O_8
REMARK    4  A    between atoms: C_10  and  O_11
REMARK    5  A    between atoms: C_16  and  C_17
REMARK    6  A    between atoms: C_25  and  C_26
REMARK    7  A    between atoms: C_26  and  O_27
REMARK                            x       y       z     vdW  Elec       q    Type
REMARK                         _______ _______ _______ _____ _____    ______ ____
ROOT
ATOM      1  C   UNL     1      -3.563  11.748  18.610  0.00  0.00    +0.000 A 
ATOM      2  C   UNL     1      -3.325  11.105  17.382  0.00  0.00    +0.000 A 
ATOM      3  C   UNL     1      -2.120  10.455  17.115  0.00  0.00    +0.000 A 
ATOM      4  C   UNL     1      -1.104  10.446  18.067  0.00  0.00    +0.000 A 
ATOM      5  C   UNL     1      -1.291  11.089  19.294  0.00  0.00    +0.000 A 
ATOM      6  C   UNL     1      -0.230  11.116  20.333  0.00  0.00    +0.000 A 
ATOM      7  O   UNL     1       0.851  10.559  20.247  0.00  0.00    +0.000 OA
ATOM      8  C   UNL     1      -0.530  11.883  21.552  0.00  0.00    +0.000 A 
ATOM      9  C   UNL     1      -1.728  12.454  21.686  0.00  0.00    +0.000 A 
ATOM     10  O   UNL     1      -2.744  12.388  20.757  0.00  0.00    +0.000 OA
ATOM     11  C   UNL     1      -2.512  11.734  19.561  0.00  0.00    +0.000 A 
ENDROOT
BRANCH   1  16
ATOM     12  C   UNL     1      -7.530  10.461  20.637  0.00  0.00    +0.000 C 
ATOM     13  N   UNL     1      -6.277  11.133  20.308  0.00  0.00    +0.000 NA
ATOM     14  C   UNL     1      -6.117  12.390  21.047  0.00  0.00    +0.000 C 
ATOM     15  C   UNL     1      -4.911  13.025  20.369  0.00  0.00    +0.000 C 
ATOM     16  C   UNL     1      -4.886  12.438  18.943  0.00  0.00    +0.000 C 
ATOM     17  C   UNL     1      -6.106  11.484  18.876  0.00  0.00    +0.000 C 
BRANCH  17  18
ATOM     18  C   UNL     1      -7.302  12.169  18.165  0.00  0.00    +0.000 C 
BRANCH  18  19
ATOM     19  O   UNL     1      -7.013  12.510  16.812  0.00  0.00    +0.000 OA
ATOM     20  H   UNL     1      -6.896  13.474  16.764  0.00  0.00    +0.000 HD
ENDBRANCH  18  19
ENDBRANCH  17  18
ENDBRANCH   1  16
BRANCH   9  21
ATOM     21  C   UNL     1      -2.050  13.197  22.910  0.00  0.00    +0.000 A 
ATOM     22  C   UNL     1      -3.281  13.016  23.554  0.00  0.00    +0.000 A 
ATOM     23  C   UNL     1      -3.620  13.795  24.663  0.00  0.00    +0.000 A 
ATOM     24  C   UNL     1      -2.727  14.752  25.141  0.00  0.00    +0.000 A 
ATOM     25  C   UNL     1      -1.491  14.926  24.519  0.00  0.00    +0.000 A 
ATOM     26  C   UNL     1      -1.153  14.152  23.406  0.00  0.00    +0.000 A 
ENDBRANCH   9  21
BRANCH   2  27
ATOM     27  O   UNL     1      -4.228  11.055  16.355  0.00  0.00    +0.000 OA
ATOM     28  H   UNL     1      -4.129  10.222  15.846  0.00  0.00    +0.000 HD
ENDBRANCH   2  27
BRANCH   4  29
ATOM     29  O   UNL     1       0.066   9.811  17.770  0.00  0.00    +0.000 OA
ATOM     30  H   UNL     1      -0.004   8.863  17.962  0.00  0.00    +0.000 HD
ENDBRANCH   4  29
TORSDOF 6
ENDMDL
MODEL 9
REMARK VINA RESULT:      -5.9      4.753      7.569
REMARK  Name = 
REMARK  7 active torsions:
REMARK  status: ('A' for Active; 'I' for Inactive)
REMARK    1  A    between atoms: C_1  and  N_2
REMARK    2  A    between atoms: C_5  and  C_6
REMARK    3  A    between atoms: C_7  and  O_8
REMARK    4  A    between atoms: C_10  and  O_11
REMARK    5  A    between atoms: C_16  and  C_17
REMARK    6  A    between atoms: C_25  and  C_26
REMARK    7  A    between atoms: C_26  and  O_27
REMARK                            x       y       z     vdW  Elec       q    Type
REMARK                         _______ _______ _______ _____ _____    ______ ____
ROOT
ATOM      1  C   UNL     1       1.332  14.052  21.234  0.00  0.00    +0.000 A 
ATOM      2  C   UNL     1       0.818  15.173  21.908  0.00  0.00    +0.000 A 
ATOM      3  C   UNL     1      -0.277  15.075  22.768  0.00  0.00    +0.000 A 
ATOM      4  C   UNL     1      -0.904  13.848  22.964  0.00  0.00    +0.000 A 
ATOM      5  C   UNL     1      -0.438  12.711  22.298  0.00  0.00    +0.000 A 
ATOM      6  C   UNL     1      -1.085  11.385  22.466  0.00  0.00    +0.000 A 
ATOM      7  O   UNL     1      -2.021  11.150  23.213  0.00  0.00    +0.000 OA
ATOM      8  C   UNL     1      -0.538  10.284  21.659  0.00  0.00    +0.000 A 
ATOM      9  C   UNL     1       0.520  10.511  20.877  0.00  0.00    +0.000 A 
ATOM     10  O   UNL     1       1.168  11.721  20.756  0.00  0.00    +0.000 OA
ATOM     11  C   UNL     1       0.672  12.814  21.441  0.00  0.00    +0.000 A 
ENDROOT
BRANCH   1  16
ATOM     12  C   UNL     1       2.723  16.870  17.824  0.00  0.00    +0.000 C 
ATOM     13  N   UNL     1       2.636  16.108  19.065  0.00  0.00    +0.000 NA
ATOM     14  C   UNL     1       3.917  16.071  19.778  0.00  0.00    +0.000 C 
ATOM     15  C   UNL     1       3.665  15.037  20.866  0.00  0.00    +0.000 C 
ATOM     16  C   UNL     1       2.551  14.124  20.313  0.00  0.00    +0.000 C 
ATOM     17  C   UNL     1       2.222  14.692  18.908  0.00  0.00    +0.000 C 
BRANCH  17  18
ATOM     18  C   UNL     1       2.927  13.864  17.802  0.00  0.00    +0.000 C 
BRANCH  18  19
ATOM     19  O   UNL     1       2.178  12.714  17.416  0.00  0.00    +0.000 OA
ATOM     20  H   UNL     1       1.562  12.502  18.138  0.00  0.00    +0.000 HD
ENDBRANCH  18  19
ENDBRANCH  17  18
ENDBRANCH   1  16
BRANCH   9  21
ATOM     21  C   UNL     1       1.094   9.413  20.089  0.00  0.00    +0.000 A 
ATOM     22  C   UNL     1       1.487   8.219  20.706  0.00  0.00    +0.000 A 
ATOM     23  C   UNL     1       2.121   7.216  19.968  0.00  0.00    +0.000 A 
ATOM     24  C   UNL     1       2.356   7.399  18.606  0.00  0.00    +0.000 A 
ATOM     25  C   UNL     1       1.950   8.575  17.978  0.00  0.00    +0.000 A 
ATOM     26  C   UNL     1       1.321   9.581  18.718  0.00  0.00    +0.000 A 
ENDBRANCH   9  21
BRANCH   2  27
ATOM     27  O   UNL     1       1.326  16.439  21.791  0.00  0.00    +0.000 OA
ATOM     28  H   UNL     1       2.176  16.427  21.300  0.00  0.00    +0.000 HD
ENDBRANCH   2  27
BRANCH   4  29
ATOM     29  O   UNL     1      -1.979  13.789  23.801  0.00  0.00    +0.000 OA
ATOM     30  H   UNL     1      -2.015  14.580  24.361  0.00  0.00    +0.000 HD
ENDBRANCH   4  29
TORSDOF 6
ENDMDL
