MODEL 1
REMARK VINA RESULT:      -9.1      0.000      0.000
REMARK  Name = 
REMARK  5 active torsions:
REMARK  status: ('A' for Active; 'I' for Inactive)
REMARK    1  A    between atoms: C_9  and  O_10
REMARK    2  A    between atoms: O_10  and  C_11
REMARK    3  A    between atoms: C_11  and  C_12
REMARK    4  A    between atoms: N_18  and  C_19
REMARK    5  A    between atoms: C_29  and  O_30
REMARK                            x       y       z     vdW  Elec       q    Type
REMARK                         _______ _______ _______ _____ _____    ______ ____
ROOT
ATOM      1  O   UNL     1       7.649   9.367  17.613  0.00  0.00    +0.000 OA
ATOM      2  C   UNL     1       8.475   8.908  18.398  0.00  0.00    +0.000 C 
ATOM      3  N   UNL     1       8.493   7.624  18.878  0.00  0.00    +0.000 N 
ATOM      4  C   UNL     1       7.534   6.675  18.510  0.00  0.00    +0.000 A 
ATOM      5  C   UNL     1       7.156   6.522  17.180  0.00  0.00    +0.000 A 
ATOM      6  C   UNL     1       6.213   5.522  16.946  0.00  0.00    +0.000 A 
ATOM      7  N   UNL     1       5.643   5.054  15.794  0.00  0.00    +0.000 N 
ATOM      8  N   UNL     1       4.778   4.042  15.988  0.00  0.00    +0.000 NA
ATOM      9  C   UNL     1       4.779   3.893  17.314  0.00  0.00    +0.000 A 
ATOM     10  C   UNL     1       5.662   4.767  17.975  0.00  0.00    +0.000 A 
ATOM     11  C   UNL     1       6.086   5.001  19.282  0.00  0.00    +0.000 A 
ATOM     12  N   UNL     1       7.057   5.923  19.529  0.00  0.00    +0.000 NA
ATOM     13  N   UNL     1       9.469   9.673  18.961  0.00  0.00    +0.000 N 
ATOM     14  H   UNL     1       8.759   7.543  19.848  0.00  0.00    +0.000 HD
ATOM     15  H   UNL     1       5.819   5.368  14.845  0.00  0.00    +0.000 HD
ATOM     16  H   UNL     1      10.364   9.208  19.011  0.00  0.00    +0.000 HD
ENDROOT
BRANCH  13  17
ATOM     17  C   UNL     1       9.483  11.117  18.731  0.00  0.00    +0.000 C 
ATOM     18  C   UNL     1       9.181  11.924  19.983  0.00  0.00    +0.000 A 
ATOM     19  C   UNL     1       9.242  11.392  21.280  0.00  0.00    +0.000 A 
ATOM     20  C   UNL     1       8.980  12.194  22.394  0.00  0.00    +0.000 A 
ATOM     21  C   UNL     1       8.642  13.536  22.229  0.00  0.00    +0.000 A 
ATOM     22  C   UNL     1       8.581  14.082  20.950  0.00  0.00    +0.000 A 
ATOM     23  C   UNL     1       8.874  13.285  19.844  0.00  0.00    +0.000 A 
ATOM     24  O   UNL     1       8.808  13.863  18.604  0.00  0.00    +0.000 OA
ATOM     25  C   UNL     1      10.117  14.089  18.067  0.00  0.00    +0.000 C 
ATOM     26  C   UNL     1      10.630  12.896  17.265  0.00  0.00    +0.000 C 
ATOM     27  C   UNL     1      10.806  11.599  18.066  0.00  0.00    +0.000 C 
BRANCH  27  28
ATOM     28  O   UNL     1      11.879  11.730  19.010  0.00  0.00    +0.000 OA
ATOM     29  H   UNL     1      11.503  11.971  19.875  0.00  0.00    +0.000 HD
ENDBRANCH  27  28
ENDBRANCH  13  17
BRANCH   9  30
ATOM     30  O   UNL     1       4.017   2.938  17.888  0.00  0.00    +0.000 OA
BRANCH  30  31
ATOM     31  C   UNL     1       2.702   2.822  17.325  0.00  0.00    +0.000 C 
BRANCH  31  32
ATOM     32  C   UNL     1       1.642   3.515  18.171  0.00  0.00    +0.000 C 
ATOM     33  F   UNL     1       1.108   4.553  17.469  0.00  0.00    +0.000 F 
ATOM     34  F   UNL     1       0.617   2.658  18.417  0.00  0.00    +0.000 F 
ENDBRANCH  31  32
ENDBRANCH  30  31
ENDBRANCH   9  30
TORSDOF 5
ENDMDL
MODEL 2
REMARK VINA RESULT:      -8.6      0.964      1.021
REMARK  Name = 
REMARK  5 active torsions:
REMARK  status: ('A' for Active; 'I' for Inactive)
REMARK    1  A    between atoms: C_9  and  O_10
REMARK    2  A    between atoms: O_10  and  C_11
REMARK    3  A    between atoms: C_11  and  C_12
REMARK    4  A    between atoms: N_18  and  C_19
REMARK    5  A    between atoms: C_29  and  O_30
REMARK                            x       y       z     vdW  Elec       q    Type
REMARK                         _______ _______ _______ _____ _____    ______ ____
ROOT
ATOM      1  O   UNL     1       7.731   9.550  17.544  0.00  0.00    +0.000 OA
ATOM      2  C   UNL     1       8.532   9.074  18.344  0.00  0.00    +0.000 C 
ATOM      3  N   UNL     1       8.552   7.773  18.776  0.00  0.00    +0.000 N 
ATOM      4  C   UNL     1       7.625   6.825  18.333  0.00  0.00    +0.000 A 
ATOM      5  C   UNL     1       7.304   6.716  16.984  0.00  0.00    +0.000 A 
ATOM      6  C   UNL     1       6.388   5.711  16.674  0.00  0.00    +0.000 A 
ATOM      7  N   UNL     1       5.874   5.280  15.482  0.00  0.00    +0.000 N 
ATOM      8  N   UNL     1       5.020   4.247  15.602  0.00  0.00    +0.000 NA
ATOM      9  C   UNL     1       4.969   4.047  16.920  0.00  0.00    +0.000 A 
ATOM     10  C   UNL     1       5.810   4.909  17.650  0.00  0.00    +0.000 A 
ATOM     11  C   UNL     1       6.176   5.100  18.981  0.00  0.00    +0.000 A 
ATOM     12  N   UNL     1       7.120   6.027  19.303  0.00  0.00    +0.000 NA
ATOM     13  N   UNL     1       9.489   9.832  18.976  0.00  0.00    +0.000 N 
ATOM     14  H   UNL     1       8.780   7.660  19.753  0.00  0.00    +0.000 HD
ATOM     15  H   UNL     1       6.083   5.632  14.554  0.00  0.00    +0.000 HD
ATOM     16  H   UNL     1      10.389   9.379  19.046  0.00  0.00    +0.000 HD
ENDROOT
BRANCH  13  17
ATOM     17  C   UNL     1       9.488  11.284  18.801  0.00  0.00    +0.000 C 
ATOM     18  C   UNL     1       9.135  12.038  20.073  0.00  0.00    +0.000 A 
ATOM     19  C   UNL     1       9.164  11.458  21.351  0.00  0.00    +0.000 A 
ATOM     20  C   UNL     1       8.854  12.213  22.485  0.00  0.00    +0.000 A 
ATOM     21  C   UNL     1       8.501  13.555  22.360  0.00  0.00    +0.000 A 
ATOM     22  C   UNL     1       8.471  14.149  21.102  0.00  0.00    +0.000 A 
ATOM     23  C   UNL     1       8.810  13.399  19.976  0.00  0.00    +0.000 A 
ATOM     24  O   UNL     1       8.775  14.023  18.757  0.00  0.00    +0.000 OA
ATOM     25  C   UNL     1      10.096  14.288  18.271  0.00  0.00    +0.000 C 
ATOM     26  C   UNL     1      10.652  13.134  17.441  0.00  0.00    +0.000 C 
ATOM     27  C   UNL     1      10.823  11.810  18.198  0.00  0.00    +0.000 C 
BRANCH  27  28
ATOM     28  O   UNL     1      11.865  11.920  19.180  0.00  0.00    +0.000 OA
ATOM     29  H   UNL     1      11.543  12.475  19.911  0.00  0.00    +0.000 HD
ENDBRANCH  27  28
ENDBRANCH  13  17
BRANCH   9  30
ATOM     30  O   UNL     1       4.201   3.059  17.426  0.00  0.00    +0.000 OA
BRANCH  30  31
ATOM     31  C   UNL     1       3.004   3.521  18.071  0.00  0.00    +0.000 C 
BRANCH  31  32
ATOM     32  C   UNL     1       2.842   2.952  19.474  0.00  0.00    +0.000 C 
ATOM     33  F   UNL     1       4.044   2.975  20.115  0.00  0.00    +0.000 F 
ATOM     34  F   UNL     1       2.012   3.746  20.199  0.00  0.00    +0.000 F 
ENDBRANCH  31  32
ENDBRANCH  30  31
ENDBRANCH   9  30
TORSDOF 5
ENDMDL
MODEL 3
REMARK VINA RESULT:      -8.3      6.325      7.622
REMARK  Name = 
REMARK  5 active torsions:
REMARK  status: ('A' for Active; 'I' for Inactive)
REMARK    1  A    between atoms: C_9  and  O_10
REMARK    2  A    between atoms: O_10  and  C_11
REMARK    3  A    between atoms: C_11  and  C_12
REMARK    4  A    between atoms: N_18  and  C_19
REMARK    5  A    between atoms: C_29  and  O_30
REMARK                            x       y       z     vdW  Elec       q    Type
REMARK                         _______ _______ _______ _____ _____    ______ ____
ROOT
ATOM      1  O   UNL     1       1.549   9.125  19.757  0.00  0.00    +0.000 OA
ATOM      2  C   UNL     1       1.361   9.265  18.551  0.00  0.00    +0.000 C 
ATOM      3  N   UNL     1       1.955   8.527  17.559  0.00  0.00    +0.000 N 
ATOM      4  C   UNL     1       2.870   7.507  17.834  0.00  0.00    +0.000 A 
ATOM      5  C   UNL     1       2.618   6.570  18.831  0.00  0.00    +0.000 A 
ATOM      6  C   UNL     1       3.598   5.590  18.982  0.00  0.00    +0.000 A 
ATOM      7  N   UNL     1       3.681   4.501  19.805  0.00  0.00    +0.000 N 
ATOM      8  N   UNL     1       4.797   3.770  19.626  0.00  0.00    +0.000 NA
ATOM      9  C   UNL     1       5.454   4.446  18.682  0.00  0.00    +0.000 A 
ATOM     10  C   UNL     1       4.759   5.579  18.219  0.00  0.00    +0.000 A 
ATOM     11  C   UNL     1       4.938   6.568  17.254  0.00  0.00    +0.000 A 
ATOM     12  N   UNL     1       3.965   7.496  17.038  0.00  0.00    +0.000 NA
ATOM     13  N   UNL     1       0.562  10.257  18.035  0.00  0.00    +0.000 N 
ATOM     14  H   UNL     1       2.205   9.056  16.737  0.00  0.00    +0.000 HD
ATOM     15  H   UNL     1       3.002   4.190  20.491  0.00  0.00    +0.000 HD
ATOM     16  H   UNL     1      -0.022   9.955  17.268  0.00  0.00    +0.000 HD
ENDROOT
BRANCH  13  17
ATOM     17  C   UNL     1       0.009  11.274  18.929  0.00  0.00    +0.000 C 
ATOM     18  C   UNL     1       0.946  12.450  19.147  0.00  0.00    +0.000 A 
ATOM     19  C   UNL     1       2.047  12.727  18.321  0.00  0.00    +0.000 A 
ATOM     20  C   UNL     1       2.855  13.842  18.558  0.00  0.00    +0.000 A 
ATOM     21  C   UNL     1       2.583  14.691  19.629  0.00  0.00    +0.000 A 
ATOM     22  C   UNL     1       1.494  14.435  20.456  0.00  0.00    +0.000 A 
ATOM     23  C   UNL     1       0.672  13.339  20.197  0.00  0.00    +0.000 A 
ATOM     24  O   UNL     1      -0.394  13.126  21.031  0.00  0.00    +0.000 OA
ATOM     25  C   UNL     1      -1.628  13.476  20.393  0.00  0.00    +0.000 C 
ATOM     26  C   UNL     1      -2.243  12.302  19.635  0.00  0.00    +0.000 C 
ATOM     27  C   UNL     1      -1.398  11.763  18.474  0.00  0.00    +0.000 C 
BRANCH  27  28
ATOM     28  O   UNL     1      -1.328  12.723  17.410  0.00  0.00    +0.000 OA
ATOM     29  H   UNL     1      -0.546  12.525  16.866  0.00  0.00    +0.000 HD
ENDBRANCH  27  28
ENDBRANCH  13  17
BRANCH   9  30
ATOM     30  O   UNL     1       6.642   3.994  18.228  0.00  0.00    +0.000 OA
BRANCH  30  31
ATOM     31  C   UNL     1       7.611   5.027  17.998  0.00  0.00    +0.000 C 
BRANCH  31  32
ATOM     32  C   UNL     1       7.911   5.835  19.253  0.00  0.00    +0.000 C 
ATOM     33  F   UNL     1       8.839   5.179  20.004  0.00  0.00    +0.000 F 
ATOM     34  F   UNL     1       8.474   7.023  18.912  0.00  0.00    +0.000 F 
ENDBRANCH  31  32
ENDBRANCH  30  31
ENDBRANCH   9  30
TORSDOF 5
ENDMDL
MODEL 4
REMARK VINA RESULT:      -8.0      6.887      7.795
REMARK  Name = 
REMARK  5 active torsions:
REMARK  status: ('A' for Active; 'I' for Inactive)
REMARK    1  A    between atoms: C_9  and  O_10
REMARK    2  A    between atoms: O_10  and  C_11
REMARK    3  A    between atoms: C_11  and  C_12
REMARK    4  A    between atoms: N_18  and  C_19
REMARK    5  A    between atoms: C_29  and  O_30
REMARK                            x       y       z     vdW  Elec       q    Type
REMARK                         _______ _______ _______ _____ _____    ______ ____
ROOT
ATOM      1  O   UNL     1       1.019   9.380  18.929  0.00  0.00    +0.000 OA
ATOM      2  C   UNL     1       1.216   9.299  20.138  0.00  0.00    +0.000 C 
ATOM      3  N   UNL     1       1.649   8.181  20.804  0.00  0.00    +0.000 N 
ATOM      4  C   UNL     1       1.918   6.977  20.146  0.00  0.00    +0.000 A 
ATOM      5  C   UNL     1       2.650   6.958  18.963  0.00  0.00    +0.000 A 
ATOM      6  C   UNL     1       2.871   5.690  18.427  0.00  0.00    +0.000 A 
ATOM      7  N   UNL     1       3.568   5.272  17.326  0.00  0.00    +0.000 N 
ATOM      8  N   UNL     1       3.565   3.937  17.157  0.00  0.00    +0.000 NA
ATOM      9  C   UNL     1       2.810   3.505  18.168  0.00  0.00    +0.000 A 
ATOM     10  C   UNL     1       2.358   4.538  19.011  0.00  0.00    +0.000 A 
ATOM     11  C   UNL     1       1.619   4.652  20.187  0.00  0.00    +0.000 A 
ATOM     12  N   UNL     1       1.448   5.871  20.769  0.00  0.00    +0.000 NA
ATOM     13  N   UNL     1       0.946  10.332  21.004  0.00  0.00    +0.000 N 
ATOM     14  H   UNL     1       1.219   8.038  21.706  0.00  0.00    +0.000 HD
ATOM     15  H   UNL     1       4.083   5.845  16.666  0.00  0.00    +0.000 HD
ATOM     16  H   UNL     1       1.648  10.459  21.720  0.00  0.00    +0.000 HD
ENDROOT
BRANCH  13  17
ATOM     17  C   UNL     1       0.280  11.534  20.506  0.00  0.00    +0.000 C 
ATOM     18  C   UNL     1      -0.945  11.918  21.320  0.00  0.00    +0.000 A 
ATOM     19  C   UNL     1      -1.209  11.418  22.604  0.00  0.00    +0.000 A 
ATOM     20  C   UNL     1      -2.340  11.833  23.313  0.00  0.00    +0.000 A 
ATOM     21  C   UNL     1      -3.228  12.745  22.747  0.00  0.00    +0.000 A 
ATOM     22  C   UNL     1      -2.981  13.255  21.476  0.00  0.00    +0.000 A 
ATOM     23  C   UNL     1      -1.835  12.861  20.785  0.00  0.00    +0.000 A 
ATOM     24  O   UNL     1      -1.624  13.392  19.540  0.00  0.00    +0.000 OA
ATOM     25  C   UNL     1      -0.579  14.371  19.564  0.00  0.00    +0.000 C 
ATOM     26  C   UNL     1       0.797  13.758  19.316  0.00  0.00    +0.000 C 
ATOM     27  C   UNL     1       1.255  12.740  20.369  0.00  0.00    +0.000 C 
BRANCH  27  28
ATOM     28  O   UNL     1       1.507  13.388  21.624  0.00  0.00    +0.000 OA
ATOM     29  H   UNL     1       1.402  14.348  21.503  0.00  0.00    +0.000 HD
ENDBRANCH  27  28
ENDBRANCH  13  17
BRANCH   9  30
ATOM     30  O   UNL     1       2.588   2.184  18.330  0.00  0.00    +0.000 OA
BRANCH  30  31
ATOM     31  C   UNL     1       3.747   1.441  18.736  0.00  0.00    +0.000 C 
BRANCH  31  32
ATOM     32  C   UNL     1       4.398   2.015  19.988  0.00  0.00    +0.000 C 
ATOM     33  F   UNL     1       3.471   2.102  20.982  0.00  0.00    +0.000 F 
ATOM     34  F   UNL     1       5.357   1.165  20.439  0.00  0.00    +0.000 F 
ENDBRANCH  31  32
ENDBRANCH  30  31
ENDBRANCH   9  30
TORSDOF 5
ENDMDL
MODEL 5
REMARK VINA RESULT:      -8.0      7.297     10.091
REMARK  Name = 
REMARK  5 active torsions:
REMARK  status: ('A' for Active; 'I' for Inactive)
REMARK    1  A    between atoms: C_9  and  O_10
REMARK    2  A    between atoms: O_10  and  C_11
REMARK    3  A    between atoms: C_11  and  C_12
REMARK    4  A    between atoms: N_18  and  C_19
REMARK    5  A    between atoms: C_29  and  O_30
REMARK                            x       y       z     vdW  Elec       q    Type
REMARK                         _______ _______ _______ _____ _____    ______ ____
ROOT
ATOM      1  O   UNL     1       2.119   8.569  19.482  0.00  0.00    +0.000 OA
ATOM      2  C   UNL     1       2.040   8.594  18.257  0.00  0.00    +0.000 C 
ATOM      3  N   UNL     1       1.097   9.275  17.531  0.00  0.00    +0.000 N 
ATOM      4  C   UNL     1       0.093  10.036  18.138  0.00  0.00    +0.000 A 
ATOM      5  C   UNL     1       0.389  10.903  19.186  0.00  0.00    +0.000 A 
ATOM      6  C   UNL     1      -0.697  11.623  19.681  0.00  0.00    +0.000 A 
ATOM      7  N   UNL     1      -0.792  12.580  20.653  0.00  0.00    +0.000 N 
ATOM      8  N   UNL     1      -2.038  13.060  20.823  0.00  0.00    +0.000 NA
ATOM      9  C   UNL     1      -2.756  12.352  19.950  0.00  0.00    +0.000 A 
ATOM     10  C   UNL     1      -1.986  11.451  19.190  0.00  0.00    +0.000 A 
ATOM     11  C   UNL     1      -2.195  10.547  18.151  0.00  0.00    +0.000 A 
ATOM     12  N   UNL     1      -1.140   9.883  17.602  0.00  0.00    +0.000 NA
ATOM     13  N   UNL     1       2.870   7.858  17.445  0.00  0.00    +0.000 N 
ATOM     14  H   UNL     1       0.766   8.787  16.712  0.00  0.00    +0.000 HD
ATOM     15  H   UNL     1      -0.043  12.964  21.219  0.00  0.00    +0.000 HD
ATOM     16  H   UNL     1       3.185   8.356  16.624  0.00  0.00    +0.000 HD
ENDROOT
BRANCH  13  17
ATOM     17  C   UNL     1       3.804   6.907  18.044  0.00  0.00    +0.000 C 
ATOM     18  C   UNL     1       3.169   5.561  18.353  0.00  0.00    +0.000 A 
ATOM     19  C   UNL     1       1.947   5.137  17.808  0.00  0.00    +0.000 A 
ATOM     20  C   UNL     1       1.429   3.875  18.110  0.00  0.00    +0.000 A 
ATOM     21  C   UNL     1       2.118   3.022  18.970  0.00  0.00    +0.000 A 
ATOM     22  C   UNL     1       3.332   3.423  19.518  0.00  0.00    +0.000 A 
ATOM     23  C   UNL     1       3.860   4.670  19.188  0.00  0.00    +0.000 A 
ATOM     24  O   UNL     1       5.062   5.024  19.743  0.00  0.00    +0.000 OA
ATOM     25  C   UNL     1       6.117   4.961  18.777  0.00  0.00    +0.000 C 
ATOM     26  C   UNL     1       6.301   6.279  18.031  0.00  0.00    +0.000 C 
ATOM     27  C   UNL     1       5.096   6.727  17.193  0.00  0.00    +0.000 C 
BRANCH  27  28
ATOM     28  O   UNL     1       4.901   5.847  16.076  0.00  0.00    +0.000 OA
ATOM     29  H   UNL     1       4.705   6.385  15.290  0.00  0.00    +0.000 HD
ENDBRANCH  27  28
ENDBRANCH  13  17
BRANCH   9  30
ATOM     30  O   UNL     1      -4.082  12.573  19.828  0.00  0.00    +0.000 OA
BRANCH  30  31
ATOM     31  C   UNL     1      -4.754  12.801  21.075  0.00  0.00    +0.000 C 
BRANCH  31  32
ATOM     32  C   UNL     1      -6.229  12.424  21.021  0.00  0.00    +0.000 C 
ATOM     33  F   UNL     1      -6.363  11.201  20.437  0.00  0.00    +0.000 F 
ATOM     34  F   UNL     1      -6.718  12.296  22.282  0.00  0.00    +0.000 F 
ENDBRANCH  31  32
ENDBRANCH  30  31
ENDBRANCH   9  30
TORSDOF 5
ENDMDL
MODEL 6
REMARK VINA RESULT:      -7.9      6.230      7.529
REMARK  Name = 
REMARK  5 active torsions:
REMARK  status: ('A' for Active; 'I' for Inactive)
REMARK    1  A    between atoms: C_9  and  O_10
REMARK    2  A    between atoms: O_10  and  C_11
REMARK    3  A    between atoms: C_11  and  C_12
REMARK    4  A    between atoms: N_18  and  C_19
REMARK    5  A    between atoms: C_29  and  O_30
REMARK                            x       y       z     vdW  Elec       q    Type
REMARK                         _______ _______ _______ _____ _____    ______ ____
ROOT
ATOM      1  O   UNL     1       1.464   9.080  19.748  0.00  0.00    +0.000 OA
ATOM      2  C   UNL     1       1.352   9.264  18.539  0.00  0.00    +0.000 C 
ATOM      3  N   UNL     1       2.024   8.576  17.561  0.00  0.00    +0.000 N 
ATOM      4  C   UNL     1       2.940   7.562  17.856  0.00  0.00    +0.000 A 
ATOM      5  C   UNL     1       2.642   6.582  18.798  0.00  0.00    +0.000 A 
ATOM      6  C   UNL     1       3.629   5.614  18.976  0.00  0.00    +0.000 A 
ATOM      7  N   UNL     1       3.681   4.495  19.761  0.00  0.00    +0.000 N 
ATOM      8  N   UNL     1       4.820   3.792  19.629  0.00  0.00    +0.000 NA
ATOM      9  C   UNL     1       5.524   4.516  18.756  0.00  0.00    +0.000 A 
ATOM     10  C   UNL     1       4.838   5.654  18.292  0.00  0.00    +0.000 A 
ATOM     11  C   UNL     1       5.060   6.683  17.379  0.00  0.00    +0.000 A 
ATOM     12  N   UNL     1       4.085   7.602  17.135  0.00  0.00    +0.000 NA
ATOM     13  N   UNL     1       0.568  10.261  18.009  0.00  0.00    +0.000 N 
ATOM     14  H   UNL     1       2.317   9.141  16.778  0.00  0.00    +0.000 HD
ATOM     15  H   UNL     1       2.964   4.146  20.389  0.00  0.00    +0.000 HD
ATOM     16  H   UNL     1       0.043   9.979  17.194  0.00  0.00    +0.000 HD
ENDROOT
BRANCH  13  17
ATOM     17  C   UNL     1      -0.062  11.232  18.902  0.00  0.00    +0.000 C 
ATOM     18  C   UNL     1       0.818  12.437  19.191  0.00  0.00    +0.000 A 
ATOM     19  C   UNL     1       1.943  12.776  18.423  0.00  0.00    +0.000 A 
ATOM     20  C   UNL     1       2.696  13.914  18.724  0.00  0.00    +0.000 A 
ATOM     21  C   UNL     1       2.345  14.723  19.802  0.00  0.00    +0.000 A 
ATOM     22  C   UNL     1       1.231  14.405  20.573  0.00  0.00    +0.000 A 
ATOM     23  C   UNL     1       0.464  13.286  20.250  0.00  0.00    +0.000 A 
ATOM     24  O   UNL     1      -0.628  13.011  21.030  0.00  0.00    +0.000 OA
ATOM     25  C   UNL     1      -1.846  13.331  20.346  0.00  0.00    +0.000 C 
ATOM     26  C   UNL     1      -2.381  12.156  19.532  0.00  0.00    +0.000 C 
ATOM     27  C   UNL     1      -1.465  11.679  18.397  0.00  0.00    +0.000 C 
BRANCH  27  28
ATOM     28  O   UNL     1      -1.386  12.670  17.361  0.00  0.00    +0.000 OA
ATOM     29  H   UNL     1      -1.082  13.506  17.755  0.00  0.00    +0.000 HD
ENDBRANCH  27  28
ENDBRANCH  13  17
BRANCH   9  30
ATOM     30  O   UNL     1       6.748   4.103  18.366  0.00  0.00    +0.000 OA
BRANCH  30  31
ATOM     31  C   UNL     1       7.327   4.898  17.321  0.00  0.00    +0.000 C 
BRANCH  31  32
ATOM     32  C   UNL     1       7.216   4.236  15.954  0.00  0.00    +0.000 C 
ATOM     33  F   UNL     1       6.059   3.520  15.890  0.00  0.00    +0.000 F 
ATOM     34  F   UNL     1       7.125   5.187  14.989  0.00  0.00    +0.000 F 
ENDBRANCH  31  32
ENDBRANCH  30  31
ENDBRANCH   9  30
TORSDOF 5
ENDMDL
MODEL 7
REMARK VINA RESULT:      -7.8      7.137     10.288
REMARK  Name = 
REMARK  5 active torsions:
REMARK  status: ('A' for Active; 'I' for Inactive)
REMARK    1  A    between atoms: C_9  and  O_10
REMARK    2  A    between atoms: O_10  and  C_11
REMARK    3  A    between atoms: C_11  and  C_12
REMARK    4  A    between atoms: N_18  and  C_19
REMARK    5  A    between atoms: C_29  and  O_30
REMARK                            x       y       z     vdW  Elec       q    Type
REMARK                         _______ _______ _______ _____ _____    ______ ____
ROOT
ATOM      1  O   UNL     1       1.721   6.871  20.072  0.00  0.00    +0.000 OA
ATOM      2  C   UNL     1       2.206   7.584  19.197  0.00  0.00    +0.000 C 
ATOM      3  N   UNL     1       1.890   8.899  18.974  0.00  0.00    +0.000 N 
ATOM      4  C   UNL     1       0.947   9.583  19.748  0.00  0.00    +0.000 A 
ATOM      5  C   UNL     1       0.952   9.479  21.135  0.00  0.00    +0.000 A 
ATOM      6  C   UNL     1      -0.022  10.235  21.787  0.00  0.00    +0.000 A 
ATOM      7  N   UNL     1      -0.296  10.422  23.114  0.00  0.00    +0.000 N 
ATOM      8  N   UNL     1      -1.322  11.262  23.342  0.00  0.00    +0.000 NA
ATOM      9  C   UNL     1      -1.728  11.585  22.114  0.00  0.00    +0.000 A 
ATOM     10  C   UNL     1      -0.953  10.998  21.095  0.00  0.00    +0.000 A 
ATOM     11  C   UNL     1      -0.896  11.030  19.703  0.00  0.00    +0.000 A 
ATOM     12  N   UNL     1       0.088  10.357  19.045  0.00  0.00    +0.000 NA
ATOM     13  N   UNL     1       3.096   7.111  18.263  0.00  0.00    +0.000 N 
ATOM     14  H   UNL     1       1.848   9.160  17.999  0.00  0.00    +0.000 HD
ATOM     15  H   UNL     1       0.192  10.024  23.909  0.00  0.00    +0.000 HD
ATOM     16  H   UNL     1       3.858   7.745  18.067  0.00  0.00    +0.000 HD
ENDROOT
BRANCH  13  17
ATOM     17  C   UNL     1       3.394   5.680  18.212  0.00  0.00    +0.000 C 
ATOM     18  C   UNL     1       4.284   5.298  17.041  0.00  0.00    +0.000 A 
ATOM     19  C   UNL     1       5.037   6.226  16.305  0.00  0.00    +0.000 A 
ATOM     20  C   UNL     1       5.859   5.806  15.255  0.00  0.00    +0.000 A 
ATOM     21  C   UNL     1       5.932   4.457  14.917  0.00  0.00    +0.000 A 
ATOM     22  C   UNL     1       5.196   3.521  15.638  0.00  0.00    +0.000 A 
ATOM     23  C   UNL     1       4.401   3.941  16.704  0.00  0.00    +0.000 A 
ATOM     24  O   UNL     1       3.698   2.988  17.392  0.00  0.00    +0.000 OA
ATOM     25  C   UNL     1       4.284   2.736  18.675  0.00  0.00    +0.000 C 
ATOM     26  C   UNL     1       3.720   3.650  19.760  0.00  0.00    +0.000 C 
ATOM     27  C   UNL     1       3.982   5.147  19.551  0.00  0.00    +0.000 C 
BRANCH  27  28
ATOM     28  O   UNL     1       5.379   5.442  19.694  0.00  0.00    +0.000 OA
ATOM     29  H   UNL     1       5.708   5.796  18.850  0.00  0.00    +0.000 HD
ENDBRANCH  27  28
ENDBRANCH  13  17
BRANCH   9  30
ATOM     30  O   UNL     1      -2.758  12.441  21.944  0.00  0.00    +0.000 OA
BRANCH  30  31
ATOM     31  C   UNL     1      -3.095  13.191  23.121  0.00  0.00    +0.000 C 
BRANCH  31  32
ATOM     32  C   UNL     1      -4.474  12.836  23.662  0.00  0.00    +0.000 C 
ATOM     33  F   UNL     1      -4.340  12.049  24.765  0.00  0.00    +0.000 F 
ATOM     34  F   UNL     1      -5.108  13.963  24.079  0.00  0.00    +0.000 F 
ENDBRANCH  31  32
ENDBRANCH  30  31
ENDBRANCH   9  30
TORSDOF 5
ENDMDL
MODEL 8
REMARK VINA RESULT:      -7.8      6.522      7.630
REMARK  Name = 
REMARK  5 active torsions:
REMARK  status: ('A' for Active; 'I' for Inactive)
REMARK    1  A    between atoms: C_9  and  O_10
REMARK    2  A    between atoms: O_10  and  C_11
REMARK    3  A    between atoms: C_11  and  C_12
REMARK    4  A    between atoms: N_18  and  C_19
REMARK    5  A    between atoms: C_29  and  O_30
REMARK                            x       y       z     vdW  Elec       q    Type
REMARK                         _______ _______ _______ _____ _____    ______ ____
ROOT
ATOM      1  O   UNL     1       2.167   9.543  17.964  0.00  0.00    +0.000 OA
ATOM      2  C   UNL     1       1.845   8.851  18.926  0.00  0.00    +0.000 C 
ATOM      3  N   UNL     1       2.264   7.567  19.162  0.00  0.00    +0.000 N 
ATOM      4  C   UNL     1       3.130   6.893  18.296  0.00  0.00    +0.000 A 
ATOM      5  C   UNL     1       4.265   7.519  17.790  0.00  0.00    +0.000 A 
ATOM      6  C   UNL     1       5.058   6.726  16.962  0.00  0.00    +0.000 A 
ATOM      7  N   UNL     1       6.245   6.969  16.328  0.00  0.00    +0.000 N 
ATOM      8  N   UNL     1       6.711   5.918  15.628  0.00  0.00    +0.000 NA
ATOM      9  C   UNL     1       5.763   4.995  15.800  0.00  0.00    +0.000 A 
ATOM     10  C   UNL     1       4.712   5.421  16.635  0.00  0.00    +0.000 A 
ATOM     11  C   UNL     1       3.547   4.878  17.172  0.00  0.00    +0.000 A 
ATOM     12  N   UNL     1       2.791   5.608  18.039  0.00  0.00    +0.000 NA
ATOM     13  N   UNL     1       0.940   9.271  19.872  0.00  0.00    +0.000 N 
ATOM     14  H   UNL     1       1.555   6.959  19.546  0.00  0.00    +0.000 HD
ATOM     15  H   UNL     1       6.797   7.820  16.353  0.00  0.00    +0.000 HD
ATOM     16  H   UNL     1       1.198   9.033  20.819  0.00  0.00    +0.000 HD
ENDROOT
BRANCH  13  17
ATOM     17  C   UNL     1       0.225  10.531  19.675  0.00  0.00    +0.000 C 
ATOM     18  C   UNL     1      -0.610  10.937  20.878  0.00  0.00    +0.000 A 
ATOM     19  C   UNL     1      -0.445  10.385  22.158  0.00  0.00    +0.000 A 
ATOM     20  C   UNL     1      -1.227  10.821  23.231  0.00  0.00    +0.000 A 
ATOM     21  C   UNL     1      -2.193  11.808  23.039  0.00  0.00    +0.000 A 
ATOM     22  C   UNL     1      -2.369  12.370  21.778  0.00  0.00    +0.000 A 
ATOM     23  C   UNL     1      -1.565  11.953  20.718  0.00  0.00    +0.000 A 
ATOM     24  O   UNL     1      -1.765  12.536  19.495  0.00  0.00    +0.000 OA
ATOM     25  C   UNL     1      -0.712  13.455  19.181  0.00  0.00    +0.000 C 
ATOM     26  C   UNL     1       0.446  12.784  18.448  0.00  0.00    +0.000 C 
ATOM     27  C   UNL     1       1.172  11.689  19.242  0.00  0.00    +0.000 C 
BRANCH  27  28
ATOM     28  O   UNL     1       1.888  12.257  20.348  0.00  0.00    +0.000 OA
ATOM     29  H   UNL     1       2.346  13.058  20.041  0.00  0.00    +0.000 HD
ENDBRANCH  27  28
ENDBRANCH  13  17
BRANCH   9  30
ATOM     30  O   UNL     1       5.896   3.776  15.237  0.00  0.00    +0.000 OA
BRANCH  30  31
ATOM     31  C   UNL     1       6.624   3.779  14.000  0.00  0.00    +0.000 C 
BRANCH  31  32
ATOM     32  C   UNL     1       5.783   3.289  12.828  0.00  0.00    +0.000 C 
ATOM     33  F   UNL     1       4.613   3.986  12.787  0.00  0.00    +0.000 F 
ATOM     34  F   UNL     1       6.423   3.557  11.660  0.00  0.00    +0.000 F 
ENDBRANCH  31  32
ENDBRANCH  30  31
ENDBRANCH   9  30
TORSDOF 5
ENDMDL
MODEL 9
REMARK VINA RESULT:      -7.7      7.066      9.958
REMARK  Name = 
REMARK  5 active torsions:
REMARK  status: ('A' for Active; 'I' for Inactive)
REMARK    1  A    between atoms: C_9  and  O_10
REMARK    2  A    between atoms: O_10  and  C_11
REMARK    3  A    between atoms: C_11  and  C_12
REMARK    4  A    between atoms: N_18  and  C_19
REMARK    5  A    between atoms: C_29  and  O_30
REMARK                            x       y       z     vdW  Elec       q    Type
REMARK                         _______ _______ _______ _____ _____    ______ ____
ROOT
ATOM      1  O   UNL     1       1.801   8.548  19.434  0.00  0.00    +0.000 OA
ATOM      2  C   UNL     1       1.841   8.609  18.208  0.00  0.00    +0.000 C 
ATOM      3  N   UNL     1       0.961   9.300  17.414  0.00  0.00    +0.000 N 
ATOM      4  C   UNL     1      -0.110  10.027  17.944  0.00  0.00    +0.000 A 
ATOM      5  C   UNL     1       0.068  10.865  19.040  0.00  0.00    +0.000 A 
ATOM      6  C   UNL     1      -1.074  11.553  19.449  0.00  0.00    +0.000 A 
ATOM      7  N   UNL     1      -1.279  12.478  20.435  0.00  0.00    +0.000 N 
ATOM      8  N   UNL     1      -2.543  12.934  20.497  0.00  0.00    +0.000 NA
ATOM      9  C   UNL     1      -3.162  12.243  19.538  0.00  0.00    +0.000 A 
ATOM     10  C   UNL     1      -2.305  11.378  18.830  0.00  0.00    +0.000 A 
ATOM     11  C   UNL     1      -2.397  10.503  17.749  0.00  0.00    +0.000 A 
ATOM     12  N   UNL     1      -1.283   9.872  17.286  0.00  0.00    +0.000 NA
ATOM     13  N   UNL     1       2.758   7.912  17.459  0.00  0.00    +0.000 N 
ATOM     14  H   UNL     1       0.719   8.833  16.553  0.00  0.00    +0.000 HD
ATOM     15  H   UNL     1      -0.594  12.854  21.082  0.00  0.00    +0.000 HD
ATOM     16  H   UNL     1       3.143   8.440  16.688  0.00  0.00    +0.000 HD
ENDROOT
BRANCH  13  17
ATOM     17  C   UNL     1       3.647   6.955  18.117  0.00  0.00    +0.000 C 
ATOM     18  C   UNL     1       2.988   5.611  18.379  0.00  0.00    +0.000 A 
ATOM     19  C   UNL     1       1.805   5.193  17.750  0.00  0.00    +0.000 A 
ATOM     20  C   UNL     1       1.263   3.932  18.013  0.00  0.00    +0.000 A 
ATOM     21  C   UNL     1       1.889   3.074  18.915  0.00  0.00    +0.000 A 
ATOM     22  C   UNL     1       3.065   3.469  19.545  0.00  0.00    +0.000 A 
ATOM     23  C   UNL     1       3.618   4.716  19.256  0.00  0.00    +0.000 A 
ATOM     24  O   UNL     1       4.780   5.064  19.893  0.00  0.00    +0.000 OA
ATOM     25  C   UNL     1       5.899   5.000  19.000  0.00  0.00    +0.000 C 
ATOM     26  C   UNL     1       6.137   6.320  18.272  0.00  0.00    +0.000 C 
ATOM     27  C   UNL     1       4.993   6.774  17.356  0.00  0.00    +0.000 C 
BRANCH  27  28
ATOM     28  O   UNL     1       4.871   5.897  16.226  0.00  0.00    +0.000 OA
ATOM     29  H   UNL     1       5.714   5.427  16.107  0.00  0.00    +0.000 HD
ENDBRANCH  27  28
ENDBRANCH  13  17
BRANCH   9  30
ATOM     30  O   UNL     1      -4.473  12.448  19.294  0.00  0.00    +0.000 OA
BRANCH  30  31
ATOM     31  C   UNL     1      -5.333  11.433  19.832  0.00  0.00    +0.000 C 
BRANCH  31  32
ATOM     32  C   UNL     1      -6.326  10.906  18.804  0.00  0.00    +0.000 C 
ATOM     33  F   UNL     1      -5.747  10.910  17.571  0.00  0.00    +0.000 F 
ATOM     34  F   UNL     1      -6.626   9.609  19.076  0.00  0.00    +0.000 F 
ENDBRANCH  31  32
ENDBRANCH  30  31
ENDBRANCH   9  30
TORSDOF 5
ENDMDL
