MODEL 1
REMARK VINA RESULT:      -8.3      0.000      0.000
REMARK  Name = 
REMARK  8 active torsions:
REMARK  status: ('A' for Active; 'I' for Inactive)
REMARK    1  A    between atoms: C_1  and  O_2
REMARK    2  A    between atoms: O_2  and  C_3
REMARK    3  A    between atoms: C_6  and  C_7
REMARK    4  A    between atoms: C_7  and  C_9
REMARK    5  A    between atoms: C_9  and  N_10
REMARK    6  A    between atoms: C_13  and  C_14
REMARK    7  A    between atoms: C_19  and  N_20
REMARK    8  A    between atoms: C_21  and  C_23
REMARK                            x       y       z     vdW  Elec       q    Type
REMARK                         _______ _______ _______ _____ _____    ______ ____
ROOT
ATOM      1  N   UNL     1       2.188   8.354  18.725  0.00  0.00    +0.000 N 
ATOM      2  N   UNL     1       2.034   7.764  17.523  0.00  0.00    +0.000 NA
ATOM      3  N   UNL     1       2.265   6.474  17.740  0.00  0.00    +0.000 NA
ATOM      4  C   UNL     1       2.497   6.327  19.088  0.00  0.00    +0.000 A 
ATOM      5  N   UNL     1       2.445   7.505  19.741  0.00  0.00    +0.000 NA
ENDROOT
BRANCH   4   6
ATOM      6  C   UNL     1       2.664   5.035  19.761  0.00  0.00    +0.000 A 
ATOM      7  C   UNL     1       1.956   4.845  20.972  0.00  0.00    +0.000 A 
ATOM      8  C   UNL     1       1.964   3.625  21.645  0.00  0.00    +0.000 A 
ATOM      9  C   UNL     1       2.703   2.573  21.133  0.00  0.00    +0.000 A 
ATOM     10  C   UNL     1       3.427   2.743  19.952  0.00  0.00    +0.000 A 
ATOM     11  C   UNL     1       3.413   3.955  19.235  0.00  0.00    +0.000 A 
BRANCH  11  12
ATOM     12  N   UNL     1       4.140   4.078  18.019  0.00  0.00    +0.000 N 
ATOM     13  C   UNL     1       5.511   4.266  17.886  0.00  0.00    +0.000 C 
ATOM     14  O   UNL     1       6.315   4.267  18.814  0.00  0.00    +0.000 OA
ATOM     15  H   UNL     1       3.632   3.937  17.148  0.00  0.00    +0.000 HD
BRANCH  13  16
ATOM     16  C   UNL     1       5.966   4.428  16.518  0.00  0.00    +0.000 A 
ATOM     17  C   UNL     1       5.301   4.192  15.328  0.00  0.00    +0.000 A 
ATOM     18  C   UNL     1       6.207   4.498  14.286  0.00  0.00    +0.000 A 
ATOM     19  C   UNL     1       7.370   4.900  14.902  0.00  0.00    +0.000 A 
ATOM     20  O   UNL     1       7.235   4.868  16.255  0.00  0.00    +0.000 OA
ENDBRANCH  13  16
ENDBRANCH  11  12
ENDBRANCH   4   6
BRANCH   1  21
ATOM     21  C   UNL     1       1.650   9.675  18.993  0.00  0.00    +0.000 C 
BRANCH  21  22
ATOM     22  C   UNL     1       0.251   9.638  19.548  0.00  0.00    +0.000 C 
ATOM     23  O   UNL     1      -0.014   9.207  20.670  0.00  0.00    +0.000 OA
BRANCH  22  27
ATOM     24  C   UNL     1      -3.007  11.180  17.160  0.00  0.00    +0.000 A 
ATOM     25  C   UNL     1      -2.773  11.642  18.454  0.00  0.00    +0.000 A 
ATOM     26  C   UNL     1      -1.710  11.139  19.209  0.00  0.00    +0.000 A 
ATOM     27  C   UNL     1      -0.869  10.146  18.687  0.00  0.00    +0.000 A 
ATOM     28  C   UNL     1      -1.118   9.669  17.392  0.00  0.00    +0.000 A 
ATOM     29  C   UNL     1      -2.183  10.184  16.634  0.00  0.00    +0.000 A 
BRANCH  24  31
ATOM     30  C   UNL     1      -5.249  11.925  17.330  0.00  0.00    +0.000 C 
ATOM     31  O   UNL     1      -4.087  11.733  16.531  0.00  0.00    +0.000 OA
ENDBRANCH  24  31
ENDBRANCH  22  27
ENDBRANCH  21  22
ENDBRANCH   1  21
TORSDOF 7
ENDMDL
MODEL 2
REMARK VINA RESULT:      -8.2      1.114      1.231
REMARK  Name = 
REMARK  8 active torsions:
REMARK  status: ('A' for Active; 'I' for Inactive)
REMARK    1  A    between atoms: C_1  and  O_2
REMARK    2  A    between atoms: O_2  and  C_3
REMARK    3  A    between atoms: C_6  and  C_7
REMARK    4  A    between atoms: C_7  and  C_9
REMARK    5  A    between atoms: C_9  and  N_10
REMARK    6  A    between atoms: C_13  and  C_14
REMARK    7  A    between atoms: C_19  and  N_20
REMARK    8  A    between atoms: C_21  and  C_23
REMARK                            x       y       z     vdW  Elec       q    Type
REMARK                         _______ _______ _______ _____ _____    ______ ____
ROOT
ATOM      1  N   UNL     1       2.074   8.095  19.298  0.00  0.00    +0.000 N 
ATOM      2  N   UNL     1       2.282   7.751  18.011  0.00  0.00    +0.000 NA
ATOM      3  N   UNL     1       2.455   6.435  18.029  0.00  0.00    +0.000 NA
ATOM      4  C   UNL     1       2.287   6.024  19.332  0.00  0.00    +0.000 A 
ATOM      5  N   UNL     1       2.034   7.058  20.159  0.00  0.00    +0.000 NA
ENDROOT
BRANCH   4   6
ATOM      6  C   UNL     1       2.267   4.621  19.759  0.00  0.00    +0.000 A 
ATOM      7  C   UNL     1       1.436   4.295  20.857  0.00  0.00    +0.000 A 
ATOM      8  C   UNL     1       1.265   2.982  21.286  0.00  0.00    +0.000 A 
ATOM      9  C   UNL     1       1.944   1.964  20.640  0.00  0.00    +0.000 A 
ATOM     10  C   UNL     1       2.787   2.261  19.568  0.00  0.00    +0.000 A 
ATOM     11  C   UNL     1       2.955   3.577  19.094  0.00  0.00    +0.000 A 
BRANCH  11  12
ATOM     12  N   UNL     1       3.800   3.836  17.980  0.00  0.00    +0.000 N 
ATOM     13  C   UNL     1       5.163   4.105  18.015  0.00  0.00    +0.000 C 
ATOM     14  O   UNL     1       5.862   4.072  19.024  0.00  0.00    +0.000 OA
ATOM     15  H   UNL     1       3.397   3.740  17.049  0.00  0.00    +0.000 HD
BRANCH  13  16
ATOM     16  C   UNL     1       5.751   4.401  16.722  0.00  0.00    +0.000 A 
ATOM     17  C   UNL     1       7.016   4.866  16.409  0.00  0.00    +0.000 A 
ATOM     18  C   UNL     1       7.066   4.997  15.002  0.00  0.00    +0.000 A 
ATOM     19  C   UNL     1       5.831   4.605  14.541  0.00  0.00    +0.000 A 
ATOM     20  O   UNL     1       5.026   4.236  15.573  0.00  0.00    +0.000 OA
ENDBRANCH  13  16
ENDBRANCH  11  12
ENDBRANCH   4   6
BRANCH   1  21
ATOM     21  C   UNL     1       1.465   9.364  19.653  0.00  0.00    +0.000 C 
BRANCH  21  22
ATOM     22  C   UNL     1       1.045  10.169  18.452  0.00  0.00    +0.000 C 
ATOM     23  O   UNL     1       1.833  10.537  17.581  0.00  0.00    +0.000 OA
BRANCH  22  27
ATOM     24  C   UNL     1      -3.106  11.342  18.147  0.00  0.00    +0.000 A 
ATOM     25  C   UNL     1      -2.224  12.008  18.996  0.00  0.00    +0.000 A 
ATOM     26  C   UNL     1      -0.883  11.622  19.076  0.00  0.00    +0.000 A 
ATOM     27  C   UNL     1      -0.403  10.544  18.319  0.00  0.00    +0.000 A 
ATOM     28  C   UNL     1      -1.297   9.863  17.480  0.00  0.00    +0.000 A 
ATOM     29  C   UNL     1      -2.643  10.261  17.397  0.00  0.00    +0.000 A 
BRANCH  24  31
ATOM     30  C   UNL     1      -5.096  11.769  16.935  0.00  0.00    +0.000 C 
ATOM     31  O   UNL     1      -4.394  11.799  18.172  0.00  0.00    +0.000 OA
ENDBRANCH  24  31
ENDBRANCH  22  27
ENDBRANCH  21  22
ENDBRANCH   1  21
TORSDOF 7
ENDMDL
MODEL 3
REMARK VINA RESULT:      -8.1      1.016      1.329
REMARK  Name = 
REMARK  8 active torsions:
REMARK  status: ('A' for Active; 'I' for Inactive)
REMARK    1  A    between atoms: C_1  and  O_2
REMARK    2  A    between atoms: O_2  and  C_3
REMARK    3  A    between atoms: C_6  and  C_7
REMARK    4  A    between atoms: C_7  and  C_9
REMARK    5  A    between atoms: C_9  and  N_10
REMARK    6  A    between atoms: C_13  and  C_14
REMARK    7  A    between atoms: C_19  and  N_20
REMARK    8  A    between atoms: C_21  and  C_23
REMARK                            x       y       z     vdW  Elec       q    Type
REMARK                         _______ _______ _______ _____ _____    ______ ____
ROOT
ATOM      1  N   UNL     1       2.089   8.094  19.414  0.00  0.00    +0.000 N 
ATOM      2  N   UNL     1       2.259   7.785  18.114  0.00  0.00    +0.000 NA
ATOM      3  N   UNL     1       2.418   6.467  18.090  0.00  0.00    +0.000 NA
ATOM      4  C   UNL     1       2.279   6.021  19.385  0.00  0.00    +0.000 A 
ATOM      5  N   UNL     1       2.060   7.034  20.247  0.00  0.00    +0.000 NA
ENDROOT
BRANCH   4   6
ATOM      6  C   UNL     1       2.254   4.607  19.773  0.00  0.00    +0.000 A 
ATOM      7  C   UNL     1       1.429   4.256  20.868  0.00  0.00    +0.000 A 
ATOM      8  C   UNL     1       1.253   2.932  21.261  0.00  0.00    +0.000 A 
ATOM      9  C   UNL     1       1.921   1.928  20.582  0.00  0.00    +0.000 A 
ATOM     10  C   UNL     1       2.758   2.251  19.513  0.00  0.00    +0.000 A 
ATOM     11  C   UNL     1       2.931   3.578  19.074  0.00  0.00    +0.000 A 
BRANCH  11  12
ATOM     12  N   UNL     1       3.769   3.863  17.961  0.00  0.00    +0.000 N 
ATOM     13  C   UNL     1       5.139   4.091  17.989  0.00  0.00    +0.000 C 
ATOM     14  O   UNL     1       5.849   3.993  18.987  0.00  0.00    +0.000 OA
ATOM     15  H   UNL     1       3.352   3.820  17.033  0.00  0.00    +0.000 HD
BRANCH  13  16
ATOM     16  C   UNL     1       5.720   4.428  16.704  0.00  0.00    +0.000 A 
ATOM     17  C   UNL     1       5.162   4.382  15.438  0.00  0.00    +0.000 A 
ATOM     18  C   UNL     1       6.165   4.801  14.534  0.00  0.00    +0.000 A 
ATOM     19  C   UNL     1       7.274   5.077  15.300  0.00  0.00    +0.000 A 
ATOM     20  O   UNL     1       7.016   4.860  16.617  0.00  0.00    +0.000 OA
ENDBRANCH  13  16
ENDBRANCH  11  12
ENDBRANCH   4   6
BRANCH   1  21
ATOM     21  C   UNL     1       1.506   9.360  19.821  0.00  0.00    +0.000 C 
BRANCH  21  22
ATOM     22  C   UNL     1       1.078  10.210  18.655  0.00  0.00    +0.000 C 
ATOM     23  O   UNL     1       1.865  10.635  17.809  0.00  0.00    +0.000 OA
BRANCH  22  27
ATOM     24  C   UNL     1      -3.125  11.119  18.199  0.00  0.00    +0.000 A 
ATOM     25  C   UNL     1      -2.522  10.091  17.476  0.00  0.00    +0.000 A 
ATOM     26  C   UNL     1      -1.164   9.805  17.641  0.00  0.00    +0.000 A 
ATOM     27  C   UNL     1      -0.377  10.558  18.524  0.00  0.00    +0.000 A 
ATOM     28  C   UNL     1      -0.982  11.604  19.236  0.00  0.00    +0.000 A 
ATOM     29  C   UNL     1      -2.350  11.882  19.072  0.00  0.00    +0.000 A 
BRANCH  24  31
ATOM     30  C   UNL     1      -4.775  11.735  16.614  0.00  0.00    +0.000 C 
ATOM     31  O   UNL     1      -4.451  11.315  17.935  0.00  0.00    +0.000 OA
ENDBRANCH  24  31
ENDBRANCH  22  27
ENDBRANCH  21  22
ENDBRANCH   1  21
TORSDOF 7
ENDMDL
MODEL 4
REMARK VINA RESULT:      -8.1      2.473      2.928
REMARK  Name = 
REMARK  8 active torsions:
REMARK  status: ('A' for Active; 'I' for Inactive)
REMARK    1  A    between atoms: C_1  and  O_2
REMARK    2  A    between atoms: O_2  and  C_3
REMARK    3  A    between atoms: C_6  and  C_7
REMARK    4  A    between atoms: C_7  and  C_9
REMARK    5  A    between atoms: C_9  and  N_10
REMARK    6  A    between atoms: C_13  and  C_14
REMARK    7  A    between atoms: C_19  and  N_20
REMARK    8  A    between atoms: C_21  and  C_23
REMARK                            x       y       z     vdW  Elec       q    Type
REMARK                         _______ _______ _______ _____ _____    ______ ____
ROOT
ATOM      1  N   UNL     1       2.189   8.301  18.455  0.00  0.00    +0.000 N 
ATOM      2  N   UNL     1       3.180   7.987  17.598  0.00  0.00    +0.000 NA
ATOM      3  N   UNL     1       3.626   6.804  18.005  0.00  0.00    +0.000 NA
ATOM      4  C   UNL     1       2.841   6.421  19.068  0.00  0.00    +0.000 A 
ATOM      5  N   UNL     1       1.913   7.350  19.371  0.00  0.00    +0.000 NA
ENDROOT
BRANCH   4   6
ATOM      6  C   UNL     1       2.920   5.112  19.724  0.00  0.00    +0.000 A 
ATOM      7  C   UNL     1       2.210   4.957  20.938  0.00  0.00    +0.000 A 
ATOM      8  C   UNL     1       2.136   3.732  21.596  0.00  0.00    +0.000 A 
ATOM      9  C   UNL     1       2.794   2.636  21.065  0.00  0.00    +0.000 A 
ATOM     10  C   UNL     1       3.520   2.769  19.881  0.00  0.00    +0.000 A 
ATOM     11  C   UNL     1       3.587   3.988  19.178  0.00  0.00    +0.000 A 
BRANCH  11  12
ATOM     12  N   UNL     1       4.312   4.074  17.958  0.00  0.00    +0.000 N 
ATOM     13  C   UNL     1       5.680   4.274  17.816  0.00  0.00    +0.000 C 
ATOM     14  O   UNL     1       6.485   4.320  18.743  0.00  0.00    +0.000 OA
ATOM     15  H   UNL     1       3.805   3.895  17.094  0.00  0.00    +0.000 HD
BRANCH  13  16
ATOM     16  C   UNL     1       6.132   4.391  16.443  0.00  0.00    +0.000 A 
ATOM     17  C   UNL     1       5.620   3.825  15.289  0.00  0.00    +0.000 A 
ATOM     18  C   UNL     1       6.447   4.250  14.224  0.00  0.00    +0.000 A 
ATOM     19  C   UNL     1       7.414   5.047  14.791  0.00  0.00    +0.000 A 
ATOM     20  O   UNL     1       7.232   5.145  16.134  0.00  0.00    +0.000 OA
ENDBRANCH  13  16
ENDBRANCH  11  12
ENDBRANCH   4   6
BRANCH   1  21
ATOM     21  C   UNL     1       1.200   9.313  18.130  0.00  0.00    +0.000 C 
BRANCH  21  22
ATOM     22  C   UNL     1       1.591  10.688  18.602  0.00  0.00    +0.000 C 
ATOM     23  O   UNL     1       2.457  11.367  18.048  0.00  0.00    +0.000 OA
BRANCH  22  27
ATOM     24  C   UNL     1      -0.424  12.198  22.117  0.00  0.00    +0.000 A 
ATOM     25  C   UNL     1      -0.211  10.833  21.932  0.00  0.00    +0.000 A 
ATOM     26  C   UNL     1       0.450  10.362  20.794  0.00  0.00    +0.000 A 
ATOM     27  C   UNL     1       0.895  11.252  19.807  0.00  0.00    +0.000 A 
ATOM     28  C   UNL     1       0.662  12.623  19.985  0.00  0.00    +0.000 A 
ATOM     29  C   UNL     1       0.005  13.092  21.136  0.00  0.00    +0.000 A 
BRANCH  24  31
ATOM     30  C   UNL     1      -1.275  13.923  23.499  0.00  0.00    +0.000 C 
ATOM     31  O   UNL     1      -1.098  12.532  23.258  0.00  0.00    +0.000 OA
ENDBRANCH  24  31
ENDBRANCH  22  27
ENDBRANCH  21  22
ENDBRANCH   1  21
TORSDOF 7
ENDMDL
MODEL 5
REMARK VINA RESULT:      -8.1      3.017      3.647
REMARK  Name = 
REMARK  8 active torsions:
REMARK  status: ('A' for Active; 'I' for Inactive)
REMARK    1  A    between atoms: C_1  and  O_2
REMARK    2  A    between atoms: O_2  and  C_3
REMARK    3  A    between atoms: C_6  and  C_7
REMARK    4  A    between atoms: C_7  and  C_9
REMARK    5  A    between atoms: C_9  and  N_10
REMARK    6  A    between atoms: C_13  and  C_14
REMARK    7  A    between atoms: C_19  and  N_20
REMARK    8  A    between atoms: C_21  and  C_23
REMARK                            x       y       z     vdW  Elec       q    Type
REMARK                         _______ _______ _______ _____ _____    ______ ____
ROOT
ATOM      1  N   UNL     1       1.335   7.434  20.818  0.00  0.00    +0.000 N 
ATOM      2  N   UNL     1       1.893   8.061  19.764  0.00  0.00    +0.000 NA
ATOM      3  N   UNL     1       2.443   7.094  19.039  0.00  0.00    +0.000 NA
ATOM      4  C   UNL     1       2.143   5.904  19.661  0.00  0.00    +0.000 A 
ATOM      5  N   UNL     1       1.431   6.089  20.790  0.00  0.00    +0.000 NA
ENDROOT
BRANCH   4   6
ATOM      6  C   UNL     1       2.454   4.582  19.108  0.00  0.00    +0.000 A 
ATOM      7  C   UNL     1       1.403   3.634  19.077  0.00  0.00    +0.000 A 
ATOM      8  C   UNL     1       1.558   2.382  18.487  0.00  0.00    +0.000 A 
ATOM      9  C   UNL     1       2.779   2.040  17.934  0.00  0.00    +0.000 A 
ATOM     10  C   UNL     1       3.838   2.948  17.972  0.00  0.00    +0.000 A 
ATOM     11  C   UNL     1       3.701   4.232  18.535  0.00  0.00    +0.000 A 
BRANCH  11  12
ATOM     12  N   UNL     1       4.795   5.140  18.526  0.00  0.00    +0.000 N 
ATOM     13  C   UNL     1       5.393   5.710  17.409  0.00  0.00    +0.000 C 
ATOM     14  O   UNL     1       5.000   5.575  16.253  0.00  0.00    +0.000 OA
ATOM     15  H   UNL     1       5.135   5.479  19.425  0.00  0.00    +0.000 HD
BRANCH  13  16
ATOM     16  C   UNL     1       6.540   6.548  17.702  0.00  0.00    +0.000 A 
ATOM     17  C   UNL     1       7.587   6.343  18.583  0.00  0.00    +0.000 A 
ATOM     18  C   UNL     1       8.427   7.476  18.490  0.00  0.00    +0.000 A 
ATOM     19  C   UNL     1       7.844   8.305  17.560  0.00  0.00    +0.000 A 
ATOM     20  O   UNL     1       6.702   7.752  17.070  0.00  0.00    +0.000 OA
ENDBRANCH  13  16
ENDBRANCH  11  12
ENDBRANCH   4   6
BRANCH   1  21
ATOM     21  C   UNL     1       0.318   8.078  21.630  0.00  0.00    +0.000 C 
BRANCH  21  22
ATOM     22  C   UNL     1       0.791   9.365  22.251  0.00  0.00    +0.000 C 
ATOM     23  O   UNL     1       1.884   9.480  22.808  0.00  0.00    +0.000 OA
BRANCH  22  27
ATOM     24  C   UNL     1      -1.763  12.844  21.979  0.00  0.00    +0.000 A 
ATOM     25  C   UNL     1      -0.726  12.631  21.072  0.00  0.00    +0.000 A 
ATOM     26  C   UNL     1       0.085  11.497  21.169  0.00  0.00    +0.000 A 
ATOM     27  C   UNL     1      -0.116  10.560  22.192  0.00  0.00    +0.000 A 
ATOM     28  C   UNL     1      -1.148  10.785  23.115  0.00  0.00    +0.000 A 
ATOM     29  C   UNL     1      -1.966  11.923  23.007  0.00  0.00    +0.000 A 
BRANCH  24  31
ATOM     30  C   UNL     1      -1.983  15.151  22.466  0.00  0.00    +0.000 C 
ATOM     31  O   UNL     1      -2.471  13.997  21.792  0.00  0.00    +0.000 OA
ENDBRANCH  24  31
ENDBRANCH  22  27
ENDBRANCH  21  22
ENDBRANCH   1  21
TORSDOF 7
ENDMDL
MODEL 6
REMARK VINA RESULT:      -8.1      3.988      5.933
REMARK  Name = 
REMARK  8 active torsions:
REMARK  status: ('A' for Active; 'I' for Inactive)
REMARK    1  A    between atoms: C_1  and  O_2
REMARK    2  A    between atoms: O_2  and  C_3
REMARK    3  A    between atoms: C_6  and  C_7
REMARK    4  A    between atoms: C_7  and  C_9
REMARK    5  A    between atoms: C_9  and  N_10
REMARK    6  A    between atoms: C_13  and  C_14
REMARK    7  A    between atoms: C_19  and  N_20
REMARK    8  A    between atoms: C_21  and  C_23
REMARK                            x       y       z     vdW  Elec       q    Type
REMARK                         _______ _______ _______ _____ _____    ______ ____
ROOT
ATOM      1  N   UNL     1       3.710   2.314  18.161  0.00  0.00    +0.000 N 
ATOM      2  N   UNL     1       4.150   2.105  19.418  0.00  0.00    +0.000 NA
ATOM      3  N   UNL     1       5.155   2.958  19.578  0.00  0.00    +0.000 NA
ATOM      4  C   UNL     1       5.247   3.696  18.420  0.00  0.00    +0.000 A 
ATOM      5  N   UNL     1       4.334   3.314  17.505  0.00  0.00    +0.000 NA
ENDROOT
BRANCH   4   6
ATOM      6  C   UNL     1       6.146   4.839  18.239  0.00  0.00    +0.000 A 
ATOM      7  C   UNL     1       6.584   5.505  19.408  0.00  0.00    +0.000 A 
ATOM      8  C   UNL     1       7.514   6.540  19.361  0.00  0.00    +0.000 A 
ATOM      9  C   UNL     1       8.010   6.951  18.136  0.00  0.00    +0.000 A 
ATOM     10  C   UNL     1       7.578   6.325  16.967  0.00  0.00    +0.000 A 
ATOM     11  C   UNL     1       6.661   5.255  16.987  0.00  0.00    +0.000 A 
BRANCH  11  12
ATOM     12  N   UNL     1       6.268   4.624  15.775  0.00  0.00    +0.000 N 
ATOM     13  C   UNL     1       6.870   4.766  14.530  0.00  0.00    +0.000 C 
ATOM     14  O   UNL     1       7.897   5.403  14.314  0.00  0.00    +0.000 OA
ATOM     15  H   UNL     1       5.521   3.933  15.823  0.00  0.00    +0.000 HD
BRANCH  13  16
ATOM     16  C   UNL     1       6.206   4.053  13.456  0.00  0.00    +0.000 A 
ATOM     17  C   UNL     1       6.745   3.343  12.397  0.00  0.00    +0.000 A 
ATOM     18  C   UNL     1       5.657   2.858  11.635  0.00  0.00    +0.000 A 
ATOM     19  C   UNL     1       4.521   3.302  12.272  0.00  0.00    +0.000 A 
ATOM     20  O   UNL     1       4.840   4.022  13.380  0.00  0.00    +0.000 OA
ENDBRANCH  13  16
ENDBRANCH  11  12
ENDBRANCH   4   6
BRANCH   1  21
ATOM     21  C   UNL     1       2.397   1.867  17.735  0.00  0.00    +0.000 C 
BRANCH  21  22
ATOM     22  C   UNL     1       1.277   2.541  18.481  0.00  0.00    +0.000 C 
ATOM     23  O   UNL     1       0.191   2.001  18.694  0.00  0.00    +0.000 OA
BRANCH  22  27
ATOM     24  C   UNL     1       1.922   6.606  19.809  0.00  0.00    +0.000 A 
ATOM     25  C   UNL     1       1.988   6.263  18.459  0.00  0.00    +0.000 A 
ATOM     26  C   UNL     1       1.768   4.946  18.046  0.00  0.00    +0.000 A 
ATOM     27  C   UNL     1       1.496   3.940  18.983  0.00  0.00    +0.000 A 
ATOM     28  C   UNL     1       1.448   4.282  20.342  0.00  0.00    +0.000 A 
ATOM     29  C   UNL     1       1.662   5.610  20.751  0.00  0.00    +0.000 A 
BRANCH  24  31
ATOM     30  C   UNL     1       1.399   8.501  21.130  0.00  0.00    +0.000 C 
ATOM     31  O   UNL     1       2.175   7.919  20.089  0.00  0.00    +0.000 OA
ENDBRANCH  24  31
ENDBRANCH  22  27
ENDBRANCH  21  22
ENDBRANCH   1  21
TORSDOF 7
ENDMDL
MODEL 7
REMARK VINA RESULT:      -8.1      1.701      2.202
REMARK  Name = 
REMARK  8 active torsions:
REMARK  status: ('A' for Active; 'I' for Inactive)
REMARK    1  A    between atoms: C_1  and  O_2
REMARK    2  A    between atoms: O_2  and  C_3
REMARK    3  A    between atoms: C_6  and  C_7
REMARK    4  A    between atoms: C_7  and  C_9
REMARK    5  A    between atoms: C_9  and  N_10
REMARK    6  A    between atoms: C_13  and  C_14
REMARK    7  A    between atoms: C_19  and  N_20
REMARK    8  A    between atoms: C_21  and  C_23
REMARK                            x       y       z     vdW  Elec       q    Type
REMARK                         _______ _______ _______ _____ _____    ______ ____
ROOT
ATOM      1  N   UNL     1       1.087   8.538  20.616  0.00  0.00    +0.000 N 
ATOM      2  N   UNL     1       1.692   8.676  19.420  0.00  0.00    +0.000 NA
ATOM      3  N   UNL     1       2.207   7.481  19.154  0.00  0.00    +0.000 NA
ATOM      4  C   UNL     1       1.842   6.646  20.185  0.00  0.00    +0.000 A 
ATOM      5  N   UNL     1       1.121   7.289  21.125  0.00  0.00    +0.000 NA
ENDROOT
BRANCH   4   6
ATOM      6  C   UNL     1       2.100   5.203  20.209  0.00  0.00    +0.000 A 
ATOM      7  C   UNL     1       1.030   4.364  20.602  0.00  0.00    +0.000 A 
ATOM      8  C   UNL     1       1.132   2.976  20.568  0.00  0.00    +0.000 A 
ATOM      9  C   UNL     1       2.320   2.393  20.165  0.00  0.00    +0.000 A 
ATOM     10  C   UNL     1       3.398   3.198  19.795  0.00  0.00    +0.000 A 
ATOM     11  C   UNL     1       3.313   4.604  19.789  0.00  0.00    +0.000 A 
BRANCH  11  12
ATOM     12  N   UNL     1       4.424   5.389  19.376  0.00  0.00    +0.000 N 
ATOM     13  C   UNL     1       5.299   5.107  18.334  0.00  0.00    +0.000 C 
ATOM     14  O   UNL     1       5.184   4.167  17.552  0.00  0.00    +0.000 OA
ATOM     15  H   UNL     1       4.560   6.291  19.828  0.00  0.00    +0.000 HD
BRANCH  13  16
ATOM     16  C   UNL     1       6.387   6.055  18.188  0.00  0.00    +0.000 A 
ATOM     17  C   UNL     1       6.543   7.095  17.289  0.00  0.00    +0.000 A 
ATOM     18  C   UNL     1       7.792   7.695  17.571  0.00  0.00    +0.000 A 
ATOM     19  C   UNL     1       8.324   6.986  18.623  0.00  0.00    +0.000 A 
ATOM     20  O   UNL     1       7.480   5.993  19.010  0.00  0.00    +0.000 OA
ENDBRANCH  13  16
ENDBRANCH  11  12
ENDBRANCH   4   6
BRANCH   1  21
ATOM     21  C   UNL     1       0.088   9.487  21.073  0.00  0.00    +0.000 C 
BRANCH  21  22
ATOM     22  C   UNL     1       0.035  10.734  20.231  0.00  0.00    +0.000 C 
ATOM     23  O   UNL     1       0.932  11.578  20.226  0.00  0.00    +0.000 OA
BRANCH  22  27
ATOM     24  C   UNL     1      -3.394  11.287  17.656  0.00  0.00    +0.000 A 
ATOM     25  C   UNL     1      -2.386  10.378  17.338  0.00  0.00    +0.000 A 
ATOM     26  C   UNL     1      -1.288  10.205  18.186  0.00  0.00    +0.000 A 
ATOM     27  C   UNL     1      -1.170  10.956  19.364  0.00  0.00    +0.000 A 
ATOM     28  C   UNL     1      -2.176  11.883  19.673  0.00  0.00    +0.000 A 
ATOM     29  C   UNL     1      -3.282  12.047  18.821  0.00  0.00    +0.000 A 
BRANCH  24  31
ATOM     30  C   UNL     1      -5.565  12.090  17.153  0.00  0.00    +0.000 C 
ATOM     31  O   UNL     1      -4.403  11.379  16.740  0.00  0.00    +0.000 OA
ENDBRANCH  24  31
ENDBRANCH  22  27
ENDBRANCH  21  22
ENDBRANCH   1  21
TORSDOF 7
ENDMDL
MODEL 8
REMARK VINA RESULT:      -8.0      4.687      8.028
REMARK  Name = 
REMARK  8 active torsions:
REMARK  status: ('A' for Active; 'I' for Inactive)
REMARK    1  A    between atoms: C_1  and  O_2
REMARK    2  A    between atoms: O_2  and  C_3
REMARK    3  A    between atoms: C_6  and  C_7
REMARK    4  A    between atoms: C_7  and  C_9
REMARK    5  A    between atoms: C_9  and  N_10
REMARK    6  A    between atoms: C_13  and  C_14
REMARK    7  A    between atoms: C_19  and  N_20
REMARK    8  A    between atoms: C_21  and  C_23
REMARK                            x       y       z     vdW  Elec       q    Type
REMARK                         _______ _______ _______ _____ _____    ______ ____
ROOT
ATOM      1  N   UNL     1       6.405   6.821  17.066  0.00  0.00    +0.000 N 
ATOM      2  N   UNL     1       6.610   6.163  15.908  0.00  0.00    +0.000 NA
ATOM      3  N   UNL     1       5.753   5.149  15.931  0.00  0.00    +0.000 NA
ATOM      4  C   UNL     1       5.017   5.269  17.087  0.00  0.00    +0.000 A 
ATOM      5  N   UNL     1       5.404   6.329  17.824  0.00  0.00    +0.000 NA
ENDROOT
BRANCH   4   6
ATOM      6  C   UNL     1       3.871   4.420  17.428  0.00  0.00    +0.000 A 
ATOM      7  C   UNL     1       4.068   3.020  17.373  0.00  0.00    +0.000 A 
ATOM      8  C   UNL     1       3.081   2.121  17.768  0.00  0.00    +0.000 A 
ATOM      9  C   UNL     1       1.860   2.604  18.206  0.00  0.00    +0.000 A 
ATOM     10  C   UNL     1       1.633   3.981  18.248  0.00  0.00    +0.000 A 
ATOM     11  C   UNL     1       2.624   4.913  17.883  0.00  0.00    +0.000 A 
BRANCH  11  12
ATOM     12  N   UNL     1       2.363   6.308  17.969  0.00  0.00    +0.000 N 
ATOM     13  C   UNL     1       2.235   7.060  19.131  0.00  0.00    +0.000 C 
ATOM     14  O   UNL     1       2.418   6.634  20.269  0.00  0.00    +0.000 OA
ATOM     15  H   UNL     1       2.343   6.840  17.101  0.00  0.00    +0.000 HD
BRANCH  13  16
ATOM     16  C   UNL     1       1.897   8.453  18.913  0.00  0.00    +0.000 A 
ATOM     17  C   UNL     1       2.194   9.281  17.844  0.00  0.00    +0.000 A 
ATOM     18  C   UNL     1       1.641  10.548  18.144  0.00  0.00    +0.000 A 
ATOM     19  C   UNL     1       1.042  10.418  19.375  0.00  0.00    +0.000 A 
ATOM     20  O   UNL     1       1.185   9.152  19.850  0.00  0.00    +0.000 OA
ENDBRANCH  13  16
ENDBRANCH  11  12
ENDBRANCH   4   6
BRANCH   1  21
ATOM     21  C   UNL     1       6.858   8.187  17.250  0.00  0.00    +0.000 C 
BRANCH  21  22
ATOM     22  C   UNL     1       8.028   8.296  18.191  0.00  0.00    +0.000 C 
ATOM     23  O   UNL     1       8.529   7.322  18.754  0.00  0.00    +0.000 OA
BRANCH  22  27
ATOM     24  C   UNL     1       9.622  12.259  18.860  0.00  0.00    +0.000 A 
ATOM     25  C   UNL     1       8.774  11.989  17.788  0.00  0.00    +0.000 A 
ATOM     26  C   UNL     1       8.260  10.704  17.591  0.00  0.00    +0.000 A 
ATOM     27  C   UNL     1       8.603   9.657  18.457  0.00  0.00    +0.000 A 
ATOM     28  C   UNL     1       9.472   9.926  19.524  0.00  0.00    +0.000 A 
ATOM     29  C   UNL     1       9.979  11.223  19.723  0.00  0.00    +0.000 A 
BRANCH  24  31
ATOM     30  C   UNL     1      10.529  13.981  20.210  0.00  0.00    +0.000 C 
ATOM     31  O   UNL     1      10.073  13.547  18.934  0.00  0.00    +0.000 OA
ENDBRANCH  24  31
ENDBRANCH  22  27
ENDBRANCH  21  22
ENDBRANCH   1  21
TORSDOF 7
ENDMDL
MODEL 9
REMARK VINA RESULT:      -8.0      3.657      5.821
REMARK  Name = 
REMARK  8 active torsions:
REMARK  status: ('A' for Active; 'I' for Inactive)
REMARK    1  A    between atoms: C_1  and  O_2
REMARK    2  A    between atoms: O_2  and  C_3
REMARK    3  A    between atoms: C_6  and  C_7
REMARK    4  A    between atoms: C_7  and  C_9
REMARK    5  A    between atoms: C_9  and  N_10
REMARK    6  A    between atoms: C_13  and  C_14
REMARK    7  A    between atoms: C_19  and  N_20
REMARK    8  A    between atoms: C_21  and  C_23
REMARK                            x       y       z     vdW  Elec       q    Type
REMARK                         _______ _______ _______ _____ _____    ______ ____
ROOT
ATOM      1  N   UNL     1       3.700   2.308  18.172  0.00  0.00    +0.000 N 
ATOM      2  N   UNL     1       4.167   2.082  19.416  0.00  0.00    +0.000 NA
ATOM      3  N   UNL     1       5.178   2.931  19.563  0.00  0.00    +0.000 NA
ATOM      4  C   UNL     1       5.246   3.682  18.413  0.00  0.00    +0.000 A 
ATOM      5  N   UNL     1       4.312   3.313  17.513  0.00  0.00    +0.000 NA
ENDROOT
BRANCH   4   6
ATOM      6  C   UNL     1       6.145   4.825  18.224  0.00  0.00    +0.000 A 
ATOM      7  C   UNL     1       6.601   5.484  19.391  0.00  0.00    +0.000 A 
ATOM      8  C   UNL     1       7.532   6.518  19.335  0.00  0.00    +0.000 A 
ATOM      9  C   UNL     1       8.010   6.934  18.106  0.00  0.00    +0.000 A 
ATOM     10  C   UNL     1       7.559   6.316  16.939  0.00  0.00    +0.000 A 
ATOM     11  C   UNL     1       6.641   5.248  16.967  0.00  0.00    +0.000 A 
BRANCH  11  12
ATOM     12  N   UNL     1       6.229   4.624  15.758  0.00  0.00    +0.000 N 
ATOM     13  C   UNL     1       6.834   4.743  14.512  0.00  0.00    +0.000 C 
ATOM     14  O   UNL     1       7.881   5.348  14.293  0.00  0.00    +0.000 OA
ATOM     15  H   UNL     1       5.461   3.956  15.808  0.00  0.00    +0.000 HD
BRANCH  13  16
ATOM     16  C   UNL     1       6.149   4.046  13.441  0.00  0.00    +0.000 A 
ATOM     17  C   UNL     1       4.805   4.021  13.115  0.00  0.00    +0.000 A 
ATOM     18  C   UNL     1       4.672   3.174  11.991  0.00  0.00    +0.000 A 
ATOM     19  C   UNL     1       5.942   2.732  11.698  0.00  0.00    +0.000 A 
ATOM     20  O   UNL     1       6.847   3.257  12.566  0.00  0.00    +0.000 OA
ENDBRANCH  13  16
ENDBRANCH  11  12
ENDBRANCH   4   6
BRANCH   1  21
ATOM     21  C   UNL     1       2.376   1.869  17.770  0.00  0.00    +0.000 C 
BRANCH  21  22
ATOM     22  C   UNL     1       1.272   2.613  18.473  0.00  0.00    +0.000 C 
ATOM     23  O   UNL     1       0.179   2.108  18.728  0.00  0.00    +0.000 OA
BRANCH  22  27
ATOM     24  C   UNL     1       1.969   6.686  19.747  0.00  0.00    +0.000 A 
ATOM     25  C   UNL     1       1.669   5.679  20.664  0.00  0.00    +0.000 A 
ATOM     26  C   UNL     1       1.455   4.366  20.236  0.00  0.00    +0.000 A 
ATOM     27  C   UNL     1       1.519   4.039  18.874  0.00  0.00    +0.000 A 
ATOM     28  C   UNL     1       1.802   5.057  17.952  0.00  0.00    +0.000 A 
ATOM     29  C   UNL     1       2.024   6.374  18.389  0.00  0.00    +0.000 A 
BRANCH  24  31
ATOM     30  C   UNL     1       1.277   8.951  19.791  0.00  0.00    +0.000 C 
ATOM     31  O   UNL     1       2.136   7.931  20.285  0.00  0.00    +0.000 OA
ENDBRANCH  24  31
ENDBRANCH  22  27
ENDBRANCH  21  22
ENDBRANCH   1  21
TORSDOF 7
ENDMDL
