MODEL 1
REMARK VINA RESULT:      -9.3      0.000      0.000
REMARK  Name = 
REMARK  5 active torsions:
REMARK  status: ('A' for Active; 'I' for Inactive)
REMARK    1  A    between atoms: C_1  and  C_2
REMARK    2  A    between atoms: C_4  and  N_5
REMARK    3  A    between atoms: C_9  and  O_11
REMARK    4  A    between atoms: O_11  and  C_12
REMARK    5  A    between atoms: C_15  and  C_16
REMARK                            x       y       z     vdW  Elec       q    Type
REMARK                         _______ _______ _______ _____ _____    ______ ____
ROOT
ATOM      1  N   UNL     1       2.228   7.114  18.515  0.00  0.00    +0.000 N 
ATOM      2  C   UNL     1       2.455   8.307  17.656  0.00  0.00    +0.000 C 
ATOM      3  C   UNL     1       1.385   9.371  17.935  0.00  0.00    +0.000 C 
ATOM      4  N   UNL     1       1.343   9.691  19.360  0.00  0.00    +0.000 N 
ATOM      5  C   UNL     1       1.328  11.005  19.781  0.00  0.00    +0.000 C 
ATOM      6  O   UNL     1       1.414  11.964  19.022  0.00  0.00    +0.000 OA
ATOM      7  C   UNL     1       1.181   8.535  20.250  0.00  0.00    +0.000 C 
ATOM      8  C   UNL     1       2.252   7.463  19.962  0.00  0.00    +0.000 C 
ENDROOT
BRANCH   1  12
ATOM      9  C   UNL     1       6.152   4.950  16.377  0.00  0.00    +0.000 C 
ATOM     10  C   UNL     1       4.887   4.885  17.177  0.00  0.00    +0.000 A 
ATOM     11  C   UNL     1       4.182   6.037  17.491  0.00  0.00    +0.000 A 
ATOM     12  C   UNL     1       2.980   5.952  18.205  0.00  0.00    +0.000 A 
ATOM     13  C   UNL     1       2.523   4.653  18.580  0.00  0.00    +0.000 A 
ATOM     14  C   UNL     1       1.302   4.389  19.254  0.00  0.00    +0.000 A 
ATOM     15  C   UNL     1       0.920   3.095  19.607  0.00  0.00    +0.000 A 
ATOM     16  C   UNL     1       1.739   2.026  19.273  0.00  0.00    +0.000 A 
ATOM     17  C   UNL     1       2.927   2.266  18.585  0.00  0.00    +0.000 A 
ATOM     18  C   UNL     1       3.328   3.545  18.232  0.00  0.00    +0.000 A 
ATOM     19  N   UNL     1       4.477   3.657  17.551  0.00  0.00    +0.000 NA
ENDBRANCH   1  12
BRANCH   5  20
ATOM     20  O   UNL     1       1.158  11.112  21.146  0.00  0.00    +0.000 OA
BRANCH  20  21
ATOM     21  C   UNL     1      -0.071  11.655  21.536  0.00  0.00    +0.000 A 
ATOM     22  C   UNL     1      -0.962  12.165  20.603  0.00  0.00    +0.000 A 
ATOM     23  C   UNL     1      -2.245  12.506  21.020  0.00  0.00    +0.000 A 
ATOM     24  C   UNL     1      -2.641  12.306  22.348  0.00  0.00    +0.000 A 
ATOM     25  C   UNL     1      -1.666  11.771  23.195  0.00  0.00    +0.000 A 
ATOM     26  N   UNL     1      -0.404  11.430  22.824  0.00  0.00    +0.000 NA
BRANCH  24  27
ATOM     27  C   UNL     1      -4.007  12.635  22.803  0.00  0.00    +0.000 A 
ATOM     28  C   UNL     1      -4.938  13.237  21.935  0.00  0.00    +0.000 A 
ATOM     29  C   UNL     1      -6.219  13.593  22.368  0.00  0.00    +0.000 A 
ATOM     30  C   UNL     1      -6.605  13.338  23.679  0.00  0.00    +0.000 A 
ATOM     31  C   UNL     1      -5.712  12.725  24.553  0.00  0.00    +0.000 A 
ATOM     32  C   UNL     1      -4.427  12.381  24.120  0.00  0.00    +0.000 A 
ENDBRANCH  24  27
ENDBRANCH  20  21
ENDBRANCH   5  20
TORSDOF 4
ENDMDL
MODEL 2
REMARK VINA RESULT:      -9.3      1.777      1.997
REMARK  Name = 
REMARK  5 active torsions:
REMARK  status: ('A' for Active; 'I' for Inactive)
REMARK    1  A    between atoms: C_1  and  C_2
REMARK    2  A    between atoms: C_4  and  N_5
REMARK    3  A    between atoms: C_9  and  O_11
REMARK    4  A    between atoms: O_11  and  C_12
REMARK    5  A    between atoms: C_15  and  C_16
REMARK                            x       y       z     vdW  Elec       q    Type
REMARK                         _______ _______ _______ _____ _____    ______ ____
ROOT
ATOM      1  N   UNL     1       2.334   7.153  18.421  0.00  0.00    +0.000 N 
ATOM      2  C   UNL     1       2.375   8.399  17.609  0.00  0.00    +0.000 C 
ATOM      3  C   UNL     1       1.205   9.316  17.989  0.00  0.00    +0.000 C 
ATOM      4  N   UNL     1       1.201   9.571  19.428  0.00  0.00    +0.000 N 
ATOM      5  C   UNL     1       1.055  10.855  19.910  0.00  0.00    +0.000 C 
ATOM      6  O   UNL     1       0.989  11.848  19.193  0.00  0.00    +0.000 OA
ATOM      7  C   UNL     1       1.221   8.368  20.269  0.00  0.00    +0.000 C 
ATOM      8  C   UNL     1       2.393   7.443  19.880  0.00  0.00    +0.000 C 
ENDROOT
BRANCH   1  12
ATOM      9  C   UNL     1       6.653   5.594  16.534  0.00  0.00    +0.000 C 
ATOM     10  C   UNL     1       5.297   5.328  17.113  0.00  0.00    +0.000 A 
ATOM     11  C   UNL     1       4.479   6.370  17.522  0.00  0.00    +0.000 A 
ATOM     12  C   UNL     1       3.198   6.102  18.022  0.00  0.00    +0.000 A 
ATOM     13  C   UNL     1       2.783   4.738  18.085  0.00  0.00    +0.000 A 
ATOM     14  C   UNL     1       1.501   4.303  18.512  0.00  0.00    +0.000 A 
ATOM     15  C   UNL     1       1.164   2.950  18.565  0.00  0.00    +0.000 A 
ATOM     16  C   UNL     1       2.092   1.998  18.169  0.00  0.00    +0.000 A 
ATOM     17  C   UNL     1       3.344   2.412  17.719  0.00  0.00    +0.000 A 
ATOM     18  C   UNL     1       3.703   3.750  17.667  0.00  0.00    +0.000 A 
ATOM     19  N   UNL     1       4.924   4.035  17.194  0.00  0.00    +0.000 NA
ENDBRANCH   1  12
BRANCH   5  20
ATOM     20  O   UNL     1       0.945  10.885  21.285  0.00  0.00    +0.000 OA
BRANCH  20  21
ATOM     21  C   UNL     1      -0.002  11.793  21.771  0.00  0.00    +0.000 A 
ATOM     22  C   UNL     1      -1.149  11.358  22.421  0.00  0.00    +0.000 A 
ATOM     23  C   UNL     1      -1.952  12.298  23.058  0.00  0.00    +0.000 A 
ATOM     24  C   UNL     1      -1.593  13.651  23.075  0.00  0.00    +0.000 A 
ATOM     25  C   UNL     1      -0.410  13.970  22.403  0.00  0.00    +0.000 A 
ATOM     26  N   UNL     1       0.397  13.081  21.767  0.00  0.00    +0.000 NA
BRANCH  24  27
ATOM     27  C   UNL     1      -2.419  14.660  23.771  0.00  0.00    +0.000 A 
ATOM     28  C   UNL     1      -1.870  15.489  24.766  0.00  0.00    +0.000 A 
ATOM     29  C   UNL     1      -2.652  16.416  25.462  0.00  0.00    +0.000 A 
ATOM     30  C   UNL     1      -4.004  16.546  25.163  0.00  0.00    +0.000 A 
ATOM     31  C   UNL     1      -4.569  15.754  24.168  0.00  0.00    +0.000 A 
ATOM     32  C   UNL     1      -3.786  14.819  23.483  0.00  0.00    +0.000 A 
ENDBRANCH  24  27
ENDBRANCH  20  21
ENDBRANCH   5  20
TORSDOF 4
ENDMDL
MODEL 3
REMARK VINA RESULT:      -9.1      0.934      1.342
REMARK  Name = 
REMARK  5 active torsions:
REMARK  status: ('A' for Active; 'I' for Inactive)
REMARK    1  A    between atoms: C_1  and  C_2
REMARK    2  A    between atoms: C_4  and  N_5
REMARK    3  A    between atoms: C_9  and  O_11
REMARK    4  A    between atoms: O_11  and  C_12
REMARK    5  A    between atoms: C_15  and  C_16
REMARK                            x       y       z     vdW  Elec       q    Type
REMARK                         _______ _______ _______ _____ _____    ______ ____
ROOT
ATOM      1  N   UNL     1       2.409   7.254  18.438  0.00  0.00    +0.000 N 
ATOM      2  C   UNL     1       2.580   8.532  17.697  0.00  0.00    +0.000 C 
ATOM      3  C   UNL     1       1.388   9.462  17.964  0.00  0.00    +0.000 C 
ATOM      4  N   UNL     1       1.201   9.653  19.400  0.00  0.00    +0.000 N 
ATOM      5  C   UNL     1       1.018  10.919  19.919  0.00  0.00    +0.000 C 
ATOM      6  O   UNL     1       1.067  11.943  19.246  0.00  0.00    +0.000 OA
ATOM      7  C   UNL     1       1.088   8.414  20.180  0.00  0.00    +0.000 C 
ATOM      8  C   UNL     1       2.282   7.478  19.904  0.00  0.00    +0.000 C 
ENDROOT
BRANCH   1  12
ATOM      9  C   UNL     1       6.858   5.678  16.900  0.00  0.00    +0.000 C 
ATOM     10  C   UNL     1       5.459   5.417  17.366  0.00  0.00    +0.000 A 
ATOM     11  C   UNL     1       4.616   6.462  17.712  0.00  0.00    +0.000 A 
ATOM     12  C   UNL     1       3.297   6.200  18.106  0.00  0.00    +0.000 A 
ATOM     13  C   UNL     1       2.871   4.838  18.130  0.00  0.00    +0.000 A 
ATOM     14  C   UNL     1       1.557   4.407  18.450  0.00  0.00    +0.000 A 
ATOM     15  C   UNL     1       1.209   3.056  18.470  0.00  0.00    +0.000 A 
ATOM     16  C   UNL     1       2.162   2.101  18.147  0.00  0.00    +0.000 A 
ATOM     17  C   UNL     1       3.448   2.510  17.801  0.00  0.00    +0.000 A 
ATOM     18  C   UNL     1       3.817   3.846  17.783  0.00  0.00    +0.000 A 
ATOM     19  N   UNL     1       5.074   4.126  17.412  0.00  0.00    +0.000 NA
ENDBRANCH   1  12
BRANCH   5  20
ATOM     20  O   UNL     1       0.730  10.891  21.267  0.00  0.00    +0.000 OA
BRANCH  20  21
ATOM     21  C   UNL     1      -0.575  11.276  21.590  0.00  0.00    +0.000 A 
ATOM     22  C   UNL     1      -0.992  11.374  22.910  0.00  0.00    +0.000 A 
ATOM     23  C   UNL     1      -2.230  11.951  23.178  0.00  0.00    +0.000 A 
ATOM     24  C   UNL     1      -3.024  12.454  22.141  0.00  0.00    +0.000 A 
ATOM     25  C   UNL     1      -2.495  12.316  20.855  0.00  0.00    +0.000 A 
ATOM     26  N   UNL     1      -1.294  11.756  20.554  0.00  0.00    +0.000 NA
BRANCH  24  27
ATOM     27  C   UNL     1      -4.327  13.095  22.410  0.00  0.00    +0.000 A 
ATOM     28  C   UNL     1      -4.495  13.976  23.495  0.00  0.00    +0.000 A 
ATOM     29  C   UNL     1      -5.735  14.554  23.784  0.00  0.00    +0.000 A 
ATOM     30  C   UNL     1      -6.835  14.276  22.981  0.00  0.00    +0.000 A 
ATOM     31  C   UNL     1      -6.692  13.425  21.888  0.00  0.00    +0.000 A 
ATOM     32  C   UNL     1      -5.453  12.839  21.609  0.00  0.00    +0.000 A 
ENDBRANCH  24  27
ENDBRANCH  20  21
ENDBRANCH   5  20
TORSDOF 4
ENDMDL
MODEL 4
REMARK VINA RESULT:      -9.1      1.787      1.859
REMARK  Name = 
REMARK  5 active torsions:
REMARK  status: ('A' for Active; 'I' for Inactive)
REMARK    1  A    between atoms: C_1  and  C_2
REMARK    2  A    between atoms: C_4  and  N_5
REMARK    3  A    between atoms: C_9  and  O_11
REMARK    4  A    between atoms: O_11  and  C_12
REMARK    5  A    between atoms: C_15  and  C_16
REMARK                            x       y       z     vdW  Elec       q    Type
REMARK                         _______ _______ _______ _____ _____    ______ ____
ROOT
ATOM      1  N   UNL     1       1.990   7.286  18.787  0.00  0.00    +0.000 N 
ATOM      2  C   UNL     1       2.151   8.489  17.926  0.00  0.00    +0.000 C 
ATOM      3  C   UNL     1       1.054   9.514  18.240  0.00  0.00    +0.000 C 
ATOM      4  N   UNL     1       1.043   9.830  19.666  0.00  0.00    +0.000 N 
ATOM      5  C   UNL     1       0.994  11.142  20.091  0.00  0.00    +0.000 C 
ATOM      6  O   UNL     1       1.025  12.104  19.333  0.00  0.00    +0.000 OA
ATOM      7  C   UNL     1       0.946   8.667  20.556  0.00  0.00    +0.000 C 
ATOM      8  C   UNL     1       2.045   7.634  20.234  0.00  0.00    +0.000 C 
ENDROOT
BRANCH   1  12
ATOM      9  C   UNL     1       5.827   5.239  16.392  0.00  0.00    +0.000 C 
ATOM     10  C   UNL     1       4.639   5.142  17.299  0.00  0.00    +0.000 A 
ATOM     11  C   UNL     1       3.905   6.269  17.635  0.00  0.00    +0.000 A 
ATOM     12  C   UNL     1       2.772   6.152  18.452  0.00  0.00    +0.000 A 
ATOM     13  C   UNL     1       2.415   4.847  18.907  0.00  0.00    +0.000 A 
ATOM     14  C   UNL     1       1.270   4.550  19.691  0.00  0.00    +0.000 A 
ATOM     15  C   UNL     1       0.987   3.251  20.116  0.00  0.00    +0.000 A 
ATOM     16  C   UNL     1       1.829   2.213  19.748  0.00  0.00    +0.000 A 
ATOM     17  C   UNL     1       2.941   2.485  18.953  0.00  0.00    +0.000 A 
ATOM     18  C   UNL     1       3.245   3.768  18.527  0.00  0.00    +0.000 A 
ATOM     19  N   UNL     1       4.325   3.910  17.746  0.00  0.00    +0.000 NA
ENDBRANCH   1  12
BRANCH   5  20
ATOM     20  O   UNL     1       0.860  11.240  21.461  0.00  0.00    +0.000 OA
BRANCH  20  21
ATOM     21  C   UNL     1      -0.132  12.131  21.884  0.00  0.00    +0.000 A 
ATOM     22  C   UNL     1      -1.356  11.675  22.353  0.00  0.00    +0.000 A 
ATOM     23  C   UNL     1      -2.225  12.586  22.946  0.00  0.00    +0.000 A 
ATOM     24  C   UNL     1      -1.858  13.928  23.099  0.00  0.00    +0.000 A 
ATOM     25  C   UNL     1      -0.596  14.269  22.605  0.00  0.00    +0.000 A 
ATOM     26  N   UNL     1       0.277  13.409  22.018  0.00  0.00    +0.000 NA
BRANCH  24  27
ATOM     27  C   UNL     1      -2.756  14.903  23.752  0.00  0.00    +0.000 A 
ATOM     28  C   UNL     1      -4.147  14.867  23.539  0.00  0.00    +0.000 A 
ATOM     29  C   UNL     1      -5.001  15.812  24.116  0.00  0.00    +0.000 A 
ATOM     30  C   UNL     1      -4.482  16.807  24.937  0.00  0.00    +0.000 A 
ATOM     31  C   UNL     1      -3.112  16.853  25.182  0.00  0.00    +0.000 A 
ATOM     32  C   UNL     1      -2.260  15.914  24.593  0.00  0.00    +0.000 A 
ENDBRANCH  24  27
ENDBRANCH  20  21
ENDBRANCH   5  20
TORSDOF 4
ENDMDL
MODEL 5
REMARK VINA RESULT:      -9.1      0.880      1.415
REMARK  Name = 
REMARK  5 active torsions:
REMARK  status: ('A' for Active; 'I' for Inactive)
REMARK    1  A    between atoms: C_1  and  C_2
REMARK    2  A    between atoms: C_4  and  N_5
REMARK    3  A    between atoms: C_9  and  O_11
REMARK    4  A    between atoms: O_11  and  C_12
REMARK    5  A    between atoms: C_15  and  C_16
REMARK                            x       y       z     vdW  Elec       q    Type
REMARK                         _______ _______ _______ _____ _____    ______ ____
ROOT
ATOM      1  N   UNL     1       2.029   7.406  18.982  0.00  0.00    +0.000 N 
ATOM      2  C   UNL     1       2.286   8.560  18.078  0.00  0.00    +0.000 C 
ATOM      3  C   UNL     1       1.174   9.607  18.230  0.00  0.00    +0.000 C 
ATOM      4  N   UNL     1       1.028   9.998  19.630  0.00  0.00    +0.000 N 
ATOM      5  C   UNL     1       0.953  11.331  19.980  0.00  0.00    +0.000 C 
ATOM      6  O   UNL     1       1.067  12.251  19.178  0.00  0.00    +0.000 OA
ATOM      7  C   UNL     1       0.834   8.884  20.567  0.00  0.00    +0.000 C 
ATOM      8  C   UNL     1       1.948   7.829  20.407  0.00  0.00    +0.000 C 
ENDROOT
BRANCH   1  12
ATOM      9  C   UNL     1       5.948   5.165  16.914  0.00  0.00    +0.000 C 
ATOM     10  C   UNL     1       4.734   5.149  17.791  0.00  0.00    +0.000 A 
ATOM     11  C   UNL     1       3.983   6.297  17.992  0.00  0.00    +0.000 A 
ATOM     12  C   UNL     1       2.828   6.251  18.784  0.00  0.00    +0.000 A 
ATOM     13  C   UNL     1       2.466   4.995  19.356  0.00  0.00    +0.000 A 
ATOM     14  C   UNL     1       1.301   4.766  20.133  0.00  0.00    +0.000 A 
ATOM     15  C   UNL     1       1.013   3.514  20.678  0.00  0.00    +0.000 A 
ATOM     16  C   UNL     1       1.872   2.452  20.440  0.00  0.00    +0.000 A 
ATOM     17  C   UNL     1       3.005   2.654  19.654  0.00  0.00    +0.000 A 
ATOM     18  C   UNL     1       3.314   3.890  19.110  0.00  0.00    +0.000 A 
ATOM     19  N   UNL     1       4.415   3.964  18.350  0.00  0.00    +0.000 NA
ENDBRANCH   1  12
BRANCH   5  20
ATOM     20  O   UNL     1       0.688  11.502  21.322  0.00  0.00    +0.000 OA
BRANCH  20  21
ATOM     21  C   UNL     1      -0.664  11.689  21.628  0.00  0.00    +0.000 A 
ATOM     22  C   UNL     1      -1.142  11.510  22.919  0.00  0.00    +0.000 A 
ATOM     23  C   UNL     1      -2.445  11.901  23.208  0.00  0.00    +0.000 A 
ATOM     24  C   UNL     1      -3.248  12.495  22.227  0.00  0.00    +0.000 A 
ATOM     25  C   UNL     1      -2.656  12.640  20.969  0.00  0.00    +0.000 A 
ATOM     26  N   UNL     1      -1.389  12.268  20.649  0.00  0.00    +0.000 NA
BRANCH  24  27
ATOM     27  C   UNL     1      -4.624  12.943  22.524  0.00  0.00    +0.000 A 
ATOM     28  C   UNL     1      -5.121  12.944  23.841  0.00  0.00    +0.000 A 
ATOM     29  C   UNL     1      -6.436  13.323  24.128  0.00  0.00    +0.000 A 
ATOM     30  C   UNL     1      -7.281  13.728  23.101  0.00  0.00    +0.000 A 
ATOM     31  C   UNL     1      -6.809  13.757  21.792  0.00  0.00    +0.000 A 
ATOM     32  C   UNL     1      -5.497  13.365  21.507  0.00  0.00    +0.000 A 
ENDBRANCH  24  27
ENDBRANCH  20  21
ENDBRANCH   5  20
TORSDOF 4
ENDMDL
MODEL 6
REMARK VINA RESULT:      -9.0      3.939     10.608
REMARK  Name = 
REMARK  5 active torsions:
REMARK  status: ('A' for Active; 'I' for Inactive)
REMARK    1  A    between atoms: C_1  and  C_2
REMARK    2  A    between atoms: C_4  and  N_5
REMARK    3  A    between atoms: C_9  and  O_11
REMARK    4  A    between atoms: O_11  and  C_12
REMARK    5  A    between atoms: C_15  and  C_16
REMARK                            x       y       z     vdW  Elec       q    Type
REMARK                         _______ _______ _______ _____ _____    ______ ____
ROOT
ATOM      1  N   UNL     1       1.087  14.207  19.510  0.00  0.00    +0.000 N 
ATOM      2  C   UNL     1       1.647  13.832  20.836  0.00  0.00    +0.000 C 
ATOM      3  C   UNL     1       0.710  12.845  21.545  0.00  0.00    +0.000 C 
ATOM      4  N   UNL     1       0.442  11.691  20.691  0.00  0.00    +0.000 N 
ATOM      5  C   UNL     1       0.538  10.410  21.195  0.00  0.00    +0.000 C 
ATOM      6  O   UNL     1       0.908  10.154  22.336  0.00  0.00    +0.000 OA
ATOM      7  C   UNL     1      -0.055  12.017  19.349  0.00  0.00    +0.000 C 
ATOM      8  C   UNL     1       0.883  13.015  18.641  0.00  0.00    +0.000 C 
ENDROOT
BRANCH   1  12
ATOM      9  C   UNL     1       5.168  16.502  17.860  0.00  0.00    +0.000 C 
ATOM     10  C   UNL     1       3.682  16.417  18.024  0.00  0.00    +0.000 A 
ATOM     11  C   UNL     1       3.095  15.333  18.659  0.00  0.00    +0.000 A 
ATOM     12  C   UNL     1       1.706  15.292  18.839  0.00  0.00    +0.000 A 
ATOM     13  C   UNL     1       0.942  16.394  18.352  0.00  0.00    +0.000 A 
ATOM     14  C   UNL     1      -0.463  16.533  18.503  0.00  0.00    +0.000 A 
ATOM     15  C   UNL     1      -1.153  17.631  17.988  0.00  0.00    +0.000 A 
ATOM     16  C   UNL     1      -0.453  18.631  17.330  0.00  0.00    +0.000 A 
ATOM     17  C   UNL     1       0.931  18.523  17.200  0.00  0.00    +0.000 A 
ATOM     18  C   UNL     1       1.635  17.437  17.696  0.00  0.00    +0.000 A 
ATOM     19  N   UNL     1       2.965  17.449  17.536  0.00  0.00    +0.000 NA
ENDBRANCH   1  12
BRANCH   5  20
ATOM     20  O   UNL     1       0.126   9.460  20.285  0.00  0.00    +0.000 OA
BRANCH  20  21
ATOM     21  C   UNL     1       1.162   8.704  19.725  0.00  0.00    +0.000 A 
ATOM     22  C   UNL     1       1.616   7.543  20.335  0.00  0.00    +0.000 A 
ATOM     23  C   UNL     1       2.503   6.727  19.639  0.00  0.00    +0.000 A 
ATOM     24  C   UNL     1       2.903   7.052  18.338  0.00  0.00    +0.000 A 
ATOM     25  C   UNL     1       2.369   8.235  17.820  0.00  0.00    +0.000 A 
ATOM     26  N   UNL     1       1.504   9.058  18.470  0.00  0.00    +0.000 NA
BRANCH  24  27
ATOM     27  C   UNL     1       3.822   6.183  17.574  0.00  0.00    +0.000 A 
ATOM     28  C   UNL     1       3.811   4.786  17.743  0.00  0.00    +0.000 A 
ATOM     29  C   UNL     1       4.706   3.958  17.058  0.00  0.00    +0.000 A 
ATOM     30  C   UNL     1       5.623   4.511  16.172  0.00  0.00    +0.000 A 
ATOM     31  C   UNL     1       5.641   5.888  15.969  0.00  0.00    +0.000 A 
ATOM     32  C   UNL     1       4.753   6.714  16.665  0.00  0.00    +0.000 A 
ENDBRANCH  24  27
ENDBRANCH  20  21
ENDBRANCH   5  20
TORSDOF 4
ENDMDL
MODEL 7
REMARK VINA RESULT:      -9.0      0.973      1.062
REMARK  Name = 
REMARK  5 active torsions:
REMARK  status: ('A' for Active; 'I' for Inactive)
REMARK    1  A    between atoms: C_1  and  C_2
REMARK    2  A    between atoms: C_4  and  N_5
REMARK    3  A    between atoms: C_9  and  O_11
REMARK    4  A    between atoms: O_11  and  C_12
REMARK    5  A    between atoms: C_15  and  C_16
REMARK                            x       y       z     vdW  Elec       q    Type
REMARK                         _______ _______ _______ _____ _____    ______ ____
ROOT
ATOM      1  N   UNL     1       2.418   7.163  18.504  0.00  0.00    +0.000 N 
ATOM      2  C   UNL     1       2.613   8.409  17.716  0.00  0.00    +0.000 C 
ATOM      3  C   UNL     1       1.416   9.350  17.911  0.00  0.00    +0.000 C 
ATOM      4  N   UNL     1       1.190   9.601  19.333  0.00  0.00    +0.000 N 
ATOM      5  C   UNL     1       0.996  10.887  19.793  0.00  0.00    +0.000 C 
ATOM      6  O   UNL     1       1.064  11.882  19.081  0.00  0.00    +0.000 OA
ATOM      7  C   UNL     1       1.053   8.396  20.160  0.00  0.00    +0.000 C 
ATOM      8  C   UNL     1       2.253   7.448  19.956  0.00  0.00    +0.000 C 
ENDROOT
BRANCH   1  12
ATOM      9  C   UNL     1       6.939   5.519  17.274  0.00  0.00    +0.000 C 
ATOM     10  C   UNL     1       5.509   5.280  17.650  0.00  0.00    +0.000 A 
ATOM     11  C   UNL     1       4.658   6.338  17.930  0.00  0.00    +0.000 A 
ATOM     12  C   UNL     1       3.314   6.095  18.240  0.00  0.00    +0.000 A 
ATOM     13  C   UNL     1       2.870   4.738  18.249  0.00  0.00    +0.000 A 
ATOM     14  C   UNL     1       1.533   4.327  18.487  0.00  0.00    +0.000 A 
ATOM     15  C   UNL     1       1.168   2.980  18.497  0.00  0.00    +0.000 A 
ATOM     16  C   UNL     1       2.128   2.011  18.245  0.00  0.00    +0.000 A 
ATOM     17  C   UNL     1       3.439   2.401  17.981  0.00  0.00    +0.000 A 
ATOM     18  C   UNL     1       3.824   3.732  17.974  0.00  0.00    +0.000 A 
ATOM     19  N   UNL     1       5.106   3.994  17.683  0.00  0.00    +0.000 NA
ENDBRANCH   1  12
BRANCH   5  20
ATOM     20  O   UNL     1       0.671  10.916  21.134  0.00  0.00    +0.000 OA
BRANCH  20  21
ATOM     21  C   UNL     1      -0.421  11.732  21.449  0.00  0.00    +0.000 A 
ATOM     22  C   UNL     1      -1.510  11.838  20.595  0.00  0.00    +0.000 A 
ATOM     23  C   UNL     1      -2.649  12.499  21.045  0.00  0.00    +0.000 A 
ATOM     24  C   UNL     1      -2.709  13.016  22.344  0.00  0.00    +0.000 A 
ATOM     25  C   UNL     1      -1.560  12.835  23.120  0.00  0.00    +0.000 A 
ATOM     26  N   UNL     1      -0.430  12.199  22.714  0.00  0.00    +0.000 NA
BRANCH  24  27
ATOM     27  C   UNL     1      -3.920  13.695  22.849  0.00  0.00    +0.000 A 
ATOM     28  C   UNL     1      -3.848  14.977  23.425  0.00  0.00    +0.000 A 
ATOM     29  C   UNL     1      -4.981  15.611  23.946  0.00  0.00    +0.000 A 
ATOM     30  C   UNL     1      -6.219  14.981  23.884  0.00  0.00    +0.000 A 
ATOM     31  C   UNL     1      -6.322  13.722  23.299  0.00  0.00    +0.000 A 
ATOM     32  C   UNL     1      -5.185  13.086  22.791  0.00  0.00    +0.000 A 
ENDBRANCH  24  27
ENDBRANCH  20  21
ENDBRANCH   5  20
TORSDOF 4
ENDMDL
MODEL 8
REMARK VINA RESULT:      -8.9      1.121      1.220
REMARK  Name = 
REMARK  5 active torsions:
REMARK  status: ('A' for Active; 'I' for Inactive)
REMARK    1  A    between atoms: C_1  and  C_2
REMARK    2  A    between atoms: C_4  and  N_5
REMARK    3  A    between atoms: C_9  and  O_11
REMARK    4  A    between atoms: O_11  and  C_12
REMARK    5  A    between atoms: C_15  and  C_16
REMARK                            x       y       z     vdW  Elec       q    Type
REMARK                         _______ _______ _______ _____ _____    ______ ____
ROOT
ATOM      1  N   UNL     1       2.034   7.376  19.072  0.00  0.00    +0.000 N 
ATOM      2  C   UNL     1       2.287   8.549  18.193  0.00  0.00    +0.000 C 
ATOM      3  C   UNL     1       1.165   9.583  18.356  0.00  0.00    +0.000 C 
ATOM      4  N   UNL     1       1.005   9.946  19.762  0.00  0.00    +0.000 N 
ATOM      5  C   UNL     1       0.915  11.271  20.136  0.00  0.00    +0.000 C 
ATOM      6  O   UNL     1       1.027  12.208  19.353  0.00  0.00    +0.000 OA
ATOM      7  C   UNL     1       0.813   8.813  20.676  0.00  0.00    +0.000 C 
ATOM      8  C   UNL     1       1.937   7.771  20.505  0.00  0.00    +0.000 C 
ENDROOT
BRANCH   1  12
ATOM      9  C   UNL     1       5.940   5.188  16.927  0.00  0.00    +0.000 C 
ATOM     10  C   UNL     1       4.745   5.155  17.829  0.00  0.00    +0.000 A 
ATOM     11  C   UNL     1       3.982   6.293  18.045  0.00  0.00    +0.000 A 
ATOM     12  C   UNL     1       2.844   6.232  18.860  0.00  0.00    +0.000 A 
ATOM     13  C   UNL     1       2.512   4.971  19.440  0.00  0.00    +0.000 A 
ATOM     14  C   UNL     1       1.366   4.727  20.241  0.00  0.00    +0.000 A 
ATOM     15  C   UNL     1       1.107   3.472  20.793  0.00  0.00    +0.000 A 
ATOM     16  C   UNL     1       1.976   2.422  20.538  0.00  0.00    +0.000 A 
ATOM     17  C   UNL     1       3.090   2.638  19.729  0.00  0.00    +0.000 A 
ATOM     18  C   UNL     1       3.370   3.879  19.177  0.00  0.00    +0.000 A 
ATOM     19  N   UNL     1       4.454   3.967  18.395  0.00  0.00    +0.000 NA
ENDBRANCH   1  12
BRANCH   5  20
ATOM     20  O   UNL     1       0.638  11.415  21.479  0.00  0.00    +0.000 OA
BRANCH  20  21
ATOM     21  C   UNL     1      -0.525  12.141  21.758  0.00  0.00    +0.000 A 
ATOM     22  C   UNL     1      -1.634  12.071  20.926  0.00  0.00    +0.000 A 
ATOM     23  C   UNL     1      -2.826  12.649  21.352  0.00  0.00    +0.000 A 
ATOM     24  C   UNL     1      -2.915  13.258  22.609  0.00  0.00    +0.000 A 
ATOM     25  C   UNL     1      -1.740  13.255  23.367  0.00  0.00    +0.000 A 
ATOM     26  N   UNL     1      -0.559  12.704  22.983  0.00  0.00    +0.000 NA
BRANCH  24  27
ATOM     27  C   UNL     1      -4.180  13.853  23.090  0.00  0.00    +0.000 A 
ATOM     28  C   UNL     1      -5.319  13.057  23.310  0.00  0.00    +0.000 A 
ATOM     29  C   UNL     1      -6.533  13.615  23.722  0.00  0.00    +0.000 A 
ATOM     30  C   UNL     1      -6.629  14.984  23.942  0.00  0.00    +0.000 A 
ATOM     31  C   UNL     1      -5.511  15.792  23.753  0.00  0.00    +0.000 A 
ATOM     32  C   UNL     1      -4.302  15.232  23.328  0.00  0.00    +0.000 A 
ENDBRANCH  24  27
ENDBRANCH  20  21
ENDBRANCH   5  20
TORSDOF 4
ENDMDL
MODEL 9
REMARK VINA RESULT:      -8.7      1.268      1.394
REMARK  Name = 
REMARK  5 active torsions:
REMARK  status: ('A' for Active; 'I' for Inactive)
REMARK    1  A    between atoms: C_1  and  C_2
REMARK    2  A    between atoms: C_4  and  N_5
REMARK    3  A    between atoms: C_9  and  O_11
REMARK    4  A    between atoms: O_11  and  C_12
REMARK    5  A    between atoms: C_15  and  C_16
REMARK                            x       y       z     vdW  Elec       q    Type
REMARK                         _______ _______ _______ _____ _____    ______ ____
ROOT
ATOM      1  N   UNL     1       1.787   7.581  19.045  0.00  0.00    +0.000 N 
ATOM      2  C   UNL     1       1.869   8.773  18.159  0.00  0.00    +0.000 C 
ATOM      3  C   UNL     1       0.770   9.780  18.525  0.00  0.00    +0.000 C 
ATOM      4  N   UNL     1       0.838  10.117  19.945  0.00  0.00    +0.000 N 
ATOM      5  C   UNL     1       0.787  11.434  20.354  0.00  0.00    +0.000 C 
ATOM      6  O   UNL     1       0.751  12.385  19.581  0.00  0.00    +0.000 OA
ATOM      7  C   UNL     1       0.822   8.966  20.855  0.00  0.00    +0.000 C 
ATOM      8  C   UNL     1       1.922   7.951  20.481  0.00  0.00    +0.000 C 
ENDROOT
BRANCH   1  12
ATOM      9  C   UNL     1       5.390   5.537  16.308  0.00  0.00    +0.000 C 
ATOM     10  C   UNL     1       4.327   5.451  17.360  0.00  0.00    +0.000 A 
ATOM     11  C   UNL     1       3.589   6.568  17.722  0.00  0.00    +0.000 A 
ATOM     12  C   UNL     1       2.572   6.458  18.679  0.00  0.00    +0.000 A 
ATOM     13  C   UNL     1       2.332   5.171  19.246  0.00  0.00    +0.000 A 
ATOM     14  C   UNL     1       1.307   4.879  20.183  0.00  0.00    +0.000 A 
ATOM     15  C   UNL     1       1.136   3.600  20.712  0.00  0.00    +0.000 A 
ATOM     16  C   UNL     1       1.972   2.573  20.300  0.00  0.00    +0.000 A 
ATOM     17  C   UNL     1       2.965   2.837  19.359  0.00  0.00    +0.000 A 
ATOM     18  C   UNL     1       3.157   4.102  18.827  0.00  0.00    +0.000 A 
ATOM     19  N   UNL     1       4.126   4.237  17.911  0.00  0.00    +0.000 NA
ENDBRANCH   1  12
BRANCH   5  20
ATOM     20  O   UNL     1       0.734  11.550  21.727  0.00  0.00    +0.000 OA
BRANCH  20  21
ATOM     21  C   UNL     1      -0.390  12.230  22.209  0.00  0.00    +0.000 A 
ATOM     22  C   UNL     1      -0.508  13.606  22.082  0.00  0.00    +0.000 A 
ATOM     23  C   UNL     1      -1.725  14.204  22.395  0.00  0.00    +0.000 A 
ATOM     24  C   UNL     1      -2.820  13.429  22.795  0.00  0.00    +0.000 A 
ATOM     25  C   UNL     1      -2.589  12.052  22.870  0.00  0.00    +0.000 A 
ATOM     26  N   UNL     1      -1.415  11.434  22.577  0.00  0.00    +0.000 NA
BRANCH  24  27
ATOM     27  C   UNL     1      -4.128  14.043  23.103  0.00  0.00    +0.000 A 
ATOM     28  C   UNL     1      -4.215  15.236  23.844  0.00  0.00    +0.000 A 
ATOM     29  C   UNL     1      -5.449  15.802  24.179  0.00  0.00    +0.000 A 
ATOM     30  C   UNL     1      -6.628  15.193  23.763  0.00  0.00    +0.000 A 
ATOM     31  C   UNL     1      -6.570  14.024  23.009  0.00  0.00    +0.000 A 
ATOM     32  C   UNL     1      -5.334  13.454  22.687  0.00  0.00    +0.000 A 
ENDBRANCH  24  27
ENDBRANCH  20  21
ENDBRANCH   5  20
TORSDOF 4
ENDMDL
