MODEL 1
REMARK VINA RESULT:      -7.4      0.000      0.000
REMARK  Name = 
REMARK  4 active torsions:
REMARK  status: ('A' for Active; 'I' for Inactive)
REMARK    1  A    between atoms: C_1  and  O_2
REMARK    2  A    between atoms: O_2  and  C_3
REMARK    3  A    between atoms: C_6  and  O_7
REMARK    4  A    between atoms: O_7  and  C_8
REMARK                            x       y       z     vdW  Elec       q    Type
REMARK                         _______ _______ _______ _____ _____    ______ ____
ROOT
ATOM      1  C   UNL     1       5.275   5.644  16.593  0.00  0.00    +0.000 A 
ATOM      2  C   UNL     1       5.464   5.591  15.240  0.00  0.00    +0.000 A 
ATOM      3  C   UNL     1       6.639   5.009  14.861  0.00  0.00    +0.000 A 
ATOM      4  F   UNL     1       6.889   4.887  13.549  0.00  0.00    +0.000 F 
ATOM      5  N   UNL     1       7.566   4.532  15.707  0.00  0.00    +0.000 NA
ATOM      6  C   UNL     1       7.301   4.683  17.001  0.00  0.00    +0.000 A 
ATOM      7  N   UNL     1       8.224   4.209  17.906  0.00  0.00    +0.000 N 
ATOM      8  N   UNL     1       6.183   5.214  17.490  0.00  0.00    +0.000 NA
ATOM      9  H   UNL     1       8.796   3.487  17.492  0.00  0.00    +0.000 HD
ATOM     10  H   UNL     1       7.784   4.011  18.793  0.00  0.00    +0.000 HD
ENDROOT
BRANCH   1  11
ATOM     11  O   UNL     1       4.089   6.221  17.028  0.00  0.00    +0.000 OA
BRANCH  11  15
ATOM     12  C   UNL     1       1.614   4.244  19.752  0.00  0.00    +0.000 A 
ATOM     13  C   UNL     1       2.291   5.416  20.097  0.00  0.00    +0.000 A 
ATOM     14  C   UNL     1       3.119   6.056  19.171  0.00  0.00    +0.000 A 
ATOM     15  C   UNL     1       3.296   5.510  17.900  0.00  0.00    +0.000 A 
ATOM     16  C   UNL     1       2.610   4.345  17.547  0.00  0.00    +0.000 A 
ATOM     17  C   UNL     1       1.785   3.705  18.477  0.00  0.00    +0.000 A 
BRANCH  12  19
ATOM     18  C   UNL     1       1.470   2.731  21.562  0.00  0.00    +0.000 C 
ATOM     19  O   UNL     1       0.837   3.705  20.740  0.00  0.00    +0.000 OA
ENDBRANCH  12  19
ENDBRANCH  11  15
ENDBRANCH   1  11
TORSDOF 3
ENDMDL
MODEL 2
REMARK VINA RESULT:      -7.3      0.271      1.200
REMARK  Name = 
REMARK  4 active torsions:
REMARK  status: ('A' for Active; 'I' for Inactive)
REMARK    1  A    between atoms: C_1  and  O_2
REMARK    2  A    between atoms: O_2  and  C_3
REMARK    3  A    between atoms: C_6  and  O_7
REMARK    4  A    between atoms: O_7  and  C_8
REMARK                            x       y       z     vdW  Elec       q    Type
REMARK                         _______ _______ _______ _____ _____    ______ ____
ROOT
ATOM      1  C   UNL     1       5.175   5.820  16.707  0.00  0.00    +0.000 A 
ATOM      2  C   UNL     1       5.418   5.714  15.366  0.00  0.00    +0.000 A 
ATOM      3  C   UNL     1       6.584   5.074  15.056  0.00  0.00    +0.000 A 
ATOM      4  F   UNL     1       6.884   4.899  13.761  0.00  0.00    +0.000 F 
ATOM      5  N   UNL     1       7.454   4.590  15.957  0.00  0.00    +0.000 NA
ATOM      6  C   UNL     1       7.140   4.794  17.233  0.00  0.00    +0.000 A 
ATOM      7  N   UNL     1       8.004   4.314  18.192  0.00  0.00    +0.000 N 
ATOM      8  N   UNL     1       6.025   5.385  17.655  0.00  0.00    +0.000 NA
ATOM      9  H   UNL     1       8.563   3.557  17.826  0.00  0.00    +0.000 HD
ATOM     10  H   UNL     1       7.519   4.164  19.064  0.00  0.00    +0.000 HD
ENDROOT
BRANCH   1  11
ATOM     11  O   UNL     1       3.995   6.457  17.071  0.00  0.00    +0.000 OA
BRANCH  11  15
ATOM     12  C   UNL     1       1.628   4.452  19.868  0.00  0.00    +0.000 A 
ATOM     13  C   UNL     1       1.833   3.941  18.584  0.00  0.00    +0.000 A 
ATOM     14  C   UNL     1       2.623   4.633  17.662  0.00  0.00    +0.000 A 
ATOM     15  C   UNL     1       3.192   5.858  18.014  0.00  0.00    +0.000 A 
ATOM     16  C   UNL     1       3.001   6.364  19.302  0.00  0.00    +0.000 A 
ATOM     17  C   UNL     1       2.206   5.671  20.220  0.00  0.00    +0.000 A 
BRANCH  12  19
ATOM     18  C   UNL     1       1.500   2.668  21.414  0.00  0.00    +0.000 C 
ATOM     19  O   UNL     1       0.834   3.689  20.680  0.00  0.00    +0.000 OA
ENDBRANCH  12  19
ENDBRANCH  11  15
ENDBRANCH   1  11
TORSDOF 3
ENDMDL
MODEL 3
REMARK VINA RESULT:      -7.2      1.437      1.961
REMARK  Name = 
REMARK  4 active torsions:
REMARK  status: ('A' for Active; 'I' for Inactive)
REMARK    1  A    between atoms: C_1  and  O_2
REMARK    2  A    between atoms: O_2  and  C_3
REMARK    3  A    between atoms: C_6  and  O_7
REMARK    4  A    between atoms: O_7  and  C_8
REMARK                            x       y       z     vdW  Elec       q    Type
REMARK                         _______ _______ _______ _____ _____    ______ ____
ROOT
ATOM      1  C   UNL     1       5.388   5.722  16.842  0.00  0.00    +0.000 A 
ATOM      2  C   UNL     1       6.233   5.205  17.783  0.00  0.00    +0.000 A 
ATOM      3  C   UNL     1       7.387   4.680  17.273  0.00  0.00    +0.000 A 
ATOM      4  F   UNL     1       8.287   4.180  18.131  0.00  0.00    +0.000 F 
ATOM      5  N   UNL     1       7.697   4.639  15.967  0.00  0.00    +0.000 NA
ATOM      6  C   UNL     1       6.778   5.125  15.138  0.00  0.00    +0.000 A 
ATOM      7  N   UNL     1       7.054   5.103  13.789  0.00  0.00    +0.000 N 
ATOM      8  N   UNL     1       5.629   5.679  15.518  0.00  0.00    +0.000 NA
ATOM      9  H   UNL     1       8.050   5.068  13.625  0.00  0.00    +0.000 HD
ATOM     10  H   UNL     1       6.521   5.811  13.305  0.00  0.00    +0.000 HD
ENDROOT
BRANCH   1  11
ATOM     11  O   UNL     1       4.204   6.275  17.314  0.00  0.00    +0.000 OA
BRANCH  11  15
ATOM     12  C   UNL     1       1.598   4.041  19.694  0.00  0.00    +0.000 A 
ATOM     13  C   UNL     1       2.353   5.090  20.223  0.00  0.00    +0.000 A 
ATOM     14  C   UNL     1       3.224   5.820  19.409  0.00  0.00    +0.000 A 
ATOM     15  C   UNL     1       3.365   5.483  18.062  0.00  0.00    +0.000 A 
ATOM     16  C   UNL     1       2.600   4.442  17.527  0.00  0.00    +0.000 A 
ATOM     17  C   UNL     1       1.733   3.713  18.345  0.00  0.00    +0.000 A 
BRANCH  12  19
ATOM     18  C   UNL     1       1.446   2.733  21.658  0.00  0.00    +0.000 C 
ATOM     19  O   UNL     1       0.785   3.398  20.587  0.00  0.00    +0.000 OA
ENDBRANCH  12  19
ENDBRANCH  11  15
ENDBRANCH   1  11
TORSDOF 3
ENDMDL
MODEL 4
REMARK VINA RESULT:      -7.1      2.161      2.480
REMARK  Name = 
REMARK  4 active torsions:
REMARK  status: ('A' for Active; 'I' for Inactive)
REMARK    1  A    between atoms: C_1  and  O_2
REMARK    2  A    between atoms: O_2  and  C_3
REMARK    3  A    between atoms: C_6  and  O_7
REMARK    4  A    between atoms: O_7  and  C_8
REMARK                            x       y       z     vdW  Elec       q    Type
REMARK                         _______ _______ _______ _____ _____    ______ ____
ROOT
ATOM      1  C   UNL     1       6.301   5.097  17.641  0.00  0.00    +0.000 A 
ATOM      2  C   UNL     1       6.425   6.323  17.049  0.00  0.00    +0.000 A 
ATOM      3  C   UNL     1       7.342   7.143  17.643  0.00  0.00    +0.000 A 
ATOM      4  F   UNL     1       7.548   8.354  17.106  0.00  0.00    +0.000 F 
ATOM      5  N   UNL     1       8.068   6.821  18.726  0.00  0.00    +0.000 NA
ATOM      6  C   UNL     1       7.830   5.621  19.247  0.00  0.00    +0.000 A 
ATOM      7  N   UNL     1       8.552   5.249  20.359  0.00  0.00    +0.000 N 
ATOM      8  N   UNL     1       6.977   4.731  18.746  0.00  0.00    +0.000 NA
ATOM      9  H   UNL     1       9.419   5.764  20.415  0.00  0.00    +0.000 HD
ATOM     10  H   UNL     1       8.596   4.243  20.434  0.00  0.00    +0.000 HD
ENDROOT
BRANCH   1  11
ATOM     11  O   UNL     1       5.386   4.225  17.066  0.00  0.00    +0.000 OA
BRANCH  11  15
ATOM     12  C   UNL     1       1.956   3.418  19.308  0.00  0.00    +0.000 A 
ATOM     13  C   UNL     1       3.191   2.852  19.633  0.00  0.00    +0.000 A 
ATOM     14  C   UNL     1       4.324   3.131  18.864  0.00  0.00    +0.000 A 
ATOM     15  C   UNL     1       4.220   3.959  17.745  0.00  0.00    +0.000 A 
ATOM     16  C   UNL     1       2.988   4.537  17.426  0.00  0.00    +0.000 A 
ATOM     17  C   UNL     1       1.856   4.252  18.196  0.00  0.00    +0.000 A 
BRANCH  12  19
ATOM     18  C   UNL     1       1.279   2.694  21.455  0.00  0.00    +0.000 C 
ATOM     19  O   UNL     1       0.919   3.069  20.130  0.00  0.00    +0.000 OA
ENDBRANCH  12  19
ENDBRANCH  11  15
ENDBRANCH   1  11
TORSDOF 3
ENDMDL
MODEL 5
REMARK VINA RESULT:      -7.1      2.214      2.466
REMARK  Name = 
REMARK  4 active torsions:
REMARK  status: ('A' for Active; 'I' for Inactive)
REMARK    1  A    between atoms: C_1  and  O_2
REMARK    2  A    between atoms: O_2  and  C_3
REMARK    3  A    between atoms: C_6  and  O_7
REMARK    4  A    between atoms: O_7  and  C_8
REMARK                            x       y       z     vdW  Elec       q    Type
REMARK                         _______ _______ _______ _____ _____    ______ ____
ROOT
ATOM      1  C   UNL     1       6.277   5.274  17.605  0.00  0.00    +0.000 A 
ATOM      2  C   UNL     1       6.520   6.486  17.023  0.00  0.00    +0.000 A 
ATOM      3  C   UNL     1       7.480   7.227  17.652  0.00  0.00    +0.000 A 
ATOM      4  F   UNL     1       7.803   8.418  17.128  0.00  0.00    +0.000 F 
ATOM      5  N   UNL     1       8.139   6.846  18.758  0.00  0.00    +0.000 NA
ATOM      6  C   UNL     1       7.785   5.669  19.266  0.00  0.00    +0.000 A 
ATOM      7  N   UNL     1       8.435   5.237  20.401  0.00  0.00    +0.000 N 
ATOM      8  N   UNL     1       6.881   4.852  18.731  0.00  0.00    +0.000 NA
ATOM      9  H   UNL     1       9.339   5.680  20.489  0.00  0.00    +0.000 HD
ATOM     10  H   UNL     1       8.395   4.231  20.472  0.00  0.00    +0.000 HD
ENDROOT
BRANCH   1  11
ATOM     11  O   UNL     1       5.314   4.480  16.994  0.00  0.00    +0.000 OA
BRANCH  11  15
ATOM     12  C   UNL     1       2.223   2.935  19.342  0.00  0.00    +0.000 A 
ATOM     13  C   UNL     1       2.513   4.302  19.322  0.00  0.00    +0.000 A 
ATOM     14  C   UNL     1       3.557   4.795  18.534  0.00  0.00    +0.000 A 
ATOM     15  C   UNL     1       4.336   3.916  17.781  0.00  0.00    +0.000 A 
ATOM     16  C   UNL     1       4.039   2.551  17.788  0.00  0.00    +0.000 A 
ATOM     17  C   UNL     1       2.997   2.060  18.580  0.00  0.00    +0.000 A 
BRANCH  12  19
ATOM     18  C   UNL     1       1.377   2.796  21.545  0.00  0.00    +0.000 C 
ATOM     19  O   UNL     1       1.184   2.570  20.153  0.00  0.00    +0.000 OA
ENDBRANCH  12  19
ENDBRANCH  11  15
ENDBRANCH   1  11
TORSDOF 3
ENDMDL
MODEL 6
REMARK VINA RESULT:      -7.0      1.160      1.363
REMARK  Name = 
REMARK  4 active torsions:
REMARK  status: ('A' for Active; 'I' for Inactive)
REMARK    1  A    between atoms: C_1  and  O_2
REMARK    2  A    between atoms: O_2  and  C_3
REMARK    3  A    between atoms: C_6  and  O_7
REMARK    4  A    between atoms: O_7  and  C_8
REMARK                            x       y       z     vdW  Elec       q    Type
REMARK                         _______ _______ _______ _____ _____    ______ ____
ROOT
ATOM      1  C   UNL     1       5.060   4.153  16.041  0.00  0.00    +0.000 A 
ATOM      2  C   UNL     1       5.589   4.505  14.830  0.00  0.00    +0.000 A 
ATOM      3  C   UNL     1       6.910   4.849  14.874  0.00  0.00    +0.000 A 
ATOM      4  F   UNL     1       7.515   5.177  13.724  0.00  0.00    +0.000 F 
ATOM      5  N   UNL     1       7.658   4.871  15.988  0.00  0.00    +0.000 NA
ATOM      6  C   UNL     1       7.027   4.559  17.116  0.00  0.00    +0.000 A 
ATOM      7  N   UNL     1       7.756   4.569  18.284  0.00  0.00    +0.000 N 
ATOM      8  N   UNL     1       5.751   4.188  17.195  0.00  0.00    +0.000 NA
ATOM      9  H   UNL     1       8.741   4.447  18.096  0.00  0.00    +0.000 HD
ATOM     10  H   UNL     1       7.330   3.967  18.975  0.00  0.00    +0.000 HD
ENDROOT
BRANCH   1  11
ATOM     11  O   UNL     1       3.720   3.786  16.045  0.00  0.00    +0.000 OA
BRANCH  11  15
ATOM     12  C   UNL     1       1.690   3.355  19.670  0.00  0.00    +0.000 A 
ATOM     13  C   UNL     1       1.854   4.605  19.069  0.00  0.00    +0.000 A 
ATOM     14  C   UNL     1       2.543   4.726  17.859  0.00  0.00    +0.000 A 
ATOM     15  C   UNL     1       3.098   3.596  17.257  0.00  0.00    +0.000 A 
ATOM     16  C   UNL     1       2.923   2.342  17.849  0.00  0.00    +0.000 A 
ATOM     17  C   UNL     1       2.236   2.226  19.062  0.00  0.00    +0.000 A 
BRANCH  12  19
ATOM     18  C   UNL     1       1.557   2.564  21.894  0.00  0.00    +0.000 C 
ATOM     19  O   UNL     1       1.003   3.362  20.853  0.00  0.00    +0.000 OA
ENDBRANCH  12  19
ENDBRANCH  11  15
ENDBRANCH   1  11
TORSDOF 3
ENDMDL
MODEL 7
REMARK VINA RESULT:      -7.0      1.481      2.292
REMARK  Name = 
REMARK  4 active torsions:
REMARK  status: ('A' for Active; 'I' for Inactive)
REMARK    1  A    between atoms: C_1  and  O_2
REMARK    2  A    between atoms: O_2  and  C_3
REMARK    3  A    between atoms: C_6  and  O_7
REMARK    4  A    between atoms: O_7  and  C_8
REMARK                            x       y       z     vdW  Elec       q    Type
REMARK                         _______ _______ _______ _____ _____    ______ ____
ROOT
ATOM      1  C   UNL     1       5.233   5.947  16.835  0.00  0.00    +0.000 A 
ATOM      2  C   UNL     1       6.123   5.686  17.839  0.00  0.00    +0.000 A 
ATOM      3  C   UNL     1       7.269   5.069  17.425  0.00  0.00    +0.000 A 
ATOM      4  F   UNL     1       8.211   4.805  18.343  0.00  0.00    +0.000 F 
ATOM      5  N   UNL     1       7.533   4.714  16.157  0.00  0.00    +0.000 NA
ATOM      6  C   UNL     1       6.574   4.971  15.273  0.00  0.00    +0.000 A 
ATOM      7  N   UNL     1       6.801   4.624  13.960  0.00  0.00    +0.000 N 
ATOM      8  N   UNL     1       5.427   5.585  15.553  0.00  0.00    +0.000 NA
ATOM      9  H   UNL     1       7.791   4.564  13.769  0.00  0.00    +0.000 HD
ATOM     10  H   UNL     1       6.235   5.186  13.340  0.00  0.00    +0.000 HD
ENDROOT
BRANCH   1  11
ATOM     11  O   UNL     1       4.055   6.583  17.206  0.00  0.00    +0.000 OA
BRANCH  11  15
ATOM     12  C   UNL     1       1.624   4.482  19.875  0.00  0.00    +0.000 A 
ATOM     13  C   UNL     1       1.971   3.951  18.631  0.00  0.00    +0.000 A 
ATOM     14  C   UNL     1       2.780   4.675  17.751  0.00  0.00    +0.000 A 
ATOM     15  C   UNL     1       3.224   5.951  18.103  0.00  0.00    +0.000 A 
ATOM     16  C   UNL     1       2.890   6.478  19.353  0.00  0.00    +0.000 A 
ATOM     17  C   UNL     1       2.077   5.752  20.229  0.00  0.00    +0.000 A 
BRANCH  12  19
ATOM     18  C   UNL     1       1.497   2.676  21.396  0.00  0.00    +0.000 C 
ATOM     19  O   UNL     1       0.825   3.684  20.648  0.00  0.00    +0.000 OA
ENDBRANCH  12  19
ENDBRANCH  11  15
ENDBRANCH   1  11
TORSDOF 3
ENDMDL
MODEL 8
REMARK VINA RESULT:      -7.0      1.598      1.964
REMARK  Name = 
REMARK  4 active torsions:
REMARK  status: ('A' for Active; 'I' for Inactive)
REMARK    1  A    between atoms: C_1  and  O_2
REMARK    2  A    between atoms: O_2  and  C_3
REMARK    3  A    between atoms: C_6  and  O_7
REMARK    4  A    between atoms: O_7  and  C_8
REMARK                            x       y       z     vdW  Elec       q    Type
REMARK                         _______ _______ _______ _____ _____    ______ ____
ROOT
ATOM      1  C   UNL     1       4.876   6.283  16.903  0.00  0.00    +0.000 A 
ATOM      2  C   UNL     1       5.868   6.880  17.629  0.00  0.00    +0.000 A 
ATOM      3  C   UNL     1       7.131   6.569  17.214  0.00  0.00    +0.000 A 
ATOM      4  F   UNL     1       8.164   7.137  17.853  0.00  0.00    +0.000 F 
ATOM      5  N   UNL     1       7.421   5.740  16.198  0.00  0.00    +0.000 NA
ATOM      6  C   UNL     1       6.379   5.177  15.595  0.00  0.00    +0.000 A 
ATOM      7  N   UNL     1       6.629   4.319  14.547  0.00  0.00    +0.000 N 
ATOM      8  N   UNL     1       5.105   5.418  15.897  0.00  0.00    +0.000 NA
ATOM      9  H   UNL     1       7.529   4.510  14.132  0.00  0.00    +0.000 HD
ATOM     10  H   UNL     1       5.828   4.264  13.934  0.00  0.00    +0.000 HD
ENDROOT
BRANCH   1  11
ATOM     11  O   UNL     1       3.572   6.576  17.283  0.00  0.00    +0.000 OA
BRANCH  11  15
ATOM     12  C   UNL     1       1.522   4.061  19.912  0.00  0.00    +0.000 A 
ATOM     13  C   UNL     1       2.212   5.187  20.367  0.00  0.00    +0.000 A 
ATOM     14  C   UNL     1       2.897   6.010  19.469  0.00  0.00    +0.000 A 
ATOM     15  C   UNL     1       2.917   5.694  18.111  0.00  0.00    +0.000 A 
ATOM     16  C   UNL     1       2.216   4.576  17.651  0.00  0.00    +0.000 A 
ATOM     17  C   UNL     1       1.535   3.752  18.553  0.00  0.00    +0.000 A 
BRANCH  12  19
ATOM     18  C   UNL     1       1.746   2.587  21.747  0.00  0.00    +0.000 C 
ATOM     19  O   UNL     1       0.893   3.329  20.883  0.00  0.00    +0.000 OA
ENDBRANCH  12  19
ENDBRANCH  11  15
ENDBRANCH   1  11
TORSDOF 3
ENDMDL
MODEL 9
REMARK VINA RESULT:      -6.8      1.396      1.502
REMARK  Name = 
REMARK  4 active torsions:
REMARK  status: ('A' for Active; 'I' for Inactive)
REMARK    1  A    between atoms: C_1  and  O_2
REMARK    2  A    between atoms: O_2  and  C_3
REMARK    3  A    between atoms: C_6  and  O_7
REMARK    4  A    between atoms: O_7  and  C_8
REMARK                            x       y       z     vdW  Elec       q    Type
REMARK                         _______ _______ _______ _____ _____    ______ ____
ROOT
ATOM      1  C   UNL     1       4.822   6.119  16.882  0.00  0.00    +0.000 A 
ATOM      2  C   UNL     1       5.150   5.094  16.039  0.00  0.00    +0.000 A 
ATOM      3  C   UNL     1       6.471   5.052  15.695  0.00  0.00    +0.000 A 
ATOM      4  F   UNL     1       6.884   4.057  14.895  0.00  0.00    +0.000 F 
ATOM      5  N   UNL     1       7.399   5.930  16.109  0.00  0.00    +0.000 NA
ATOM      6  C   UNL     1       6.958   6.915  16.885  0.00  0.00    +0.000 A 
ATOM      7  N   UNL     1       7.874   7.840  17.333  0.00  0.00    +0.000 N 
ATOM      8  N   UNL     1       5.701   7.048  17.303  0.00  0.00    +0.000 NA
ATOM      9  H   UNL     1       8.808   7.453  17.329  0.00  0.00    +0.000 HD
ATOM     10  H   UNL     1       7.550   8.279  18.183  0.00  0.00    +0.000 HD
ENDROOT
BRANCH   1  11
ATOM     11  O   UNL     1       3.490   6.198  17.268  0.00  0.00    +0.000 OA
BRANCH  11  15
ATOM     12  C   UNL     1       1.904   3.185  19.686  0.00  0.00    +0.000 A 
ATOM     13  C   UNL     1       2.952   3.997  20.125  0.00  0.00    +0.000 A 
ATOM     14  C   UNL     1       3.472   4.995  19.295  0.00  0.00    +0.000 A 
ATOM     15  C   UNL     1       2.961   5.166  18.008  0.00  0.00    +0.000 A 
ATOM     16  C   UNL     1       1.903   4.364  17.572  0.00  0.00    +0.000 A 
ATOM     17  C   UNL     1       1.389   3.364  18.404  0.00  0.00    +0.000 A 
BRANCH  12  19
ATOM     18  C   UNL     1       1.579   2.606  21.956  0.00  0.00    +0.000 C 
ATOM     19  O   UNL     1       1.482   2.241  20.583  0.00  0.00    +0.000 OA
ENDBRANCH  12  19
ENDBRANCH  11  15
ENDBRANCH   1  11
TORSDOF 3
ENDMDL
