MODEL 1
REMARK VINA RESULT:      -7.7      0.000      0.000
REMARK  Name = 
REMARK  7 active torsions:
REMARK  status: ('A' for Active; 'I' for Inactive)
REMARK    1  A    between atoms: C_1  and  O_2
REMARK    2  A    between atoms: O_2  and  C_3
REMARK    3  A    between atoms: C_6  and  O_7
REMARK    4  A    between atoms: O_7  and  C_8
REMARK    5  A    between atoms: C_9  and  C_10
REMARK    6  A    between atoms: N_12  and  C_13
REMARK    7  A    between atoms: C_17  and  C_18
REMARK                            x       y       z     vdW  Elec       q    Type
REMARK                         _______ _______ _______ _____ _____    ______ ____
ROOT
ATOM      1  C   UNL     1       2.568   7.100  18.931  0.00  0.00    +0.000 A 
ATOM      2  N   UNL     1       1.724   7.611  19.793  0.00  0.00    +0.000 NA
ATOM      3  N   UNL     1       1.326   8.879  19.379  0.00  0.00    +0.000 N 
ATOM      4  C   UNL     1       1.954   9.361  18.243  0.00  0.00    +0.000 A 
ATOM      5  N   UNL     1       2.042  10.510  17.681  0.00  0.00    +0.000 NA
ATOM      6  S   UNL     1       2.838   8.058  17.486  0.00  0.00    +0.000 S 
ATOM      7  H   UNL     1       1.484  11.198  18.187  0.00  0.00    +0.000 HD
ENDROOT
BRANCH   3   8
ATOM      8  C   UNL     1       0.479   9.661  20.240  0.00  0.00    +0.000 A 
ATOM      9  C   UNL     1       0.693   9.790  21.635  0.00  0.00    +0.000 A 
ATOM     10 CL   UNL     1       1.996   9.021  22.488  0.00  0.00    +0.000 Cl
ATOM     11  C   UNL     1      -0.120  10.618  22.442  0.00  0.00    +0.000 A 
ATOM     12  C   UNL     1      -1.163  11.369  21.896  0.00  0.00    +0.000 A 
ATOM     13  C   UNL     1      -1.411  11.237  20.530  0.00  0.00    +0.000 A 
ATOM     14  C   UNL     1      -0.640  10.373  19.732  0.00  0.00    +0.000 A 
ATOM     15 CL   UNL     1      -1.247  10.169  18.119  0.00  0.00    +0.000 Cl
BRANCH  12  16
ATOM     16  C   UNL     1      -2.024  12.288  22.731  0.00  0.00    +0.000 C 
ATOM     17  F   UNL     1      -2.887  13.042  22.000  0.00  0.00    +0.000 F 
ATOM     18  F   UNL     1      -2.786  11.604  23.628  0.00  0.00    +0.000 F 
ATOM     19  F   UNL     1      -1.282  13.165  23.463  0.00  0.00    +0.000 F 
ENDBRANCH  12  16
ENDBRANCH   3   8
BRANCH   1  24
ATOM     20  C   UNL     1       5.422   4.605  19.061  0.00  0.00    +0.000 A 
ATOM     21  C   UNL     1       4.778   3.420  19.405  0.00  0.00    +0.000 A 
ATOM     22  C   UNL     1       3.403   3.397  19.607  0.00  0.00    +0.000 A 
ATOM     23  C   UNL     1       2.637   4.560  19.448  0.00  0.00    +0.000 A 
ATOM     24  C   UNL     1       3.275   5.786  19.134  0.00  0.00    +0.000 A 
ATOM     25  C   UNL     1       4.677   5.784  18.940  0.00  0.00    +0.000 A 
BRANCH  20  27
ATOM     26  C   UNL     1       7.259   4.620  17.542  0.00  0.00    +0.000 C 
ATOM     27  O   UNL     1       6.764   4.452  18.862  0.00  0.00    +0.000 OA
ENDBRANCH  20  27
BRANCH  23  28
ATOM     28  O   UNL     1       1.280   4.526  19.618  0.00  0.00    +0.000 OA
ATOM     29  C   UNL     1       0.734   3.398  20.296  0.00  0.00    +0.000 C 
ENDBRANCH  23  28
ENDBRANCH   1  24
TORSDOF 5
ENDMDL
MODEL 2
REMARK VINA RESULT:      -7.7      3.433      5.219
REMARK  Name = 
REMARK  7 active torsions:
REMARK  status: ('A' for Active; 'I' for Inactive)
REMARK    1  A    between atoms: C_1  and  O_2
REMARK    2  A    between atoms: O_2  and  C_3
REMARK    3  A    between atoms: C_6  and  O_7
REMARK    4  A    between atoms: O_7  and  C_8
REMARK    5  A    between atoms: C_9  and  C_10
REMARK    6  A    between atoms: N_12  and  C_13
REMARK    7  A    between atoms: C_17  and  C_18
REMARK                            x       y       z     vdW  Elec       q    Type
REMARK                         _______ _______ _______ _____ _____    ______ ____
ROOT
ATOM      1  C   UNL     1       4.296   4.671  16.848  0.00  0.00    +0.000 A 
ATOM      2  N   UNL     1       4.013   5.631  17.693  0.00  0.00    +0.000 NA
ATOM      3  N   UNL     1       2.832   5.338  18.372  0.00  0.00    +0.000 N 
ATOM      4  C   UNL     1       2.176   4.190  17.959  0.00  0.00    +0.000 A 
ATOM      5  N   UNL     1       1.006   3.702  18.153  0.00  0.00    +0.000 NA
ATOM      6  S   UNL     1       3.231   3.278  16.908  0.00  0.00    +0.000 S 
ATOM      7  H   UNL     1       0.472   4.297  18.787  0.00  0.00    +0.000 HD
ENDROOT
BRANCH   3   8
ATOM      8  C   UNL     1       2.284   6.315  19.274  0.00  0.00    +0.000 A 
ATOM      9  C   UNL     1       2.128   7.683  18.939  0.00  0.00    +0.000 A 
ATOM     10 CL   UNL     1       2.582   8.361  17.406  0.00  0.00    +0.000 Cl
ATOM     11  C   UNL     1       1.526   8.605  19.826  0.00  0.00    +0.000 A 
ATOM     12  C   UNL     1       1.033   8.204  21.070  0.00  0.00    +0.000 A 
ATOM     13  C   UNL     1       1.200   6.868  21.433  0.00  0.00    +0.000 A 
ATOM     14  C   UNL     1       1.847   5.958  20.578  0.00  0.00    +0.000 A 
ATOM     15 CL   UNL     1       2.166   4.412  21.299  0.00  0.00    +0.000 Cl
BRANCH  12  16
ATOM     16  C   UNL     1       0.355   9.162  22.019  0.00  0.00    +0.000 C 
ATOM     17  F   UNL     1       0.056  10.365  21.461  0.00  0.00    +0.000 F 
ATOM     18  F   UNL     1      -0.819   8.667  22.499  0.00  0.00    +0.000 F 
ATOM     19  F   UNL     1       1.120   9.434  23.112  0.00  0.00    +0.000 F 
ENDBRANCH  12  16
ENDBRANCH   3   8
BRANCH   1  24
ATOM     20  C   UNL     1       6.250   4.116  13.645  0.00  0.00    +0.000 A 
ATOM     21  C   UNL     1       7.490   4.673  13.941  0.00  0.00    +0.000 A 
ATOM     22  C   UNL     1       7.727   5.246  15.186  0.00  0.00    +0.000 A 
ATOM     23  C   UNL     1       6.731   5.254  16.171  0.00  0.00    +0.000 A 
ATOM     24  C   UNL     1       5.447   4.727  15.879  0.00  0.00    +0.000 A 
ATOM     25  C   UNL     1       5.230   4.156  14.603  0.00  0.00    +0.000 A 
BRANCH  20  27
ATOM     26  C   UNL     1       4.910   3.225  11.886  0.00  0.00    +0.000 C 
ATOM     27  O   UNL     1       6.191   3.564  12.398  0.00  0.00    +0.000 OA
ENDBRANCH  20  27
BRANCH  23  28
ATOM     28  O   UNL     1       6.978   5.791  17.404  0.00  0.00    +0.000 OA
ATOM     29  C   UNL     1       7.304   7.178  17.460  0.00  0.00    +0.000 C 
ENDBRANCH  23  28
ENDBRANCH   1  24
TORSDOF 5
ENDMDL
MODEL 3
REMARK VINA RESULT:      -7.6      5.185      8.693
REMARK  Name = 
REMARK  7 active torsions:
REMARK  status: ('A' for Active; 'I' for Inactive)
REMARK    1  A    between atoms: C_1  and  O_2
REMARK    2  A    between atoms: O_2  and  C_3
REMARK    3  A    between atoms: C_6  and  O_7
REMARK    4  A    between atoms: O_7  and  C_8
REMARK    5  A    between atoms: C_9  and  C_10
REMARK    6  A    between atoms: N_12  and  C_13
REMARK    7  A    between atoms: C_17  and  C_18
REMARK                            x       y       z     vdW  Elec       q    Type
REMARK                         _______ _______ _______ _____ _____    ______ ____
ROOT
ATOM      1  C   UNL     1      -1.865  11.502  19.164  0.00  0.00    +0.000 A 
ATOM      2  N   UNL     1      -1.324  10.313  19.254  0.00  0.00    +0.000 NA
ATOM      3  N   UNL     1      -0.028  10.413  19.756  0.00  0.00    +0.000 N 
ATOM      4  C   UNL     1       0.437  11.703  19.954  0.00  0.00    +0.000 A 
ATOM      5  N   UNL     1       1.589  12.220  20.176  0.00  0.00    +0.000 NA
ATOM      6  S   UNL     1      -0.899  12.818  19.807  0.00  0.00    +0.000 S 
ATOM      7  H   UNL     1       2.297  11.492  20.257  0.00  0.00    +0.000 HD
ENDROOT
BRANCH   3   8
ATOM      8  C   UNL     1       0.784   9.229  19.835  0.00  0.00    +0.000 A 
ATOM      9  C   UNL     1       0.756   8.338  20.937  0.00  0.00    +0.000 A 
ATOM     10 CL   UNL     1      -0.250   8.560  22.334  0.00  0.00    +0.000 Cl
ATOM     11  C   UNL     1       1.520   7.148  20.954  0.00  0.00    +0.000 A 
ATOM     12  C   UNL     1       2.322   6.781  19.872  0.00  0.00    +0.000 A 
ATOM     13  C   UNL     1       2.387   7.656  18.787  0.00  0.00    +0.000 A 
ATOM     14  C   UNL     1       1.672   8.867  18.787  0.00  0.00    +0.000 A 
ATOM     15 CL   UNL     1       2.063   9.920  17.464  0.00  0.00    +0.000 Cl
BRANCH  12  16
ATOM     16  C   UNL     1       3.119   5.499  19.852  0.00  0.00    +0.000 C 
ATOM     17  F   UNL     1       2.865   4.714  18.771  0.00  0.00    +0.000 F 
ATOM     18  F   UNL     1       4.461   5.726  19.845  0.00  0.00    +0.000 F 
ATOM     19  F   UNL     1       2.877   4.724  20.946  0.00  0.00    +0.000 F 
ENDBRANCH  12  16
ENDBRANCH   3   8
BRANCH   1  24
ATOM     20  C   UNL     1      -5.535  12.440  18.975  0.00  0.00    +0.000 A 
ATOM     21  C   UNL     1      -5.835  12.238  17.632  0.00  0.00    +0.000 A 
ATOM     22  C   UNL     1      -4.857  11.795  16.749  0.00  0.00    +0.000 A 
ATOM     23  C   UNL     1      -3.558  11.523  17.199  0.00  0.00    +0.000 A 
ATOM     24  C   UNL     1      -3.218  11.758  18.556  0.00  0.00    +0.000 A 
ATOM     25  C   UNL     1      -4.231  12.216  19.431  0.00  0.00    +0.000 A 
BRANCH  20  27
ATOM     26  C   UNL     1      -6.941  12.077  20.866  0.00  0.00    +0.000 C 
ATOM     27  O   UNL     1      -6.611  12.841  19.714  0.00  0.00    +0.000 OA
ENDBRANCH  20  27
BRANCH  23  28
ATOM     28  O   UNL     1      -2.606  11.058  16.333  0.00  0.00    +0.000 OA
ATOM     29  C   UNL     1      -3.061  10.451  15.127  0.00  0.00    +0.000 C 
ENDBRANCH  23  28
ENDBRANCH   1  24
TORSDOF 5
ENDMDL
MODEL 4
REMARK VINA RESULT:      -7.4      0.224      1.902
REMARK  Name = 
REMARK  7 active torsions:
REMARK  status: ('A' for Active; 'I' for Inactive)
REMARK    1  A    between atoms: C_1  and  O_2
REMARK    2  A    between atoms: O_2  and  C_3
REMARK    3  A    between atoms: C_6  and  O_7
REMARK    4  A    between atoms: O_7  and  C_8
REMARK    5  A    between atoms: C_9  and  C_10
REMARK    6  A    between atoms: N_12  and  C_13
REMARK    7  A    between atoms: C_17  and  C_18
REMARK                            x       y       z     vdW  Elec       q    Type
REMARK                         _______ _______ _______ _____ _____    ______ ____
ROOT
ATOM      1  C   UNL     1       2.581   7.094  18.987  0.00  0.00    +0.000 A 
ATOM      2  N   UNL     1       1.740   7.651  19.825  0.00  0.00    +0.000 NA
ATOM      3  N   UNL     1       1.366   8.910  19.360  0.00  0.00    +0.000 N 
ATOM      4  C   UNL     1       2.009   9.337  18.210  0.00  0.00    +0.000 A 
ATOM      5  N   UNL     1       2.120  10.463  17.606  0.00  0.00    +0.000 NA
ATOM      6  S   UNL     1       2.875   7.993  17.509  0.00  0.00    +0.000 S 
ATOM      7  H   UNL     1       1.571  11.179  18.082  0.00  0.00    +0.000 HD
ENDROOT
BRANCH   3   8
ATOM      8  C   UNL     1       0.528   9.738  20.186  0.00  0.00    +0.000 A 
ATOM      9  C   UNL     1      -0.566  10.485  19.682  0.00  0.00    +0.000 A 
ATOM     10 CL   UNL     1      -1.033  10.507  18.010  0.00  0.00    +0.000 Cl
ATOM     11  C   UNL     1      -1.410  11.238  20.531  0.00  0.00    +0.000 A 
ATOM     12  C   UNL     1      -1.218  11.261  21.914  0.00  0.00    +0.000 A 
ATOM     13  C   UNL     1      -0.132  10.556  22.430  0.00  0.00    +0.000 A 
ATOM     14  C   UNL     1       0.743   9.850  21.585  0.00  0.00    +0.000 A 
ATOM     15 CL   UNL     1       2.157   9.237  22.384  0.00  0.00    +0.000 Cl
BRANCH  12  16
ATOM     16  C   UNL     1      -2.127  12.029  22.844  0.00  0.00    +0.000 C 
ATOM     17  F   UNL     1      -2.709  11.257  23.801  0.00  0.00    +0.000 F 
ATOM     18  F   UNL     1      -1.468  13.018  23.508  0.00  0.00    +0.000 F 
ATOM     19  F   UNL     1      -3.148  12.640  22.181  0.00  0.00    +0.000 F 
ENDBRANCH  12  16
ENDBRANCH   3   8
BRANCH   1  24
ATOM     20  C   UNL     1       5.360   4.516  19.095  0.00  0.00    +0.000 A 
ATOM     21  C   UNL     1       4.714   3.389  19.593  0.00  0.00    +0.000 A 
ATOM     22  C   UNL     1       3.362   3.434  19.912  0.00  0.00    +0.000 A 
ATOM     23  C   UNL     1       2.619   4.606  19.716  0.00  0.00    +0.000 A 
ATOM     24  C   UNL     1       3.264   5.778  19.245  0.00  0.00    +0.000 A 
ATOM     25  C   UNL     1       4.642   5.707  18.934  0.00  0.00    +0.000 A 
BRANCH  20  27
ATOM     26  C   UNL     1       7.158   4.774  17.551  0.00  0.00    +0.000 C 
ATOM     27  O   UNL     1       6.675   4.297  18.798  0.00  0.00    +0.000 OA
ENDBRANCH  20  27
BRANCH  23  28
ATOM     28  O   UNL     1       1.282   4.636  20.002  0.00  0.00    +0.000 OA
ATOM     29  C   UNL     1       0.637   3.389  20.248  0.00  0.00    +0.000 C 
ENDBRANCH  23  28
ENDBRANCH   1  24
TORSDOF 5
ENDMDL
MODEL 5
REMARK VINA RESULT:      -7.3      0.869      2.587
REMARK  Name = 
REMARK  7 active torsions:
REMARK  status: ('A' for Active; 'I' for Inactive)
REMARK    1  A    between atoms: C_1  and  O_2
REMARK    2  A    between atoms: O_2  and  C_3
REMARK    3  A    between atoms: C_6  and  O_7
REMARK    4  A    between atoms: O_7  and  C_8
REMARK    5  A    between atoms: C_9  and  C_10
REMARK    6  A    between atoms: N_12  and  C_13
REMARK    7  A    between atoms: C_17  and  C_18
REMARK                            x       y       z     vdW  Elec       q    Type
REMARK                         _______ _______ _______ _____ _____    ______ ____
ROOT
ATOM      1  C   UNL     1       2.552   7.120  18.901  0.00  0.00    +0.000 A 
ATOM      2  N   UNL     1       1.701   7.621  19.762  0.00  0.00    +0.000 NA
ATOM      3  N   UNL     1       1.323   8.903  19.370  0.00  0.00    +0.000 N 
ATOM      4  C   UNL     1       1.973   9.401  18.254  0.00  0.00    +0.000 A 
ATOM      5  N   UNL     1       2.082  10.562  17.718  0.00  0.00    +0.000 NA
ATOM      6  S   UNL     1       2.854   8.106  17.482  0.00  0.00    +0.000 S 
ATOM      7  H   UNL     1       1.525  11.245  18.231  0.00  0.00    +0.000 HD
ENDROOT
BRANCH   3   8
ATOM      8  C   UNL     1       0.472   9.675  20.235  0.00  0.00    +0.000 A 
ATOM      9  C   UNL     1       0.676   9.784  21.633  0.00  0.00    +0.000 A 
ATOM     10 CL   UNL     1       1.969   8.999  22.486  0.00  0.00    +0.000 Cl
ATOM     11  C   UNL     1      -0.141  10.605  22.446  0.00  0.00    +0.000 A 
ATOM     12  C   UNL     1      -1.178  11.366  21.902  0.00  0.00    +0.000 A 
ATOM     13  C   UNL     1      -1.415  11.254  20.533  0.00  0.00    +0.000 A 
ATOM     14  C   UNL     1      -0.641  10.399  19.729  0.00  0.00    +0.000 A 
ATOM     15 CL   UNL     1      -1.236  10.218  18.108  0.00  0.00    +0.000 Cl
BRANCH  12  16
ATOM     16  C   UNL     1      -2.041  12.276  22.743  0.00  0.00    +0.000 C 
ATOM     17  F   UNL     1      -1.337  13.210  23.437  0.00  0.00    +0.000 F 
ATOM     18  F   UNL     1      -2.945  12.965  21.994  0.00  0.00    +0.000 F 
ATOM     19  F   UNL     1      -2.768  11.589  23.667  0.00  0.00    +0.000 F 
ENDBRANCH  12  16
ENDBRANCH   3   8
BRANCH   1  24
ATOM     20  C   UNL     1       3.125   3.574  20.119  0.00  0.00    +0.000 A 
ATOM     21  C   UNL     1       4.381   3.271  19.603  0.00  0.00    +0.000 A 
ATOM     22  C   UNL     1       5.076   4.205  18.844  0.00  0.00    +0.000 A 
ATOM     23  C   UNL     1       4.536   5.476  18.603  0.00  0.00    +0.000 A 
ATOM     24  C   UNL     1       3.241   5.794  19.087  0.00  0.00    +0.000 A 
ATOM     25  C   UNL     1       2.552   4.823  19.850  0.00  0.00    +0.000 A 
BRANCH  20  27
ATOM     26  C   UNL     1       1.381   2.828  21.563  0.00  0.00    +0.000 C 
ATOM     27  O   UNL     1       2.593   2.565  20.870  0.00  0.00    +0.000 OA
ENDBRANCH  20  27
BRANCH  23  28
ATOM     28  O   UNL     1       5.236   6.403  17.882  0.00  0.00    +0.000 OA
ATOM     29  C   UNL     1       6.653   6.257  17.831  0.00  0.00    +0.000 C 
ENDBRANCH  23  28
ENDBRANCH   1  24
TORSDOF 5
ENDMDL
MODEL 6
REMARK VINA RESULT:      -7.3      3.499      4.866
REMARK  Name = 
REMARK  7 active torsions:
REMARK  status: ('A' for Active; 'I' for Inactive)
REMARK    1  A    between atoms: C_1  and  O_2
REMARK    2  A    between atoms: O_2  and  C_3
REMARK    3  A    between atoms: C_6  and  O_7
REMARK    4  A    between atoms: O_7  and  C_8
REMARK    5  A    between atoms: C_9  and  C_10
REMARK    6  A    between atoms: N_12  and  C_13
REMARK    7  A    between atoms: C_17  and  C_18
REMARK                            x       y       z     vdW  Elec       q    Type
REMARK                         _______ _______ _______ _____ _____    ______ ____
ROOT
ATOM      1  C   UNL     1       0.729  10.132  18.736  0.00  0.00    +0.000 A 
ATOM      2  N   UNL     1      -0.575  10.149  18.603  0.00  0.00    +0.000 NA
ATOM      3  N   UNL     1      -1.028  11.461  18.494  0.00  0.00    +0.000 N 
ATOM      4  C   UNL     1      -0.061  12.441  18.642  0.00  0.00    +0.000 A 
ATOM      5  N   UNL     1      -0.085  13.710  18.827  0.00  0.00    +0.000 NA
ATOM      6  S   UNL     1       1.517  11.693  18.601  0.00  0.00    +0.000 S 
ATOM      7  H   UNL     1      -1.046  14.052  18.823  0.00  0.00    +0.000 HD
ENDROOT
BRANCH   3   8
ATOM      8  C   UNL     1      -2.444  11.709  18.445  0.00  0.00    +0.000 A 
ATOM      9  C   UNL     1      -3.228  11.520  17.280  0.00  0.00    +0.000 A 
ATOM     10 CL   UNL     1      -2.587  10.974  15.761  0.00  0.00    +0.000 Cl
ATOM     11  C   UNL     1      -4.630  11.711  17.283  0.00  0.00    +0.000 A 
ATOM     12  C   UNL     1      -5.312  12.073  18.446  0.00  0.00    +0.000 A 
ATOM     13  C   UNL     1      -4.558  12.292  19.599  0.00  0.00    +0.000 A 
ATOM     14  C   UNL     1      -3.159  12.156  19.588  0.00  0.00    +0.000 A 
ATOM     15 CL   UNL     1      -2.384  12.696  21.045  0.00  0.00    +0.000 Cl
BRANCH  12  16
ATOM     16  C   UNL     1      -6.812  12.248  18.484  0.00  0.00    +0.000 C 
ATOM     17  F   UNL     1      -7.405  12.141  17.265  0.00  0.00    +0.000 F 
ATOM     18  F   UNL     1      -7.418  11.327  19.281  0.00  0.00    +0.000 F 
ATOM     19  F   UNL     1      -7.177  13.465  18.974  0.00  0.00    +0.000 F 
ENDBRANCH  12  16
ENDBRANCH   3   8
BRANCH   1  24
ATOM     20  C   UNL     1       3.114   7.263  18.056  0.00  0.00    +0.000 A 
ATOM     21  C   UNL     1       3.052   6.526  19.233  0.00  0.00    +0.000 A 
ATOM     22  C   UNL     1       2.237   6.938  20.282  0.00  0.00    +0.000 A 
ATOM     23  C   UNL     1       1.449   8.091  20.165  0.00  0.00    +0.000 A 
ATOM     24  C   UNL     1       1.525   8.880  18.988  0.00  0.00    +0.000 A 
ATOM     25  C   UNL     1       2.366   8.441  17.939  0.00  0.00    +0.000 A 
BRANCH  20  27
ATOM     26  C   UNL     1       5.118   6.070  17.562  0.00  0.00    +0.000 C 
ATOM     27  O   UNL     1       3.930   6.706  17.113  0.00  0.00    +0.000 OA
ENDBRANCH  20  27
BRANCH  23  28
ATOM     28  O   UNL     1       0.626   8.477  21.187  0.00  0.00    +0.000 OA
ATOM     29  C   UNL     1       1.226   9.150  22.290  0.00  0.00    +0.000 C 
ENDBRANCH  23  28
ENDBRANCH   1  24
TORSDOF 5
ENDMDL
MODEL 7
REMARK VINA RESULT:      -7.3      3.460      5.085
REMARK  Name = 
REMARK  7 active torsions:
REMARK  status: ('A' for Active; 'I' for Inactive)
REMARK    1  A    between atoms: C_1  and  O_2
REMARK    2  A    between atoms: O_2  and  C_3
REMARK    3  A    between atoms: C_6  and  O_7
REMARK    4  A    between atoms: O_7  and  C_8
REMARK    5  A    between atoms: C_9  and  C_10
REMARK    6  A    between atoms: N_12  and  C_13
REMARK    7  A    between atoms: C_17  and  C_18
REMARK                            x       y       z     vdW  Elec       q    Type
REMARK                         _______ _______ _______ _____ _____    ______ ____
ROOT
ATOM      1  C   UNL     1       4.324   4.621  16.840  0.00  0.00    +0.000 A 
ATOM      2  N   UNL     1       4.015   5.584  17.673  0.00  0.00    +0.000 NA
ATOM      3  N   UNL     1       2.842   5.269  18.355  0.00  0.00    +0.000 N 
ATOM      4  C   UNL     1       2.217   4.098  17.957  0.00  0.00    +0.000 A 
ATOM      5  N   UNL     1       1.060   3.582  18.157  0.00  0.00    +0.000 NA
ATOM      6  S   UNL     1       3.297   3.202  16.918  0.00  0.00    +0.000 S 
ATOM      7  H   UNL     1       0.511   4.171  18.783  0.00  0.00    +0.000 HD
ENDROOT
BRANCH   3   8
ATOM      8  C   UNL     1       2.268   6.242  19.244  0.00  0.00    +0.000 A 
ATOM      9  C   UNL     1       1.807   5.930  20.547  0.00  0.00    +0.000 A 
ATOM     10 CL   UNL     1       1.867   4.338  21.238  0.00  0.00    +0.000 Cl
ATOM     11  C   UNL     1       1.307   6.924  21.421  0.00  0.00    +0.000 A 
ATOM     12  C   UNL     1       1.265   8.268  21.046  0.00  0.00    +0.000 A 
ATOM     13  C   UNL     1       1.688   8.596  19.758  0.00  0.00    +0.000 A 
ATOM     14  C   UNL     1       2.135   7.605  18.867  0.00  0.00    +0.000 A 
ATOM     15 CL   UNL     1       2.392   8.174  17.247  0.00  0.00    +0.000 Cl
BRANCH  12  16
ATOM     16  C   UNL     1       0.769   9.352  21.973  0.00  0.00    +0.000 C 
ATOM     17  F   UNL     1       0.973  10.611  21.501  0.00  0.00    +0.000 F 
ATOM     18  F   UNL     1      -0.567   9.252  22.214  0.00  0.00    +0.000 F 
ATOM     19  F   UNL     1       1.373   9.305  23.193  0.00  0.00    +0.000 F 
ENDBRANCH  12  16
ENDBRANCH   3   8
BRANCH   1  24
ATOM     20  C   UNL     1       6.276   4.121  13.626  0.00  0.00    +0.000 A 
ATOM     21  C   UNL     1       7.515   4.677  13.930  0.00  0.00    +0.000 A 
ATOM     22  C   UNL     1       7.752   5.231  15.182  0.00  0.00    +0.000 A 
ATOM     23  C   UNL     1       6.757   5.222  16.169  0.00  0.00    +0.000 A 
ATOM     24  C   UNL     1       5.474   4.695  15.871  0.00  0.00    +0.000 A 
ATOM     25  C   UNL     1       5.257   4.144  14.586  0.00  0.00    +0.000 A 
BRANCH  20  27
ATOM     26  C   UNL     1       4.938   3.228  11.867  0.00  0.00    +0.000 C 
ATOM     27  O   UNL     1       6.217   3.588  12.371  0.00  0.00    +0.000 OA
ENDBRANCH  20  27
BRANCH  23  28
ATOM     28  O   UNL     1       7.004   5.741  17.410  0.00  0.00    +0.000 OA
ATOM     29  C   UNL     1       7.355   7.120  17.484  0.00  0.00    +0.000 C 
ENDBRANCH  23  28
ENDBRANCH   1  24
TORSDOF 5
ENDMDL
MODEL 8
REMARK VINA RESULT:      -7.3      3.515      4.657
REMARK  Name = 
REMARK  7 active torsions:
REMARK  status: ('A' for Active; 'I' for Inactive)
REMARK    1  A    between atoms: C_1  and  O_2
REMARK    2  A    between atoms: O_2  and  C_3
REMARK    3  A    between atoms: C_6  and  O_7
REMARK    4  A    between atoms: O_7  and  C_8
REMARK    5  A    between atoms: C_9  and  C_10
REMARK    6  A    between atoms: N_12  and  C_13
REMARK    7  A    between atoms: C_17  and  C_18
REMARK                            x       y       z     vdW  Elec       q    Type
REMARK                         _______ _______ _______ _____ _____    ______ ____
ROOT
ATOM      1  C   UNL     1       0.761   9.979  18.797  0.00  0.00    +0.000 A 
ATOM      2  N   UNL     1      -0.541  10.004  18.648  0.00  0.00    +0.000 NA
ATOM      3  N   UNL     1      -0.981  11.317  18.502  0.00  0.00    +0.000 N 
ATOM      4  C   UNL     1      -0.007  12.291  18.637  0.00  0.00    +0.000 A 
ATOM      5  N   UNL     1      -0.021  13.565  18.791  0.00  0.00    +0.000 NA
ATOM      6  S   UNL     1       1.565  11.530  18.633  0.00  0.00    +0.000 S 
ATOM      7  H   UNL     1      -0.979  13.915  18.768  0.00  0.00    +0.000 HD
ENDROOT
BRANCH   3   8
ATOM      8  C   UNL     1      -2.394  11.576  18.431  0.00  0.00    +0.000 A 
ATOM      9  C   UNL     1      -3.149  12.076  19.520  0.00  0.00    +0.000 A 
ATOM     10 CL   UNL     1      -2.476  12.434  21.081  0.00  0.00    +0.000 Cl
ATOM     11  C   UNL     1      -4.525  12.381  19.398  0.00  0.00    +0.000 A 
ATOM     12  C   UNL     1      -5.200  12.225  18.186  0.00  0.00    +0.000 A 
ATOM     13  C   UNL     1      -4.485  11.709  17.107  0.00  0.00    +0.000 A 
ATOM     14  C   UNL     1      -3.131  11.352  17.237  0.00  0.00    +0.000 A 
ATOM     15 CL   UNL     1      -2.483  10.514  15.861  0.00  0.00    +0.000 Cl
BRANCH  12  16
ATOM     16  C   UNL     1      -6.660  12.578  18.021  0.00  0.00    +0.000 C 
ATOM     17  F   UNL     1      -6.911  13.379  16.952  0.00  0.00    +0.000 F 
ATOM     18  F   UNL     1      -7.440  11.474  17.858  0.00  0.00    +0.000 F 
ATOM     19  F   UNL     1      -7.159  13.231  19.107  0.00  0.00    +0.000 F 
ENDBRANCH  12  16
ENDBRANCH   3   8
BRANCH   1  24
ATOM     20  C   UNL     1       3.109   7.060  18.206  0.00  0.00    +0.000 A 
ATOM     21  C   UNL     1       3.042   6.364  19.408  0.00  0.00    +0.000 A 
ATOM     22  C   UNL     1       2.236   6.821  20.445  0.00  0.00    +0.000 A 
ATOM     23  C   UNL     1       1.461   7.978  20.291  0.00  0.00    +0.000 A 
ATOM     24  C   UNL     1       1.543   8.726  19.089  0.00  0.00    +0.000 A 
ATOM     25  C   UNL     1       2.375   8.242  18.052  0.00  0.00    +0.000 A 
BRANCH  20  27
ATOM     26  C   UNL     1       3.947   5.042  17.253  0.00  0.00    +0.000 C 
ATOM     27  O   UNL     1       3.915   6.462  17.280  0.00  0.00    +0.000 OA
ENDBRANCH  20  27
BRANCH  23  28
ATOM     28  O   UNL     1       0.646   8.408  21.302  0.00  0.00    +0.000 OA
ATOM     29  C   UNL     1       1.234   9.220  22.315  0.00  0.00    +0.000 C 
ENDBRANCH  23  28
ENDBRANCH   1  24
TORSDOF 5
ENDMDL
MODEL 9
REMARK VINA RESULT:      -7.1      0.896      3.141
REMARK  Name = 
REMARK  7 active torsions:
REMARK  status: ('A' for Active; 'I' for Inactive)
REMARK    1  A    between atoms: C_1  and  O_2
REMARK    2  A    between atoms: O_2  and  C_3
REMARK    3  A    between atoms: C_6  and  O_7
REMARK    4  A    between atoms: O_7  and  C_8
REMARK    5  A    between atoms: C_9  and  C_10
REMARK    6  A    between atoms: N_12  and  C_13
REMARK    7  A    between atoms: C_17  and  C_18
REMARK                            x       y       z     vdW  Elec       q    Type
REMARK                         _______ _______ _______ _____ _____    ______ ____
ROOT
ATOM      1  C   UNL     1       2.337   7.190  18.940  0.00  0.00    +0.000 A 
ATOM      2  N   UNL     1       1.503   7.765  19.772  0.00  0.00    +0.000 NA
ATOM      3  N   UNL     1       1.235   9.067  19.358  0.00  0.00    +0.000 N 
ATOM      4  C   UNL     1       1.952   9.502  18.256  0.00  0.00    +0.000 A 
ATOM      5  N   UNL     1       2.165  10.645  17.713  0.00  0.00    +0.000 NA
ATOM      6  S   UNL     1       2.752   8.134  17.522  0.00  0.00    +0.000 S 
ATOM      7  H   UNL     1       1.647  11.374  18.203  0.00  0.00    +0.000 HD
ENDROOT
BRANCH   3   8
ATOM      8  C   UNL     1       0.422   9.912  20.191  0.00  0.00    +0.000 A 
ATOM      9  C   UNL     1      -0.634  10.713  19.692  0.00  0.00    +0.000 A 
ATOM     10 CL   UNL     1      -1.082  10.788  18.016  0.00  0.00    +0.000 Cl
ATOM     11  C   UNL     1      -1.457  11.483  20.547  0.00  0.00    +0.000 A 
ATOM     12  C   UNL     1      -1.279  11.471  21.932  0.00  0.00    +0.000 A 
ATOM     13  C   UNL     1      -0.228  10.712  22.445  0.00  0.00    +0.000 A 
ATOM     14  C   UNL     1       0.626   9.988  21.595  0.00  0.00    +0.000 A 
ATOM     15 CL   UNL     1       2.006   9.301  22.395  0.00  0.00    +0.000 Cl
BRANCH  12  16
ATOM     16  C   UNL     1      -2.166  12.257  22.869  0.00  0.00    +0.000 C 
ATOM     17  F   UNL     1      -1.498  13.183  23.606  0.00  0.00    +0.000 F 
ATOM     18  F   UNL     1      -3.142  12.935  22.205  0.00  0.00    +0.000 F 
ATOM     19  F   UNL     1      -2.810  11.456  23.763  0.00  0.00    +0.000 F 
ENDBRANCH  12  16
ENDBRANCH   3   8
BRANCH   1  24
ATOM     20  C   UNL     1       2.494   3.539  19.954  0.00  0.00    +0.000 A 
ATOM     21  C   UNL     1       3.818   3.204  19.693  0.00  0.00    +0.000 A 
ATOM     22  C   UNL     1       4.697   4.151  19.179  0.00  0.00    +0.000 A 
ATOM     23  C   UNL     1       4.272   5.464  18.935  0.00  0.00    +0.000 A 
ATOM     24  C   UNL     1       2.917   5.818  19.157  0.00  0.00    +0.000 A 
ATOM     25  C   UNL     1       2.042   4.834  19.674  0.00  0.00    +0.000 A 
BRANCH  20  27
ATOM     26  C   UNL     1       1.609   2.482  21.899  0.00  0.00    +0.000 C 
ATOM     27  O   UNL     1       1.772   2.510  20.488  0.00  0.00    +0.000 OA
ENDBRANCH  20  27
BRANCH  23  28
ATOM     28  O   UNL     1       5.148   6.400  18.458  0.00  0.00    +0.000 OA
ATOM     29  C   UNL     1       6.328   5.924  17.816  0.00  0.00    +0.000 C 
ENDBRANCH  23  28
ENDBRANCH   1  24
TORSDOF 5
ENDMDL
