MODEL 1
REMARK VINA RESULT:      -8.0      0.000      0.000
REMARK  Name = 
REMARK  6 active torsions:
REMARK  status: ('A' for Active; 'I' for Inactive)
REMARK    1  A    between atoms: C_1  and  C_2
REMARK    2  A    between atoms: C_2  and  C_3
REMARK    3  A    between atoms: C_3  and  C_4
REMARK    4  A    between atoms: C_4  and  O_5
REMARK    5  A    between atoms: O_5  and  C_6
REMARK    6  A    between atoms: C_11  and  C_12
REMARK                            x       y       z     vdW  Elec       q    Type
REMARK                         _______ _______ _______ _____ _____    ______ ____
ROOT
ATOM      1  C   UNL     1       6.669   4.383  15.840  0.00  0.00    +0.000 A 
ATOM      2  N   UNL     1       7.617   4.701  16.718  0.00  0.00    +0.000 NA
ATOM      3  C   UNL     1       7.218   4.688  17.977  0.00  0.00    +0.000 A 
ATOM      4  N   UNL     1       8.137   5.028  18.950  0.00  0.00    +0.000 N 
ATOM      5  N   UNL     1       6.016   4.348  18.388  0.00  0.00    +0.000 NA
ATOM      6  C   UNL     1       5.148   4.031  17.424  0.00  0.00    +0.000 A 
ATOM      7  N   UNL     1       5.425   4.037  16.124  0.00  0.00    +0.000 NA
ATOM      8  H   UNL     1       9.082   4.881  18.627  0.00  0.00    +0.000 HD
ATOM      9  H   UNL     1       7.878   4.631  19.840  0.00  0.00    +0.000 HD
ENDROOT
BRANCH   6  10
ATOM     10  C   UNL     1       3.797   3.619  17.837  0.00  0.00    +0.000 A 
ATOM     11  C   UNL     1       3.569   2.360  18.425  0.00  0.00    +0.000 A 
ATOM     12  C   UNL     1       2.284   1.950  18.784  0.00  0.00    +0.000 A 
ATOM     13  C   UNL     1       1.199   2.792  18.562  0.00  0.00    +0.000 A 
ATOM     14  C   UNL     1       1.398   4.049  17.997  0.00  0.00    +0.000 A 
ATOM     15  C   UNL     1       2.683   4.458  17.645  0.00  0.00    +0.000 A 
ENDBRANCH   6  10
BRANCH   1  16
ATOM     16  O   UNL     1       6.929   4.499  14.493  0.00  0.00    +0.000 OA
BRANCH  16  17
ATOM     17  C   UNL     1       5.857   4.025  13.680  0.00  0.00    +0.000 C 
BRANCH  17  18
ATOM     18  C   UNL     1       6.471   3.494  12.386  0.00  0.00    +0.000 C 
BRANCH  18  20
ATOM     19  C   UNL     1       4.170   3.244  11.397  0.00  0.00    +0.000 C 
ATOM     20  C   UNL     1       5.514   2.573  11.635  0.00  0.00    +0.000 C 
ENDBRANCH  18  20
ENDBRANCH  17  18
ENDBRANCH  16  17
ENDBRANCH   1  16
TORSDOF 5
ENDMDL
MODEL 2
REMARK VINA RESULT:      -7.6      1.013      1.420
REMARK  Name = 
REMARK  6 active torsions:
REMARK  status: ('A' for Active; 'I' for Inactive)
REMARK    1  A    between atoms: C_1  and  C_2
REMARK    2  A    between atoms: C_2  and  C_3
REMARK    3  A    between atoms: C_3  and  C_4
REMARK    4  A    between atoms: C_4  and  O_5
REMARK    5  A    between atoms: O_5  and  C_6
REMARK    6  A    between atoms: C_11  and  C_12
REMARK                            x       y       z     vdW  Elec       q    Type
REMARK                         _______ _______ _______ _____ _____    ______ ____
ROOT
ATOM      1  C   UNL     1       6.764   4.510  16.604  0.00  0.00    +0.000 A 
ATOM      2  N   UNL     1       7.691   4.927  17.462  0.00  0.00    +0.000 NA
ATOM      3  C   UNL     1       7.253   5.098  18.695  0.00  0.00    +0.000 A 
ATOM      4  N   UNL     1       8.149   5.550  19.643  0.00  0.00    +0.000 N 
ATOM      5  N   UNL     1       6.030   4.844  19.108  0.00  0.00    +0.000 NA
ATOM      6  C   UNL     1       5.184   4.414  18.167  0.00  0.00    +0.000 A 
ATOM      7  N   UNL     1       5.503   4.234  16.888  0.00  0.00    +0.000 NA
ATOM      8  H   UNL     1       9.100   5.340  19.377  0.00  0.00    +0.000 HD
ATOM      9  H   UNL     1       7.852   5.286  20.570  0.00  0.00    +0.000 HD
ENDROOT
BRANCH   6  10
ATOM     10  C   UNL     1       3.811   4.092  18.586  0.00  0.00    +0.000 A 
ATOM     11  C   UNL     1       2.729   4.223  17.694  0.00  0.00    +0.000 A 
ATOM     12  C   UNL     1       1.421   3.956  18.097  0.00  0.00    +0.000 A 
ATOM     13  C   UNL     1       1.166   3.552  19.404  0.00  0.00    +0.000 A 
ATOM     14  C   UNL     1       2.219   3.400  20.304  0.00  0.00    +0.000 A 
ATOM     15  C   UNL     1       3.526   3.662  19.895  0.00  0.00    +0.000 A 
ENDBRANCH   6  10
BRANCH   1  16
ATOM     16  O   UNL     1       7.069   4.432  15.263  0.00  0.00    +0.000 OA
BRANCH  16  17
ATOM     17  C   UNL     1       6.040   3.811  14.496  0.00  0.00    +0.000 C 
BRANCH  17  18
ATOM     18  C   UNL     1       6.491   3.823  13.038  0.00  0.00    +0.000 C 
BRANCH  18  20
ATOM     19  C   UNL     1       5.735   2.003  11.474  0.00  0.00    +0.000 C 
ATOM     20  C   UNL     1       5.391   3.348  12.094  0.00  0.00    +0.000 C 
ENDBRANCH  18  20
ENDBRANCH  17  18
ENDBRANCH  16  17
ENDBRANCH   1  16
TORSDOF 5
ENDMDL
MODEL 3
REMARK VINA RESULT:      -7.6      1.121      1.360
REMARK  Name = 
REMARK  6 active torsions:
REMARK  status: ('A' for Active; 'I' for Inactive)
REMARK    1  A    between atoms: C_1  and  C_2
REMARK    2  A    between atoms: C_2  and  C_3
REMARK    3  A    between atoms: C_3  and  C_4
REMARK    4  A    between atoms: C_4  and  O_5
REMARK    5  A    between atoms: O_5  and  C_6
REMARK    6  A    between atoms: C_11  and  C_12
REMARK                            x       y       z     vdW  Elec       q    Type
REMARK                         _______ _______ _______ _____ _____    ______ ____
ROOT
ATOM      1  C   UNL     1       6.769   4.477  16.646  0.00  0.00    +0.000 A 
ATOM      2  N   UNL     1       7.708   4.866  17.505  0.00  0.00    +0.000 NA
ATOM      3  C   UNL     1       7.272   5.069  18.734  0.00  0.00    +0.000 A 
ATOM      4  N   UNL     1       8.182   5.495  19.681  0.00  0.00    +0.000 N 
ATOM      5  N   UNL     1       6.038   4.870  19.143  0.00  0.00    +0.000 NA
ATOM      6  C   UNL     1       5.180   4.464  18.202  0.00  0.00    +0.000 A 
ATOM      7  N   UNL     1       5.496   4.256  16.928  0.00  0.00    +0.000 NA
ATOM      8  H   UNL     1       9.124   5.243  19.422  0.00  0.00    +0.000 HD
ATOM      9  H   UNL     1       7.870   5.254  20.610  0.00  0.00    +0.000 HD
ENDROOT
BRANCH   6  10
ATOM     10  C   UNL     1       3.793   4.204  18.619  0.00  0.00    +0.000 A 
ATOM     11  C   UNL     1       3.274   4.756  19.805  0.00  0.00    +0.000 A 
ATOM     12  C   UNL     1       1.971   4.482  20.223  0.00  0.00    +0.000 A 
ATOM     13  C   UNL     1       1.159   3.647  19.462  0.00  0.00    +0.000 A 
ATOM     14  C   UNL     1       1.641   3.099  18.276  0.00  0.00    +0.000 A 
ATOM     15  C   UNL     1       2.941   3.381  17.858  0.00  0.00    +0.000 A 
ENDBRANCH   6  10
BRANCH   1  16
ATOM     16  O   UNL     1       7.077   4.371  15.308  0.00  0.00    +0.000 OA
BRANCH  16  17
ATOM     17  C   UNL     1       5.946   4.041  14.505  0.00  0.00    +0.000 C 
BRANCH  17  18
ATOM     18  C   UNL     1       6.448   3.841  13.077  0.00  0.00    +0.000 C 
BRANCH  18  20
ATOM     19  C   UNL     1       5.803   1.997  11.490  0.00  0.00    +0.000 C 
ATOM     20  C   UNL     1       5.361   3.289  12.159  0.00  0.00    +0.000 C 
ENDBRANCH  18  20
ENDBRANCH  17  18
ENDBRANCH  16  17
ENDBRANCH   1  16
TORSDOF 5
ENDMDL
MODEL 4
REMARK VINA RESULT:      -7.5      1.340      1.642
REMARK  Name = 
REMARK  6 active torsions:
REMARK  status: ('A' for Active; 'I' for Inactive)
REMARK    1  A    between atoms: C_1  and  C_2
REMARK    2  A    between atoms: C_2  and  C_3
REMARK    3  A    between atoms: C_3  and  C_4
REMARK    4  A    between atoms: C_4  and  O_5
REMARK    5  A    between atoms: O_5  and  C_6
REMARK    6  A    between atoms: C_11  and  C_12
REMARK                            x       y       z     vdW  Elec       q    Type
REMARK                         _______ _______ _______ _____ _____    ______ ____
ROOT
ATOM      1  C   UNL     1       6.646   5.092  15.505  0.00  0.00    +0.000 A 
ATOM      2  N   UNL     1       7.433   6.016  16.051  0.00  0.00    +0.000 NA
ATOM      3  C   UNL     1       6.941   6.574  17.142  0.00  0.00    +0.000 A 
ATOM      4  N   UNL     1       7.688   7.559  17.757  0.00  0.00    +0.000 N 
ATOM      5  N   UNL     1       5.803   6.247  17.713  0.00  0.00    +0.000 NA
ATOM      6  C   UNL     1       5.100   5.296  17.091  0.00  0.00    +0.000 A 
ATOM      7  N   UNL     1       5.478   4.686  15.972  0.00  0.00    +0.000 NA
ATOM      8  H   UNL     1       8.667   7.473  17.526  0.00  0.00    +0.000 HD
ATOM      9  H   UNL     1       7.441   7.637  18.732  0.00  0.00    +0.000 HD
ENDROOT
BRANCH   6  10
ATOM     10  C   UNL     1       3.830   4.880  17.708  0.00  0.00    +0.000 A 
ATOM     11  C   UNL     1       3.264   5.611  18.769  0.00  0.00    +0.000 A 
ATOM     12  C   UNL     1       2.080   5.199  19.382  0.00  0.00    +0.000 A 
ATOM     13  C   UNL     1       1.437   4.044  18.946  0.00  0.00    +0.000 A 
ATOM     14  C   UNL     1       1.968   3.310  17.887  0.00  0.00    +0.000 A 
ATOM     15  C   UNL     1       3.147   3.729  17.273  0.00  0.00    +0.000 A 
ENDBRANCH   6  10
BRANCH   1  16
ATOM     16  O   UNL     1       6.989   4.543  14.290  0.00  0.00    +0.000 OA
BRANCH  16  17
ATOM     17  C   UNL     1       5.929   3.791  13.704  0.00  0.00    +0.000 C 
BRANCH  17  18
ATOM     18  C   UNL     1       6.344   3.464  12.271  0.00  0.00    +0.000 C 
BRANCH  18  20
ATOM     19  C   UNL     1       4.086   3.184  11.195  0.00  0.00    +0.000 C 
ATOM     20  C   UNL     1       5.377   2.491  11.602  0.00  0.00    +0.000 C 
ENDBRANCH  18  20
ENDBRANCH  17  18
ENDBRANCH  16  17
ENDBRANCH   1  16
TORSDOF 5
ENDMDL
MODEL 5
REMARK VINA RESULT:      -7.3      0.907      1.045
REMARK  Name = 
REMARK  6 active torsions:
REMARK  status: ('A' for Active; 'I' for Inactive)
REMARK    1  A    between atoms: C_1  and  C_2
REMARK    2  A    between atoms: C_2  and  C_3
REMARK    3  A    between atoms: C_3  and  C_4
REMARK    4  A    between atoms: C_4  and  O_5
REMARK    5  A    between atoms: O_5  and  C_6
REMARK    6  A    between atoms: C_11  and  C_12
REMARK                            x       y       z     vdW  Elec       q    Type
REMARK                         _______ _______ _______ _____ _____    ______ ____
ROOT
ATOM      1  C   UNL     1       7.149   4.594  16.713  0.00  0.00    +0.000 A 
ATOM      2  N   UNL     1       7.890   5.010  17.737  0.00  0.00    +0.000 NA
ATOM      3  C   UNL     1       7.242   5.078  18.885  0.00  0.00    +0.000 A 
ATOM      4  N   UNL     1       7.935   5.522  19.994  0.00  0.00    +0.000 N 
ATOM      5  N   UNL     1       5.987   4.728  19.069  0.00  0.00    +0.000 NA
ATOM      6  C   UNL     1       5.342   4.310  17.977  0.00  0.00    +0.000 A 
ATOM      7  N   UNL     1       5.880   4.228  16.764  0.00  0.00    +0.000 NA
ATOM      8  H   UNL     1       8.928   5.384  19.883  0.00  0.00    +0.000 HD
ATOM      9  H   UNL     1       7.506   5.184  20.842  0.00  0.00    +0.000 HD
ENDROOT
BRANCH   6  10
ATOM     10  C   UNL     1       3.942   3.883  18.139  0.00  0.00    +0.000 A 
ATOM     11  C   UNL     1       3.564   2.542  17.942  0.00  0.00    +0.000 A 
ATOM     12  C   UNL     1       2.233   2.140  18.057  0.00  0.00    +0.000 A 
ATOM     13  C   UNL     1       1.251   3.073  18.373  0.00  0.00    +0.000 A 
ATOM     14  C   UNL     1       1.599   4.404  18.588  0.00  0.00    +0.000 A 
ATOM     15  C   UNL     1       2.931   4.801  18.478  0.00  0.00    +0.000 A 
ENDBRANCH   6  10
BRANCH   1  16
ATOM     16  O   UNL     1       7.678   4.617  15.442  0.00  0.00    +0.000 OA
BRANCH  16  17
ATOM     17  C   UNL     1       6.808   5.228  14.491  0.00  0.00    +0.000 C 
BRANCH  17  18
ATOM     18  C   UNL     1       6.793   4.335  13.253  0.00  0.00    +0.000 C 
BRANCH  18  20
ATOM     19  C   UNL     1       5.349   2.909  11.764  0.00  0.00    +0.000 C 
ATOM     20  C   UNL     1       5.503   3.526  13.145  0.00  0.00    +0.000 C 
ENDBRANCH  18  20
ENDBRANCH  17  18
ENDBRANCH  16  17
ENDBRANCH   1  16
TORSDOF 5
ENDMDL
MODEL 6
REMARK VINA RESULT:      -7.3      1.192      1.435
REMARK  Name = 
REMARK  6 active torsions:
REMARK  status: ('A' for Active; 'I' for Inactive)
REMARK    1  A    between atoms: C_1  and  C_2
REMARK    2  A    between atoms: C_2  and  C_3
REMARK    3  A    between atoms: C_3  and  C_4
REMARK    4  A    between atoms: C_4  and  O_5
REMARK    5  A    between atoms: O_5  and  C_6
REMARK    6  A    between atoms: C_11  and  C_12
REMARK                            x       y       z     vdW  Elec       q    Type
REMARK                         _______ _______ _______ _____ _____    ______ ____
ROOT
ATOM      1  C   UNL     1       5.609   4.147  15.871  0.00  0.00    +0.000 A 
ATOM      2  N   UNL     1       6.771   4.386  16.472  0.00  0.00    +0.000 NA
ATOM      3  C   UNL     1       6.691   4.504  17.784  0.00  0.00    +0.000 A 
ATOM      4  N   UNL     1       7.852   4.774  18.481  0.00  0.00    +0.000 N 
ATOM      5  N   UNL     1       5.594   4.355  18.493  0.00  0.00    +0.000 NA
ATOM      6  C   UNL     1       4.486   4.101  17.790  0.00  0.00    +0.000 A 
ATOM      7  N   UNL     1       4.439   3.991  16.466  0.00  0.00    +0.000 NA
ATOM      8  H   UNL     1       8.667   4.481  17.962  0.00  0.00    +0.000 HD
ATOM      9  H   UNL     1       7.772   4.470  19.440  0.00  0.00    +0.000 HD
ENDROOT
BRANCH   6  10
ATOM     10  C   UNL     1       3.237   3.901  18.543  0.00  0.00    +0.000 A 
ATOM     11  C   UNL     1       3.017   4.554  19.771  0.00  0.00    +0.000 A 
ATOM     12  C   UNL     1       1.851   4.339  20.506  0.00  0.00    +0.000 A 
ATOM     13  C   UNL     1       0.880   3.465  20.028  0.00  0.00    +0.000 A 
ATOM     14  C   UNL     1       1.065   2.818  18.809  0.00  0.00    +0.000 A 
ATOM     15  C   UNL     1       2.228   3.040  18.074  0.00  0.00    +0.000 A 
ENDBRANCH   6  10
BRANCH   1  16
ATOM     16  O   UNL     1       5.546   4.144  14.495  0.00  0.00    +0.000 OA
BRANCH  16  17
ATOM     17  C   UNL     1       6.792   4.472  13.883  0.00  0.00    +0.000 C 
BRANCH  17  18
ATOM     18  C   UNL     1       6.725   3.991  12.436  0.00  0.00    +0.000 C 
BRANCH  18  20
ATOM     19  C   UNL     1       5.720   1.902  11.457  0.00  0.00    +0.000 C 
ATOM     20  C   UNL     1       5.436   3.229  12.144  0.00  0.00    +0.000 C 
ENDBRANCH  18  20
ENDBRANCH  17  18
ENDBRANCH  16  17
ENDBRANCH   1  16
TORSDOF 5
ENDMDL
MODEL 7
REMARK VINA RESULT:      -7.3      1.736      2.205
REMARK  Name = 
REMARK  6 active torsions:
REMARK  status: ('A' for Active; 'I' for Inactive)
REMARK    1  A    between atoms: C_1  and  C_2
REMARK    2  A    between atoms: C_2  and  C_3
REMARK    3  A    between atoms: C_3  and  C_4
REMARK    4  A    between atoms: C_4  and  O_5
REMARK    5  A    between atoms: O_5  and  C_6
REMARK    6  A    between atoms: C_11  and  C_12
REMARK                            x       y       z     vdW  Elec       q    Type
REMARK                         _______ _______ _______ _____ _____    ______ ____
ROOT
ATOM      1  C   UNL     1       6.227   5.734  17.161  0.00  0.00    +0.000 A 
ATOM      2  N   UNL     1       7.329   5.811  17.903  0.00  0.00    +0.000 NA
ATOM      3  C   UNL     1       7.148   5.513  19.177  0.00  0.00    +0.000 A 
ATOM      4  N   UNL     1       8.239   5.589  20.020  0.00  0.00    +0.000 N 
ATOM      5  N   UNL     1       6.013   5.118  19.709  0.00  0.00    +0.000 NA
ATOM      6  C   UNL     1       4.974   5.060  18.870  0.00  0.00    +0.000 A 
ATOM      7  N   UNL     1       5.028   5.365  17.578  0.00  0.00    +0.000 NA
ATOM      8  H   UNL     1       9.104   5.498  19.507  0.00  0.00    +0.000 HD
ATOM      9  H   UNL     1       8.108   5.001  20.828  0.00  0.00    +0.000 HD
ENDROOT
BRANCH   6  10
ATOM     10  C   UNL     1       3.688   4.599  19.416  0.00  0.00    +0.000 A 
ATOM     11  C   UNL     1       2.820   5.486  20.081  0.00  0.00    +0.000 A 
ATOM     12  C   UNL     1       1.617   5.045  20.633  0.00  0.00    +0.000 A 
ATOM     13  C   UNL     1       1.256   3.706  20.532  0.00  0.00    +0.000 A 
ATOM     14  C   UNL     1       2.088   2.809  19.866  0.00  0.00    +0.000 A 
ATOM     15  C   UNL     1       3.287   3.254  19.310  0.00  0.00    +0.000 A 
ENDBRANCH   6  10
BRANCH   1  16
ATOM     16  O   UNL     1       6.263   6.157  15.851  0.00  0.00    +0.000 OA
BRANCH  16  17
ATOM     17  C   UNL     1       5.552   5.291  14.970  0.00  0.00    +0.000 C 
BRANCH  17  18
ATOM     18  C   UNL     1       6.517   4.188  14.542  0.00  0.00    +0.000 C 
BRANCH  18  20
ATOM     19  C   UNL     1       5.778   3.291  12.309  0.00  0.00    +0.000 C 
ATOM     20  C   UNL     1       6.763   4.194  13.036  0.00  0.00    +0.000 C 
ENDBRANCH  18  20
ENDBRANCH  17  18
ENDBRANCH  16  17
ENDBRANCH   1  16
TORSDOF 5
ENDMDL
MODEL 8
REMARK VINA RESULT:      -7.3      1.312      1.431
REMARK  Name = 
REMARK  6 active torsions:
REMARK  status: ('A' for Active; 'I' for Inactive)
REMARK    1  A    between atoms: C_1  and  C_2
REMARK    2  A    between atoms: C_2  and  C_3
REMARK    3  A    between atoms: C_3  and  C_4
REMARK    4  A    between atoms: C_4  and  O_5
REMARK    5  A    between atoms: O_5  and  C_6
REMARK    6  A    between atoms: C_11  and  C_12
REMARK                            x       y       z     vdW  Elec       q    Type
REMARK                         _______ _______ _______ _____ _____    ______ ____
ROOT
ATOM      1  C   UNL     1       6.423   4.636  14.729  0.00  0.00    +0.000 A 
ATOM      2  N   UNL     1       7.249   5.532  15.263  0.00  0.00    +0.000 NA
ATOM      3  C   UNL     1       6.864   5.995  16.438  0.00  0.00    +0.000 A 
ATOM      4  N   UNL     1       7.657   6.946  17.050  0.00  0.00    +0.000 N 
ATOM      5  N   UNL     1       5.794   5.601  17.094  0.00  0.00    +0.000 NA
ATOM      6  C   UNL     1       5.045   4.686  16.474  0.00  0.00    +0.000 A 
ATOM      7  N   UNL     1       5.314   4.170  15.279  0.00  0.00    +0.000 NA
ATOM      8  H   UNL     1       8.608   6.899  16.715  0.00  0.00    +0.000 HD
ATOM      9  H   UNL     1       7.509   6.945  18.048  0.00  0.00    +0.000 HD
ENDROOT
BRANCH   6  10
ATOM     10  C   UNL     1       3.850   4.196  17.181  0.00  0.00    +0.000 A 
ATOM     11  C   UNL     1       3.573   2.819  17.272  0.00  0.00    +0.000 A 
ATOM     12  C   UNL     1       2.423   2.352  17.908  0.00  0.00    +0.000 A 
ATOM     13  C   UNL     1       1.524   3.254  18.468  0.00  0.00    +0.000 A 
ATOM     14  C   UNL     1       1.781   4.622  18.406  0.00  0.00    +0.000 A 
ATOM     15  C   UNL     1       2.935   5.085  17.775  0.00  0.00    +0.000 A 
ENDBRANCH   6  10
BRANCH   1  16
ATOM     16  O   UNL     1       6.647   4.189  13.446  0.00  0.00    +0.000 OA
BRANCH  16  17
ATOM     17  C   UNL     1       5.664   3.254  13.006  0.00  0.00    +0.000 C 
BRANCH  17  18
ATOM     18  C   UNL     1       5.226   3.683  11.608  0.00  0.00    +0.000 C 
BRANCH  18  20
ATOM     19  C   UNL     1       3.242   3.874  10.072  0.00  0.00    +0.000 C 
ATOM     20  C   UNL     1       3.859   3.116  11.236  0.00  0.00    +0.000 C 
ENDBRANCH  18  20
ENDBRANCH  17  18
ENDBRANCH  16  17
ENDBRANCH   1  16
TORSDOF 5
ENDMDL
MODEL 9
REMARK VINA RESULT:      -7.3      1.537      1.762
REMARK  Name = 
REMARK  6 active torsions:
REMARK  status: ('A' for Active; 'I' for Inactive)
REMARK    1  A    between atoms: C_1  and  C_2
REMARK    2  A    between atoms: C_2  and  C_3
REMARK    3  A    between atoms: C_3  and  C_4
REMARK    4  A    between atoms: C_4  and  O_5
REMARK    5  A    between atoms: O_5  and  C_6
REMARK    6  A    between atoms: C_11  and  C_12
REMARK                            x       y       z     vdW  Elec       q    Type
REMARK                         _______ _______ _______ _____ _____    ______ ____
ROOT
ATOM      1  C   UNL     1       6.489   5.441  17.016  0.00  0.00    +0.000 A 
ATOM      2  N   UNL     1       7.503   5.579  17.865  0.00  0.00    +0.000 NA
ATOM      3  C   UNL     1       7.174   5.429  19.135  0.00  0.00    +0.000 A 
ATOM      4  N   UNL     1       8.167   5.579  20.083  0.00  0.00    +0.000 N 
ATOM      5  N   UNL     1       5.974   5.119  19.575  0.00  0.00    +0.000 NA
ATOM      6  C   UNL     1       5.033   4.988  18.636  0.00  0.00    +0.000 A 
ATOM      7  N   UNL     1       5.239   5.144  17.332  0.00  0.00    +0.000 NA
ATOM      8  H   UNL     1       9.079   5.413  19.685  0.00  0.00    +0.000 HD
ATOM      9  H   UNL     1       7.928   5.087  20.931  0.00  0.00    +0.000 HD
ENDROOT
BRANCH   6  10
ATOM     10  C   UNL     1       3.680   4.616  19.079  0.00  0.00    +0.000 A 
ATOM     11  C   UNL     1       2.955   3.601  18.425  0.00  0.00    +0.000 A 
ATOM     12  C   UNL     1       1.657   3.271  18.818  0.00  0.00    +0.000 A 
ATOM     13  C   UNL     1       1.057   3.950  19.873  0.00  0.00    +0.000 A 
ATOM     14  C   UNL     1       1.757   4.947  20.547  0.00  0.00    +0.000 A 
ATOM     15  C   UNL     1       3.056   5.271  20.157  0.00  0.00    +0.000 A 
ENDBRANCH   6  10
BRANCH   1  16
ATOM     16  O   UNL     1       6.683   5.713  15.680  0.00  0.00    +0.000 OA
BRANCH  16  17
ATOM     17  C   UNL     1       5.669   5.154  14.848  0.00  0.00    +0.000 C 
BRANCH  17  18
ATOM     18  C   UNL     1       6.244   3.886  14.222  0.00  0.00    +0.000 C 
BRANCH  18  20
ATOM     19  C   UNL     1       5.795   2.857  11.970  0.00  0.00    +0.000 C 
ATOM     20  C   UNL     1       6.428   4.023  12.714  0.00  0.00    +0.000 C 
ENDBRANCH  18  20
ENDBRANCH  17  18
ENDBRANCH  16  17
ENDBRANCH   1  16
TORSDOF 5
ENDMDL
