MODEL 1
REMARK VINA RESULT:      -7.3      0.000      0.000
REMARK  Name = 
REMARK  9 active torsions:
REMARK  status: ('A' for Active; 'I' for Inactive)
REMARK    1  A    between atoms: C_1  and  C_2
REMARK    2  A    between atoms: C_4  and  C_5
REMARK    3  A    between atoms: C_6  and  C_7
REMARK    4  A    between atoms: C_7  and  C_8
REMARK    5  A    between atoms: C_8  and  N_9
REMARK    6  A    between atoms: N_9  and  C_10
REMARK    7  A    between atoms: C_10  and  C_11
REMARK    8  A    between atoms: C_10  and  C_18
REMARK    9  A    between atoms: C_11  and  C_12
REMARK                            x       y       z     vdW  Elec       q    Type
REMARK                         _______ _______ _______ _____ _____    ______ ____
ROOT
ATOM      1  C   UNL     1       2.299   5.164  18.986  0.00  0.00    +0.000 C 
ENDROOT
BRANCH   1   2
ATOM      2  C   UNL     1       1.684   4.143  17.962  0.00  0.00    +0.000 C 
ATOM      3  F   UNL     1       2.641   3.535  17.220  0.00  0.00    +0.000 F 
ATOM      4  F   UNL     1       0.995   3.174  18.608  0.00  0.00    +0.000 F 
ATOM      5  F   UNL     1       0.837   4.725  17.084  0.00  0.00    +0.000 F 
ENDBRANCH   1   2
BRANCH   1   6
ATOM      6  N   UNL     1       3.469   4.674  19.793  0.00  0.00    +0.000 NA
ATOM      7  H   UNL     1       3.299   4.897  20.777  0.00  0.00    +0.000 HD
BRANCH   6   8
ATOM      8  C   UNL     1       4.733   5.310  19.383  0.00  0.00    +0.000 C 
BRANCH   8   9
ATOM      9  C   UNL     1       5.706   4.276  18.790  0.00  0.00    +0.000 C 
BRANCH   9  15
ATOM     10  C   UNL     1       6.998   4.755  13.654  0.00  0.00    +0.000 C 
ATOM     11  C   UNL     1       6.821   4.953  15.118  0.00  0.00    +0.000 A 
ATOM     12  N   UNL     1       7.431   5.882  15.822  0.00  0.00    +0.000 NA
ATOM     13  C   UNL     1       7.098   5.770  17.160  0.00  0.00    +0.000 A 
ATOM     14  C   UNL     1       7.707   6.731  18.118  0.00  0.00    +0.000 C 
ATOM     15  C   UNL     1       6.235   4.730  17.461  0.00  0.00    +0.000 A 
ATOM     16  S   UNL     1       5.788   3.917  16.014  0.00  0.00    +0.000 S 
ENDBRANCH   9  15
ENDBRANCH   8   9
ENDBRANCH   6   8
ENDBRANCH   1   6
BRANCH   1  17
ATOM     17  C   UNL     1       2.679   6.440  18.193  0.00  0.00    +0.000 C 
BRANCH  17  18
ATOM     18  C   UNL     1       2.134   7.758  18.689  0.00  0.00    +0.000 A 
ATOM     19  C   UNL     1       1.946   8.828  17.809  0.00  0.00    +0.000 A 
ATOM     20  C   UNL     1       1.337   9.982  18.280  0.00  0.00    +0.000 A 
ATOM     21  N   UNL     1       0.912  10.145  19.549  0.00  0.00    +0.000 NA
ATOM     22  C   UNL     1       1.116   9.109  20.390  0.00  0.00    +0.000 A 
ATOM     23  C   UNL     1       1.718   7.915  20.015  0.00  0.00    +0.000 A 
ENDBRANCH  17  18
ENDBRANCH   1  17
TORSDOF 7
ENDMDL
MODEL 2
REMARK VINA RESULT:      -7.1      0.983      1.329
REMARK  Name = 
REMARK  9 active torsions:
REMARK  status: ('A' for Active; 'I' for Inactive)
REMARK    1  A    between atoms: C_1  and  C_2
REMARK    2  A    between atoms: C_4  and  C_5
REMARK    3  A    between atoms: C_6  and  C_7
REMARK    4  A    between atoms: C_7  and  C_8
REMARK    5  A    between atoms: C_8  and  N_9
REMARK    6  A    between atoms: N_9  and  C_10
REMARK    7  A    between atoms: C_10  and  C_11
REMARK    8  A    between atoms: C_10  and  C_18
REMARK    9  A    between atoms: C_11  and  C_12
REMARK                            x       y       z     vdW  Elec       q    Type
REMARK                         _______ _______ _______ _____ _____    ______ ____
ROOT
ATOM      1  C   UNL     1       2.299   3.839  19.260  0.00  0.00    +0.000 C 
ENDROOT
BRANCH   1   2
ATOM      2  C   UNL     1       1.801   2.555  18.503  0.00  0.00    +0.000 C 
ATOM      3  F   UNL     1       2.247   1.419  19.090  0.00  0.00    +0.000 F 
ATOM      4  F   UNL     1       0.449   2.502  18.489  0.00  0.00    +0.000 F 
ATOM      5  F   UNL     1       2.220   2.508  17.218  0.00  0.00    +0.000 F 
ENDBRANCH   1   2
BRANCH   1   6
ATOM      6  N   UNL     1       3.586   3.703  20.025  0.00  0.00    +0.000 NA
ATOM      7  H   UNL     1       3.721   4.548  20.586  0.00  0.00    +0.000 HD
BRANCH   6   8
ATOM      8  C   UNL     1       4.749   3.545  19.133  0.00  0.00    +0.000 C 
BRANCH   8   9
ATOM      9  C   UNL     1       5.602   4.826  19.104  0.00  0.00    +0.000 C 
BRANCH   9  15
ATOM     10  C   UNL     1       6.836   4.628  13.935  0.00  0.00    +0.000 C 
ATOM     11  C   UNL     1       6.705   4.997  15.371  0.00  0.00    +0.000 A 
ATOM     12  N   UNL     1       7.410   5.936  15.963  0.00  0.00    +0.000 NA
ATOM     13  C   UNL     1       7.094   6.001  17.309  0.00  0.00    +0.000 A 
ATOM     14  C   UNL     1       7.805   6.998  18.151  0.00  0.00    +0.000 C 
ATOM     15  C   UNL     1       6.145   5.083  17.729  0.00  0.00    +0.000 A 
ATOM     16  S   UNL     1       5.599   4.164  16.382  0.00  0.00    +0.000 S 
ENDBRANCH   9  15
ENDBRANCH   8   9
ENDBRANCH   6   8
ENDBRANCH   1   6
BRANCH   1  17
ATOM     17  C   UNL     1       2.402   4.979  18.216  0.00  0.00    +0.000 C 
BRANCH  17  18
ATOM     18  C   UNL     1       2.230   6.396  18.710  0.00  0.00    +0.000 A 
ATOM     19  C   UNL     1       2.262   7.471  17.816  0.00  0.00    +0.000 A 
ATOM     20  C   UNL     1       1.986   8.744  18.292  0.00  0.00    +0.000 A 
ATOM     21  N   UNL     1       1.687   9.020  19.578  0.00  0.00    +0.000 NA
ATOM     22  C   UNL     1       1.676   7.973  20.430  0.00  0.00    +0.000 A 
ATOM     23  C   UNL     1       1.942   6.664  20.052  0.00  0.00    +0.000 A 
ENDBRANCH  17  18
ENDBRANCH   1  17
TORSDOF 7
ENDMDL
MODEL 3
REMARK VINA RESULT:      -6.9      1.783      2.309
REMARK  Name = 
REMARK  9 active torsions:
REMARK  status: ('A' for Active; 'I' for Inactive)
REMARK    1  A    between atoms: C_1  and  C_2
REMARK    2  A    between atoms: C_4  and  C_5
REMARK    3  A    between atoms: C_6  and  C_7
REMARK    4  A    between atoms: C_7  and  C_8
REMARK    5  A    between atoms: C_8  and  N_9
REMARK    6  A    between atoms: N_9  and  C_10
REMARK    7  A    between atoms: C_10  and  C_11
REMARK    8  A    between atoms: C_10  and  C_18
REMARK    9  A    between atoms: C_11  and  C_12
REMARK                            x       y       z     vdW  Elec       q    Type
REMARK                         _______ _______ _______ _____ _____    ______ ____
ROOT
ATOM      1  C   UNL     1       3.085   3.635  20.164  0.00  0.00    +0.000 C 
ENDROOT
BRANCH   1   2
ATOM      2  C   UNL     1       2.319   3.063  21.411  0.00  0.00    +0.000 C 
ATOM      3  F   UNL     1       2.924   1.959  21.912  0.00  0.00    +0.000 F 
ATOM      4  F   UNL     1       2.264   3.982  22.403  0.00  0.00    +0.000 F 
ATOM      5  F   UNL     1       1.048   2.701  21.125  0.00  0.00    +0.000 F 
ENDBRANCH   1   2
BRANCH   1   6
ATOM      6  N   UNL     1       3.849   2.638  19.338  0.00  0.00    +0.000 NA
ATOM      7  H   UNL     1       4.641   2.300  19.889  0.00  0.00    +0.000 HD
BRANCH   6   8
ATOM      8  C   UNL     1       4.367   3.231  18.092  0.00  0.00    +0.000 C 
BRANCH   8   9
ATOM      9  C   UNL     1       5.507   4.222  18.383  0.00  0.00    +0.000 C 
BRANCH   9  15
ATOM     10  C   UNL     1       7.274   4.758  13.395  0.00  0.00    +0.000 C 
ATOM     11  C   UNL     1       6.952   4.944  14.837  0.00  0.00    +0.000 A 
ATOM     12  N   UNL     1       7.468   5.884  15.598  0.00  0.00    +0.000 NA
ATOM     13  C   UNL     1       7.012   5.758  16.898  0.00  0.00    +0.000 A 
ATOM     14  C   UNL     1       7.502   6.728  17.912  0.00  0.00    +0.000 C 
ATOM     15  C   UNL     1       6.150   4.696  17.112  0.00  0.00    +0.000 A 
ATOM     16  S   UNL     1       5.864   3.880  15.626  0.00  0.00    +0.000 S 
ENDBRANCH   9  15
ENDBRANCH   8   9
ENDBRANCH   6   8
ENDBRANCH   1   6
BRANCH   1  17
ATOM     17  C   UNL     1       2.050   4.389  19.293  0.00  0.00    +0.000 C 
BRANCH  17  18
ATOM     18  C   UNL     1       2.070   5.899  19.334  0.00  0.00    +0.000 A 
ATOM     19  C   UNL     1       2.404   6.638  18.195  0.00  0.00    +0.000 A 
ATOM     20  C   UNL     1       2.301   8.020  18.241  0.00  0.00    +0.000 A 
ATOM     21  N   UNL     1       1.896   8.709  19.327  0.00  0.00    +0.000 NA
ATOM     22  C   UNL     1       1.593   7.982  20.423  0.00  0.00    +0.000 A 
ATOM     23  C   UNL     1       1.668   6.596  20.477  0.00  0.00    +0.000 A 
ENDBRANCH  17  18
ENDBRANCH   1  17
TORSDOF 7
ENDMDL
MODEL 4
REMARK VINA RESULT:      -6.8      1.558      2.309
REMARK  Name = 
REMARK  9 active torsions:
REMARK  status: ('A' for Active; 'I' for Inactive)
REMARK    1  A    between atoms: C_1  and  C_2
REMARK    2  A    between atoms: C_4  and  C_5
REMARK    3  A    between atoms: C_6  and  C_7
REMARK    4  A    between atoms: C_7  and  C_8
REMARK    5  A    between atoms: C_8  and  N_9
REMARK    6  A    between atoms: N_9  and  C_10
REMARK    7  A    between atoms: C_10  and  C_11
REMARK    8  A    between atoms: C_10  and  C_18
REMARK    9  A    between atoms: C_11  and  C_12
REMARK                            x       y       z     vdW  Elec       q    Type
REMARK                         _______ _______ _______ _____ _____    ______ ____
ROOT
ATOM      1  C   UNL     1       3.080   5.506  19.728  0.00  0.00    +0.000 C 
ENDROOT
BRANCH   1   2
ATOM      2  C   UNL     1       1.888   4.482  19.723  0.00  0.00    +0.000 C 
ATOM      3  F   UNL     1       2.289   3.239  20.078  0.00  0.00    +0.000 F 
ATOM      4  F   UNL     1       0.926   4.864  20.594  0.00  0.00    +0.000 F 
ATOM      5  F   UNL     1       1.307   4.360  18.508  0.00  0.00    +0.000 F 
ENDBRANCH   1   2
BRANCH   1   6
ATOM      6  N   UNL     1       4.461   4.919  19.633  0.00  0.00    +0.000 NA
ATOM      7  H   UNL     1       5.137   5.686  19.597  0.00  0.00    +0.000 HD
BRANCH   6   8
ATOM      8  C   UNL     1       4.631   4.090  18.427  0.00  0.00    +0.000 C 
BRANCH   8   9
ATOM      9  C   UNL     1       6.098   4.082  17.962  0.00  0.00    +0.000 C 
BRANCH   9  15
ATOM     10  C   UNL     1       8.449   8.845  18.216  0.00  0.00    +0.000 C 
ATOM     11  C   UNL     1       7.665   7.646  17.812  0.00  0.00    +0.000 A 
ATOM     12  N   UNL     1       6.839   7.609  16.789  0.00  0.00    +0.000 NA
ATOM     13  C   UNL     1       6.224   6.372  16.710  0.00  0.00    +0.000 A 
ATOM     14  C   UNL     1       5.239   6.145  15.620  0.00  0.00    +0.000 C 
ATOM     15  C   UNL     1       6.590   5.475  17.700  0.00  0.00    +0.000 A 
ATOM     16  S   UNL     1       7.779   6.192  18.713  0.00  0.00    +0.000 S 
ENDBRANCH   9  15
ENDBRANCH   8   9
ENDBRANCH   6   8
ENDBRANCH   1   6
BRANCH   1  17
ATOM     17  C   UNL     1       2.832   6.509  18.573  0.00  0.00    +0.000 C 
BRANCH  17  18
ATOM     18  C   UNL     1       2.127   7.801  18.910  0.00  0.00    +0.000 A 
ATOM     19  C   UNL     1       1.818   8.726  17.909  0.00  0.00    +0.000 A 
ATOM     20  C   UNL     1       1.070   9.846  18.241  0.00  0.00    +0.000 A 
ATOM     21  N   UNL     1       0.616  10.108  19.483  0.00  0.00    +0.000 NA
ATOM     22  C   UNL     1       0.938   9.212  20.442  0.00  0.00    +0.000 A 
ATOM     23  C   UNL     1       1.684   8.065  20.210  0.00  0.00    +0.000 A 
ENDBRANCH  17  18
ENDBRANCH   1  17
TORSDOF 7
ENDMDL
MODEL 5
REMARK VINA RESULT:      -6.8      2.360      3.854
REMARK  Name = 
REMARK  9 active torsions:
REMARK  status: ('A' for Active; 'I' for Inactive)
REMARK    1  A    between atoms: C_1  and  C_2
REMARK    2  A    between atoms: C_4  and  C_5
REMARK    3  A    between atoms: C_6  and  C_7
REMARK    4  A    between atoms: C_7  and  C_8
REMARK    5  A    between atoms: C_8  and  N_9
REMARK    6  A    between atoms: N_9  and  C_10
REMARK    7  A    between atoms: C_10  and  C_11
REMARK    8  A    between atoms: C_10  and  C_18
REMARK    9  A    between atoms: C_11  and  C_12
REMARK                            x       y       z     vdW  Elec       q    Type
REMARK                         _______ _______ _______ _____ _____    ______ ____
ROOT
ATOM      1  C   UNL     1       2.484   6.776  18.436  0.00  0.00    +0.000 C 
ENDROOT
BRANCH   1   2
ATOM      2  C   UNL     1       2.109   8.302  18.400  0.00  0.00    +0.000 C 
ATOM      3  F   UNL     1       1.111   8.556  17.521  0.00  0.00    +0.000 F 
ATOM      4  F   UNL     1       1.696   8.722  19.618  0.00  0.00    +0.000 F 
ATOM      5  F   UNL     1       3.146   9.088  18.032  0.00  0.00    +0.000 F 
ENDBRANCH   1   2
BRANCH   1   6
ATOM      6  N   UNL     1       3.853   6.415  17.931  0.00  0.00    +0.000 NA
ATOM      7  H   UNL     1       3.754   5.689  17.217  0.00  0.00    +0.000 HD
BRANCH   6   8
ATOM      8  C   UNL     1       4.722   5.898  19.004  0.00  0.00    +0.000 C 
BRANCH   8   9
ATOM      9  C   UNL     1       5.530   4.680  18.523  0.00  0.00    +0.000 C 
BRANCH   9  15
ATOM     10  C   UNL     1       6.977   4.371  13.415  0.00  0.00    +0.000 C 
ATOM     11  C   UNL     1       6.769   4.783  14.830  0.00  0.00    +0.000 A 
ATOM     12  N   UNL     1       7.394   5.782  15.413  0.00  0.00    +0.000 NA
ATOM     13  C   UNL     1       7.022   5.876  16.742  0.00  0.00    +0.000 A 
ATOM     14  C   UNL     1       7.641   6.942  17.572  0.00  0.00    +0.000 C 
ATOM     15  C   UNL     1       6.111   4.920  17.160  0.00  0.00    +0.000 A 
ATOM     16  S   UNL     1       5.672   3.924  15.830  0.00  0.00    +0.000 S 
ENDBRANCH   9  15
ENDBRANCH   8   9
ENDBRANCH   6   8
ENDBRANCH   1   6
BRANCH   1  17
ATOM     17  C   UNL     1       2.292   6.288  19.894  0.00  0.00    +0.000 C 
BRANCH  17  18
ATOM     18  C   UNL     1       1.867   4.854  20.100  0.00  0.00    +0.000 A 
ATOM     19  C   UNL     1       1.335   4.109  19.043  0.00  0.00    +0.000 A 
ATOM     20  C   UNL     1       1.064   2.764  19.243  0.00  0.00    +0.000 A 
ATOM     21  N   UNL     1       1.279   2.117  20.407  0.00  0.00    +0.000 NA
ATOM     22  C   UNL     1       1.778   2.854  21.422  0.00  0.00    +0.000 A 
ATOM     23  C   UNL     1       2.078   4.206  21.322  0.00  0.00    +0.000 A 
ENDBRANCH  17  18
ENDBRANCH   1  17
TORSDOF 7
ENDMDL
MODEL 6
REMARK VINA RESULT:      -6.7      1.123      1.550
REMARK  Name = 
REMARK  9 active torsions:
REMARK  status: ('A' for Active; 'I' for Inactive)
REMARK    1  A    between atoms: C_1  and  C_2
REMARK    2  A    between atoms: C_4  and  C_5
REMARK    3  A    between atoms: C_6  and  C_7
REMARK    4  A    between atoms: C_7  and  C_8
REMARK    5  A    between atoms: C_8  and  N_9
REMARK    6  A    between atoms: N_9  and  C_10
REMARK    7  A    between atoms: C_10  and  C_11
REMARK    8  A    between atoms: C_10  and  C_18
REMARK    9  A    between atoms: C_11  and  C_12
REMARK                            x       y       z     vdW  Elec       q    Type
REMARK                         _______ _______ _______ _____ _____    ______ ____
ROOT
ATOM      1  C   UNL     1       2.624   3.909  19.234  0.00  0.00    +0.000 C 
ENDROOT
BRANCH   1   2
ATOM      2  C   UNL     1       1.348   3.089  19.647  0.00  0.00    +0.000 C 
ATOM      3  F   UNL     1       0.466   2.982  18.625  0.00  0.00    +0.000 F 
ATOM      4  F   UNL     1       1.687   1.835  20.024  0.00  0.00    +0.000 F 
ATOM      5  F   UNL     1       0.672   3.652  20.673  0.00  0.00    +0.000 F 
ENDBRANCH   1   2
BRANCH   1   6
ATOM      6  N   UNL     1       3.788   3.112  18.714  0.00  0.00    +0.000 NA
ATOM      7  H   UNL     1       3.630   2.126  18.937  0.00  0.00    +0.000 HD
BRANCH   6   8
ATOM      8  C   UNL     1       5.063   3.529  19.324  0.00  0.00    +0.000 C 
BRANCH   8   9
ATOM      9  C   UNL     1       5.348   5.016  19.049  0.00  0.00    +0.000 C 
BRANCH   9  15
ATOM     10  C   UNL     1       6.896   4.653  13.974  0.00  0.00    +0.000 C 
ATOM     11  C   UNL     1       6.713   5.041  15.399  0.00  0.00    +0.000 A 
ATOM     12  N   UNL     1       7.482   5.894  16.042  0.00  0.00    +0.000 NA
ATOM     13  C   UNL     1       7.085   6.000  17.363  0.00  0.00    +0.000 A 
ATOM     14  C   UNL     1       7.850   6.911  18.255  0.00  0.00    +0.000 C 
ATOM     15  C   UNL     1       6.009   5.203  17.714  0.00  0.00    +0.000 A 
ATOM     16  S   UNL     1       5.451   4.348  16.331  0.00  0.00    +0.000 S 
ENDBRANCH   9  15
ENDBRANCH   8   9
ENDBRANCH   6   8
ENDBRANCH   1   6
BRANCH   1  17
ATOM     17  C   UNL     1       2.176   4.966  18.194  0.00  0.00    +0.000 C 
BRANCH  17  18
ATOM     18  C   UNL     1       2.095   6.404  18.649  0.00  0.00    +0.000 A 
ATOM     19  C   UNL     1       2.127   7.448  17.720  0.00  0.00    +0.000 A 
ATOM     20  C   UNL     1       1.935   8.746  18.168  0.00  0.00    +0.000 A 
ATOM     21  N   UNL     1       1.719   9.075  19.458  0.00  0.00    +0.000 NA
ATOM     22  C   UNL     1       1.708   8.056  20.344  0.00  0.00    +0.000 A 
ATOM     23  C   UNL     1       1.893   6.725  19.995  0.00  0.00    +0.000 A 
ENDBRANCH  17  18
ENDBRANCH   1  17
TORSDOF 7
ENDMDL
MODEL 7
REMARK VINA RESULT:      -6.6      2.362      6.975
REMARK  Name = 
REMARK  9 active torsions:
REMARK  status: ('A' for Active; 'I' for Inactive)
REMARK    1  A    between atoms: C_1  and  C_2
REMARK    2  A    between atoms: C_4  and  C_5
REMARK    3  A    between atoms: C_6  and  C_7
REMARK    4  A    between atoms: C_7  and  C_8
REMARK    5  A    between atoms: C_8  and  N_9
REMARK    6  A    between atoms: N_9  and  C_10
REMARK    7  A    between atoms: C_10  and  C_11
REMARK    8  A    between atoms: C_10  and  C_18
REMARK    9  A    between atoms: C_11  and  C_12
REMARK                            x       y       z     vdW  Elec       q    Type
REMARK                         _______ _______ _______ _____ _____    ______ ____
ROOT
ATOM      1  C   UNL     1       2.922   5.077  19.049  0.00  0.00    +0.000 C 
ENDROOT
BRANCH   1   2
ATOM      2  C   UNL     1       1.678   4.136  18.855  0.00  0.00    +0.000 C 
ATOM      3  F   UNL     1       0.769   4.290  19.847  0.00  0.00    +0.000 F 
ATOM      4  F   UNL     1       1.053   4.404  17.685  0.00  0.00    +0.000 F 
ATOM      5  F   UNL     1       2.009   2.825  18.846  0.00  0.00    +0.000 F 
ENDBRANCH   1   2
BRANCH   1   6
ATOM      6  N   UNL     1       2.864   6.023  20.216  0.00  0.00    +0.000 NA
ATOM      7  H   UNL     1       2.357   5.567  20.978  0.00  0.00    +0.000 HD
BRANCH   6   8
ATOM      8  C   UNL     1       2.170   7.279  19.879  0.00  0.00    +0.000 C 
BRANCH   8   9
ATOM      9  C   UNL     1       1.265   7.738  21.036  0.00  0.00    +0.000 C 
BRANCH   9  15
ATOM     10  C   UNL     1       0.003  12.480  18.985  0.00  0.00    +0.000 C 
ATOM     11  C   UNL     1       0.143  11.276  19.849  0.00  0.00    +0.000 A 
ATOM     12  N   UNL     1      -0.255  11.209  21.100  0.00  0.00    +0.000 NA
ATOM     13  C   UNL     1       0.064   9.978  21.644  0.00  0.00    +0.000 A 
ATOM     14  C   UNL     1      -0.295   9.721  23.064  0.00  0.00    +0.000 C 
ATOM     15  C   UNL     1       0.723   9.115  20.784  0.00  0.00    +0.000 A 
ATOM     16  S   UNL     1       0.887   9.855  19.241  0.00  0.00    +0.000 S 
ENDBRANCH   9  15
ENDBRANCH   8   9
ENDBRANCH   6   8
ENDBRANCH   1   6
BRANCH   1  17
ATOM     17  C   UNL     1       4.175   4.171  19.139  0.00  0.00    +0.000 C 
BRANCH  17  18
ATOM     18  C   UNL     1       5.252   4.363  18.098  0.00  0.00    +0.000 A 
ATOM     19  C   UNL     1       6.514   4.845  18.459  0.00  0.00    +0.000 A 
ATOM     20  C   UNL     1       7.510   4.899  17.495  0.00  0.00    +0.000 A 
ATOM     21  N   UNL     1       7.340   4.515  16.214  0.00  0.00    +0.000 NA
ATOM     22  C   UNL     1       6.111   4.068  15.878  0.00  0.00    +0.000 A 
ATOM     23  C   UNL     1       5.049   3.980  16.769  0.00  0.00    +0.000 A 
ENDBRANCH  17  18
ENDBRANCH   1  17
TORSDOF 7
ENDMDL
MODEL 8
REMARK VINA RESULT:      -6.6      1.428      2.338
REMARK  Name = 
REMARK  9 active torsions:
REMARK  status: ('A' for Active; 'I' for Inactive)
REMARK    1  A    between atoms: C_1  and  C_2
REMARK    2  A    between atoms: C_4  and  C_5
REMARK    3  A    between atoms: C_6  and  C_7
REMARK    4  A    between atoms: C_7  and  C_8
REMARK    5  A    between atoms: C_8  and  N_9
REMARK    6  A    between atoms: N_9  and  C_10
REMARK    7  A    between atoms: C_10  and  C_11
REMARK    8  A    between atoms: C_10  and  C_18
REMARK    9  A    between atoms: C_11  and  C_12
REMARK                            x       y       z     vdW  Elec       q    Type
REMARK                         _______ _______ _______ _____ _____    ______ ____
ROOT
ATOM      1  C   UNL     1       2.693   4.417  19.202  0.00  0.00    +0.000 C 
ENDROOT
BRANCH   1   2
ATOM      2  C   UNL     1       1.330   3.718  19.551  0.00  0.00    +0.000 C 
ATOM      3  F   UNL     1       0.573   3.508  18.448  0.00  0.00    +0.000 F 
ATOM      4  F   UNL     1       1.544   2.514  20.131  0.00  0.00    +0.000 F 
ATOM      5  F   UNL     1       0.569   4.446  20.399  0.00  0.00    +0.000 F 
ENDBRANCH   1   2
BRANCH   1   6
ATOM      6  N   UNL     1       2.875   4.843  17.771  0.00  0.00    +0.000 NA
ATOM      7  H   UNL     1       1.951   5.007  17.362  0.00  0.00    +0.000 HD
BRANCH   6   8
ATOM      8  C   UNL     1       3.564   3.816  16.969  0.00  0.00    +0.000 C 
BRANCH   8   9
ATOM      9  C   UNL     1       4.972   3.535  17.523  0.00  0.00    +0.000 C 
BRANCH   9  15
ATOM     10  C   UNL     1       7.895   7.975  17.664  0.00  0.00    +0.000 C 
ATOM     11  C   UNL     1       7.246   6.690  17.286  0.00  0.00    +0.000 A 
ATOM     12  N   UNL     1       7.321   6.142  16.093  0.00  0.00    +0.000 NA
ATOM     13  C   UNL     1       6.568   4.983  16.045  0.00  0.00    +0.000 A 
ATOM     14  C   UNL     1       6.518   4.229  14.764  0.00  0.00    +0.000 C 
ATOM     15  C   UNL     1       5.908   4.668  17.221  0.00  0.00    +0.000 A 
ATOM     16  S   UNL     1       6.299   5.829  18.427  0.00  0.00    +0.000 S 
ENDBRANCH   9  15
ENDBRANCH   8   9
ENDBRANCH   6   8
ENDBRANCH   1   6
BRANCH   1  17
ATOM     17  C   UNL     1       2.849   5.627  20.157  0.00  0.00    +0.000 C 
BRANCH  17  18
ATOM     18  C   UNL     1       2.385   6.975  19.658  0.00  0.00    +0.000 A 
ATOM     19  C   UNL     1       2.631   7.370  18.340  0.00  0.00    +0.000 A 
ATOM     20  C   UNL     1       2.090   8.564  17.887  0.00  0.00    +0.000 A 
ATOM     21  N   UNL     1       1.334   9.384  18.645  0.00  0.00    +0.000 NA
ATOM     22  C   UNL     1       1.119   8.995  19.921  0.00  0.00    +0.000 A 
ATOM     23  C   UNL     1       1.619   7.821  20.467  0.00  0.00    +0.000 A 
ENDBRANCH  17  18
ENDBRANCH   1  17
TORSDOF 7
ENDMDL
MODEL 9
REMARK VINA RESULT:      -6.6      3.242      6.988
REMARK  Name = 
REMARK  9 active torsions:
REMARK  status: ('A' for Active; 'I' for Inactive)
REMARK    1  A    between atoms: C_1  and  C_2
REMARK    2  A    between atoms: C_4  and  C_5
REMARK    3  A    between atoms: C_6  and  C_7
REMARK    4  A    between atoms: C_7  and  C_8
REMARK    5  A    between atoms: C_8  and  N_9
REMARK    6  A    between atoms: N_9  and  C_10
REMARK    7  A    between atoms: C_10  and  C_11
REMARK    8  A    between atoms: C_10  and  C_18
REMARK    9  A    between atoms: C_11  and  C_12
REMARK                            x       y       z     vdW  Elec       q    Type
REMARK                         _______ _______ _______ _____ _____    ______ ____
ROOT
ATOM      1  C   UNL     1       6.091   4.313  17.274  0.00  0.00    +0.000 C 
ENDROOT
BRANCH   1   2
ATOM      2  C   UNL     1       7.345   5.003  17.922  0.00  0.00    +0.000 C 
ATOM      3  F   UNL     1       7.138   5.302  19.226  0.00  0.00    +0.000 F 
ATOM      4  F   UNL     1       8.425   4.190  17.858  0.00  0.00    +0.000 F 
ATOM      5  F   UNL     1       7.677   6.164  17.315  0.00  0.00    +0.000 F 
ENDBRANCH   1   2
BRANCH   1   6
ATOM      6  N   UNL     1       4.909   4.096  18.178  0.00  0.00    +0.000 NA
ATOM      7  H   UNL     1       5.248   3.733  19.072  0.00  0.00    +0.000 HD
BRANCH   6   8
ATOM      8  C   UNL     1       3.949   3.130  17.615  0.00  0.00    +0.000 C 
BRANCH   8   9
ATOM      9  C   UNL     1       2.575   3.783  17.389  0.00  0.00    +0.000 C 
BRANCH   9  15
ATOM     10  C   UNL     1       1.797   7.805  20.780  0.00  0.00    +0.000 C 
ATOM     11  C   UNL     1       1.829   6.482  20.099  0.00  0.00    +0.000 A 
ATOM     12  N   UNL     1       1.478   5.347  20.662  0.00  0.00    +0.000 NA
ATOM     13  C   UNL     1       1.671   4.293  19.787  0.00  0.00    +0.000 A 
ATOM     14  C   UNL     1       1.343   2.921  20.256  0.00  0.00    +0.000 C 
ATOM     15  C   UNL     1       2.189   4.648  18.553  0.00  0.00    +0.000 A 
ATOM     16  S   UNL     1       2.375   6.356  18.478  0.00  0.00    +0.000 S 
ENDBRANCH   9  15
ENDBRANCH   8   9
ENDBRANCH   6   8
ENDBRANCH   1   6
BRANCH   1  17
ATOM     17  C   UNL     1       5.688   5.157  16.038  0.00  0.00    +0.000 C 
BRANCH  17  18
ATOM     18  C   UNL     1       6.204   4.712  14.691  0.00  0.00    +0.000 A 
ATOM     19  C   UNL     1       5.500   3.772  13.933  0.00  0.00    +0.000 A 
ATOM     20  C   UNL     1       5.945   3.476  12.653  0.00  0.00    +0.000 A 
ATOM     21  N   UNL     1       7.029   4.040  12.083  0.00  0.00    +0.000 NA
ATOM     22  C   UNL     1       7.707   4.934  12.835  0.00  0.00    +0.000 A 
ATOM     23  C   UNL     1       7.343   5.294  14.125  0.00  0.00    +0.000 A 
ENDBRANCH  17  18
ENDBRANCH   1  17
TORSDOF 7
ENDMDL
