MODEL 1
REMARK VINA RESULT:      -7.1      0.000      0.000
REMARK  Name = 
REMARK  3 active torsions:
REMARK  status: ('A' for Active; 'I' for Inactive)
REMARK    1  A    between atoms: C_1  and  N_2
REMARK    2  A    between atoms: N_2  and  C_3
REMARK    3  A    between atoms: N_2  and  C_4
REMARK                            x       y       z     vdW  Elec       q    Type
REMARK                         _______ _______ _______ _____ _____    ______ ____
ROOT
ATOM      1  C   UNL     1       5.446   3.972  14.903  0.00  0.00    +0.000 C 
ATOM      2  C   UNL     1       4.756   4.569  15.876  0.00  0.00    +0.000 C 
ATOM      3  O   UNL     1       3.912   3.780  16.668  0.00  0.00    +0.000 OA
ATOM      4  C   UNL     1       3.435   4.591  17.665  0.00  0.00    +0.000 A 
ATOM      5  C   UNL     1       3.811   5.917  17.513  0.00  0.00    +0.000 A 
ATOM      6  C   UNL     1       3.389   6.898  18.388  0.00  0.00    +0.000 A 
ATOM      7  C   UNL     1       2.597   6.494  19.475  0.00  0.00    +0.000 A 
ATOM      8  C   UNL     1       2.280   5.126  19.695  0.00  0.00    +0.000 A 
ATOM      9  C   UNL     1       1.582   4.690  20.833  0.00  0.00    +0.000 A 
ATOM     10  C   UNL     1       1.346   3.328  21.055  0.00  0.00    +0.000 A 
ATOM     11  C   UNL     1       1.776   2.380  20.133  0.00  0.00    +0.000 A 
ATOM     12  C   UNL     1       2.440   2.790  18.980  0.00  0.00    +0.000 A 
ATOM     13  C   UNL     1       2.705   4.152  18.760  0.00  0.00    +0.000 A 
ATOM     14  C   UNL     1       4.725   5.981  16.370  0.00  0.00    +0.000 C 
ATOM     15  O   UNL     1       5.303   6.973  15.976  0.00  0.00    +0.000 OA
ENDROOT
BRANCH   1  17
ATOM     16  C   UNL     1       6.525   3.729  12.703  0.00  0.00    +0.000 C 
ATOM     17  N   UNL     1       6.465   4.335  14.035  0.00  0.00    +0.000 N 
ATOM     18  C   UNL     1       7.701   4.953  14.515  0.00  0.00    +0.000 C 
ENDBRANCH   1  17
TORSDOF 1
ENDMDL
MODEL 2
REMARK VINA RESULT:      -7.1      3.802      5.871
REMARK  Name = 
REMARK  3 active torsions:
REMARK  status: ('A' for Active; 'I' for Inactive)
REMARK    1  A    between atoms: C_1  and  N_2
REMARK    2  A    between atoms: N_2  and  C_3
REMARK    3  A    between atoms: N_2  and  C_4
REMARK                            x       y       z     vdW  Elec       q    Type
REMARK                         _______ _______ _______ _____ _____    ______ ____
ROOT
ATOM      1  C   UNL     1       0.692   9.603  20.186  0.00  0.00    +0.000 C 
ATOM      2  C   UNL     1       1.470   8.646  19.678  0.00  0.00    +0.000 C 
ATOM      3  O   UNL     1       1.674   7.487  20.437  0.00  0.00    +0.000 OA
ATOM      4  C   UNL     1       2.381   6.618  19.646  0.00  0.00    +0.000 A 
ATOM      5  C   UNL     1       2.775   7.178  18.440  0.00  0.00    +0.000 A 
ATOM      6  C   UNL     1       3.539   6.479  17.528  0.00  0.00    +0.000 A 
ATOM      7  C   UNL     1       3.866   5.150  17.846  0.00  0.00    +0.000 A 
ATOM      8  C   UNL     1       3.391   4.533  19.035  0.00  0.00    +0.000 A 
ATOM      9  C   UNL     1       3.616   3.176  19.318  0.00  0.00    +0.000 A 
ATOM     10  C   UNL     1       3.076   2.581  20.465  0.00  0.00    +0.000 A 
ATOM     11  C   UNL     1       2.328   3.335  21.363  0.00  0.00    +0.000 A 
ATOM     12  C   UNL     1       2.121   4.690  21.121  0.00  0.00    +0.000 A 
ATOM     13  C   UNL     1       2.635   5.291  19.961  0.00  0.00    +0.000 A 
ATOM     14  C   UNL     1       2.175   8.512  18.365  0.00  0.00    +0.000 C 
ATOM     15  O   UNL     1       2.252   9.276  17.424  0.00  0.00    +0.000 OA
ENDROOT
BRANCH   1  17
ATOM     16  C   UNL     1      -1.036  10.719  18.833  0.00  0.00    +0.000 C 
ATOM     17  N   UNL     1       0.126  10.781  19.722  0.00  0.00    +0.000 N 
ATOM     18  C   UNL     1       0.866  12.043  19.724  0.00  0.00    +0.000 C 
ENDBRANCH   1  17
TORSDOF 1
ENDMDL
MODEL 3
REMARK VINA RESULT:      -7.0      1.720      2.171
REMARK  Name = 
REMARK  3 active torsions:
REMARK  status: ('A' for Active; 'I' for Inactive)
REMARK    1  A    between atoms: C_1  and  N_2
REMARK    2  A    between atoms: N_2  and  C_3
REMARK    3  A    between atoms: N_2  and  C_4
REMARK                            x       y       z     vdW  Elec       q    Type
REMARK                         _______ _______ _______ _____ _____    ______ ____
ROOT
ATOM      1  C   UNL     1       5.711   4.135  13.731  0.00  0.00    +0.000 C 
ATOM      2  C   UNL     1       5.601   4.343  15.044  0.00  0.00    +0.000 C 
ATOM      3  O   UNL     1       4.322   4.316  15.613  0.00  0.00    +0.000 OA
ATOM      4  C   UNL     1       4.492   4.415  16.970  0.00  0.00    +0.000 A 
ATOM      5  C   UNL     1       5.811   4.637  17.337  0.00  0.00    +0.000 A 
ATOM      6  C   UNL     1       6.179   4.815  18.656  0.00  0.00    +0.000 A 
ATOM      7  C   UNL     1       5.169   4.715  19.626  0.00  0.00    +0.000 A 
ATOM      8  C   UNL     1       3.829   4.396  19.272  0.00  0.00    +0.000 A 
ATOM      9  C   UNL     1       2.828   4.185  20.234  0.00  0.00    +0.000 A 
ATOM     10  C   UNL     1       1.535   3.804  19.857  0.00  0.00    +0.000 A 
ATOM     11  C   UNL     1       1.210   3.656  18.512  0.00  0.00    +0.000 A 
ATOM     12  C   UNL     1       2.176   3.894  17.539  0.00  0.00    +0.000 A 
ATOM     13  C   UNL     1       3.483   4.250  17.908  0.00  0.00    +0.000 A 
ATOM     14  C   UNL     1       6.619   4.562  16.118  0.00  0.00    +0.000 C 
ATOM     15  O   UNL     1       7.829   4.648  16.060  0.00  0.00    +0.000 OA
ENDROOT
BRANCH   1  17
ATOM     16  C   UNL     1       7.722   5.000  12.602  0.00  0.00    +0.000 C 
ATOM     17  N   UNL     1       6.751   3.928  12.837  0.00  0.00    +0.000 N 
ATOM     18  C   UNL     1       6.692   2.881  11.817  0.00  0.00    +0.000 C 
ENDBRANCH   1  17
TORSDOF 1
ENDMDL
MODEL 4
REMARK VINA RESULT:      -6.8      3.863      5.557
REMARK  Name = 
REMARK  3 active torsions:
REMARK  status: ('A' for Active; 'I' for Inactive)
REMARK    1  A    between atoms: C_1  and  N_2
REMARK    2  A    between atoms: N_2  and  C_3
REMARK    3  A    between atoms: N_2  and  C_4
REMARK                            x       y       z     vdW  Elec       q    Type
REMARK                         _______ _______ _______ _____ _____    ______ ____
ROOT
ATOM      1  C   UNL     1       3.337   5.283  19.746  0.00  0.00    +0.000 C 
ATOM      2  C   UNL     1       2.727   6.442  19.496  0.00  0.00    +0.000 C 
ATOM      3  O   UNL     1       1.845   6.948  20.459  0.00  0.00    +0.000 OA
ATOM      4  C   UNL     1       1.467   8.195  20.032  0.00  0.00    +0.000 A 
ATOM      5  C   UNL     1       1.947   8.505  18.767  0.00  0.00    +0.000 A 
ATOM      6  C   UNL     1       1.634   9.694  18.142  0.00  0.00    +0.000 A 
ATOM      7  C   UNL     1       0.844  10.609  18.856  0.00  0.00    +0.000 A 
ATOM      8  C   UNL     1       0.422  10.345  20.187  0.00  0.00    +0.000 A 
ATOM      9  C   UNL     1      -0.276  11.291  20.957  0.00  0.00    +0.000 A 
ATOM     10  C   UNL     1      -0.617  11.026  22.288  0.00  0.00    +0.000 A 
ATOM     11  C   UNL     1      -0.294   9.803  22.867  0.00  0.00    +0.000 A 
ATOM     12  C   UNL     1       0.366   8.837  22.114  0.00  0.00    +0.000 A 
ATOM     13  C   UNL     1       0.737   9.102  20.786  0.00  0.00    +0.000 A 
ATOM     14  C   UNL     1       2.828   7.409  18.358  0.00  0.00    +0.000 C 
ATOM     15  O   UNL     1       3.475   7.361  17.331  0.00  0.00    +0.000 OA
ENDROOT
BRANCH   1  17
ATOM     16  C   UNL     1       5.705   5.110  19.096  0.00  0.00    +0.000 C 
ATOM     17  N   UNL     1       4.355   4.544  19.164  0.00  0.00    +0.000 N 
ATOM     18  C   UNL     1       4.077   3.436  18.251  0.00  0.00    +0.000 C 
ENDBRANCH   1  17
TORSDOF 1
ENDMDL
MODEL 5
REMARK VINA RESULT:      -6.7      3.215      6.495
REMARK  Name = 
REMARK  3 active torsions:
REMARK  status: ('A' for Active; 'I' for Inactive)
REMARK    1  A    between atoms: C_1  and  N_2
REMARK    2  A    between atoms: N_2  and  C_3
REMARK    3  A    between atoms: N_2  and  C_4
REMARK                            x       y       z     vdW  Elec       q    Type
REMARK                         _______ _______ _______ _____ _____    ______ ____
ROOT
ATOM      1  C   UNL     1       1.705   8.072  20.221  0.00  0.00    +0.000 C 
ATOM      2  C   UNL     1       2.091   6.953  19.608  0.00  0.00    +0.000 C 
ATOM      3  O   UNL     1       2.895   7.067  18.466  0.00  0.00    +0.000 OA
ATOM      4  C   UNL     1       3.264   5.794  18.115  0.00  0.00    +0.000 A 
ATOM      5  C   UNL     1       2.647   4.818  18.884  0.00  0.00    +0.000 A 
ATOM      6  C   UNL     1       2.851   3.472  18.651  0.00  0.00    +0.000 A 
ATOM      7  C   UNL     1       3.751   3.124  17.631  0.00  0.00    +0.000 A 
ATOM      8  C   UNL     1       4.460   4.113  16.897  0.00  0.00    +0.000 A 
ATOM      9  C   UNL     1       5.443   3.784  15.948  0.00  0.00    +0.000 A 
ATOM     10  C   UNL     1       6.172   4.782  15.292  0.00  0.00    +0.000 A 
ATOM     11  C   UNL     1       5.915   6.125  15.548  0.00  0.00    +0.000 A 
ATOM     12  C   UNL     1       4.922   6.476  16.458  0.00  0.00    +0.000 A 
ATOM     13  C   UNL     1       4.203   5.483  17.142  0.00  0.00    +0.000 A 
ATOM     14  C   UNL     1       1.883   5.506  19.926  0.00  0.00    +0.000 C 
ATOM     15  O   UNL     1       1.260   4.972  20.822  0.00  0.00    +0.000 OA
ENDROOT
BRANCH   1  17
ATOM     16  C   UNL     1      -0.382   8.234  21.519  0.00  0.00    +0.000 C 
ATOM     17  N   UNL     1       1.071   8.390  21.412  0.00  0.00    +0.000 N 
ATOM     18  C   UNL     1       1.698   9.258  22.410  0.00  0.00    +0.000 C 
ENDBRANCH   1  17
TORSDOF 1
ENDMDL
MODEL 6
REMARK VINA RESULT:      -6.6      2.551      6.107
REMARK  Name = 
REMARK  3 active torsions:
REMARK  status: ('A' for Active; 'I' for Inactive)
REMARK    1  A    between atoms: C_1  and  N_2
REMARK    2  A    between atoms: N_2  and  C_3
REMARK    3  A    between atoms: N_2  and  C_4
REMARK                            x       y       z     vdW  Elec       q    Type
REMARK                         _______ _______ _______ _____ _____    ______ ____
ROOT
ATOM      1  C   UNL     1       2.879   2.806  18.921  0.00  0.00    +0.000 C 
ATOM      2  C   UNL     1       3.916   3.480  18.422  0.00  0.00    +0.000 C 
ATOM      3  O   UNL     1       4.362   3.151  17.136  0.00  0.00    +0.000 OA
ATOM      4  C   UNL     1       5.328   4.068  16.807  0.00  0.00    +0.000 A 
ATOM      5  C   UNL     1       5.648   4.919  17.854  0.00  0.00    +0.000 A 
ATOM      6  C   UNL     1       6.633   5.879  17.737  0.00  0.00    +0.000 A 
ATOM      7  C   UNL     1       7.273   5.996  16.493  0.00  0.00    +0.000 A 
ATOM      8  C   UNL     1       6.893   5.192  15.383  0.00  0.00    +0.000 A 
ATOM      9  C   UNL     1       7.445   5.368  14.104  0.00  0.00    +0.000 A 
ATOM     10  C   UNL     1       6.999   4.607  13.017  0.00  0.00    +0.000 A 
ATOM     11  C   UNL     1       6.016   3.638  13.192  0.00  0.00    +0.000 A 
ATOM     12  C   UNL     1       5.478   3.422  14.458  0.00  0.00    +0.000 A 
ATOM     13  C   UNL     1       5.899   4.199  15.550  0.00  0.00    +0.000 A 
ATOM     14  C   UNL     1       4.725   4.622  18.952  0.00  0.00    +0.000 C 
ATOM     15  O   UNL     1       4.667   5.211  20.013  0.00  0.00    +0.000 OA
ENDROOT
BRANCH   1  17
ATOM     16  C   UNL     1       0.803   3.663  19.930  0.00  0.00    +0.000 C 
ATOM     17  N   UNL     1       2.059   2.916  20.034  0.00  0.00    +0.000 N 
ATOM     18  C   UNL     1       2.566   2.698  21.388  0.00  0.00    +0.000 C 
ENDBRANCH   1  17
TORSDOF 1
ENDMDL
MODEL 7
REMARK VINA RESULT:      -6.6      3.639      6.305
REMARK  Name = 
REMARK  3 active torsions:
REMARK  status: ('A' for Active; 'I' for Inactive)
REMARK    1  A    between atoms: C_1  and  N_2
REMARK    2  A    between atoms: N_2  and  C_3
REMARK    3  A    between atoms: N_2  and  C_4
REMARK                            x       y       z     vdW  Elec       q    Type
REMARK                         _______ _______ _______ _____ _____    ______ ____
ROOT
ATOM      1  C   UNL     1       1.537   9.879  18.220  0.00  0.00    +0.000 C 
ATOM      2  C   UNL     1       2.036   8.662  18.440  0.00  0.00    +0.000 C 
ATOM      3  O   UNL     1       2.814   8.074  17.434  0.00  0.00    +0.000 OA
ATOM      4  C   UNL     1       3.313   6.908  17.954  0.00  0.00    +0.000 A 
ATOM      5  C   UNL     1       2.809   6.614  19.213  0.00  0.00    +0.000 A 
ATOM      6  C   UNL     1       3.153   5.456  19.882  0.00  0.00    +0.000 A 
ATOM      7  C   UNL     1       4.077   4.602  19.259  0.00  0.00    +0.000 A 
ATOM      8  C   UNL     1       4.671   4.934  18.011  0.00  0.00    +0.000 A 
ATOM      9  C   UNL     1       5.676   4.148  17.424  0.00  0.00    +0.000 A 
ATOM     10  C   UNL     1       6.291   4.539  16.229  0.00  0.00    +0.000 A 
ATOM     11  C   UNL     1       5.895   5.706  15.583  0.00  0.00    +0.000 A 
ATOM     12  C   UNL     1       4.877   6.484  16.128  0.00  0.00    +0.000 A 
ATOM     13  C   UNL     1       4.272   6.115  17.341  0.00  0.00    +0.000 A 
ATOM     14  C   UNL     1       1.984   7.751  19.626  0.00  0.00    +0.000 C 
ATOM     15  O   UNL     1       1.428   7.875  20.698  0.00  0.00    +0.000 OA
ENDROOT
BRANCH   1  17
ATOM     16  C   UNL     1      -0.510  10.618  19.372  0.00  0.00    +0.000 C 
ATOM     17  N   UNL     1       0.883  10.841  18.974  0.00  0.00    +0.000 N 
ATOM     18  C   UNL     1       1.353  12.225  19.033  0.00  0.00    +0.000 C 
ENDBRANCH   1  17
TORSDOF 1
ENDMDL
MODEL 8
REMARK VINA RESULT:      -6.5      3.232      5.182
REMARK  Name = 
REMARK  3 active torsions:
REMARK  status: ('A' for Active; 'I' for Inactive)
REMARK    1  A    between atoms: C_1  and  N_2
REMARK    2  A    between atoms: N_2  and  C_3
REMARK    3  A    between atoms: N_2  and  C_4
REMARK                            x       y       z     vdW  Elec       q    Type
REMARK                         _______ _______ _______ _____ _____    ______ ____
ROOT
ATOM      1  C   UNL     1       2.911   3.774  19.977  0.00  0.00    +0.000 C 
ATOM      2  C   UNL     1       2.637   4.992  19.507  0.00  0.00    +0.000 C 
ATOM      3  O   UNL     1       1.903   5.865  20.320  0.00  0.00    +0.000 OA
ATOM      4  C   UNL     1       1.878   7.075  19.677  0.00  0.00    +0.000 A 
ATOM      5  C   UNL     1       2.446   7.031  18.412  0.00  0.00    +0.000 A 
ATOM      6  C   UNL     1       2.471   8.137  17.587  0.00  0.00    +0.000 A 
ATOM      7  C   UNL     1       1.940   9.333  18.096  0.00  0.00    +0.000 A 
ATOM      8  C   UNL     1       1.439   9.417  19.423  0.00  0.00    +0.000 A 
ATOM      9  C   UNL     1       1.004  10.628  19.987  0.00  0.00    +0.000 A 
ATOM     10  C   UNL     1       0.581  10.691  21.320  0.00  0.00    +0.000 A 
ATOM     11  C   UNL     1       0.556   9.543  22.105  0.00  0.00    +0.000 A 
ATOM     12  C   UNL     1       0.950   8.325  21.558  0.00  0.00    +0.000 A 
ATOM     13  C   UNL     1       1.402   8.255  20.230  0.00  0.00    +0.000 A 
ATOM     14  C   UNL     1       3.011   5.691  18.238  0.00  0.00    +0.000 C 
ATOM     15  O   UNL     1       3.640   5.304  17.274  0.00  0.00    +0.000 OA
ENDROOT
BRANCH   1  17
ATOM     16  C   UNL     1       3.325   1.919  18.411  0.00  0.00    +0.000 C 
ATOM     17  N   UNL     1       3.708   2.709  19.584  0.00  0.00    +0.000 N 
ATOM     18  C   UNL     1       4.655   2.077  20.502  0.00  0.00    +0.000 C 
ENDBRANCH   1  17
TORSDOF 1
ENDMDL
MODEL 9
REMARK VINA RESULT:      -6.4      3.183      6.389
REMARK  Name = 
REMARK  3 active torsions:
REMARK  status: ('A' for Active; 'I' for Inactive)
REMARK    1  A    between atoms: C_1  and  N_2
REMARK    2  A    between atoms: N_2  and  C_3
REMARK    3  A    between atoms: N_2  and  C_4
REMARK                            x       y       z     vdW  Elec       q    Type
REMARK                         _______ _______ _______ _____ _____    ______ ____
ROOT
ATOM      1  C   UNL     1       1.735   8.624  19.440  0.00  0.00    +0.000 C 
ATOM      2  C   UNL     1       2.186   7.413  19.107  0.00  0.00    +0.000 C 
ATOM      3  O   UNL     1       2.974   7.294  17.955  0.00  0.00    +0.000 OA
ATOM      4  C   UNL     1       3.418   5.998  17.914  0.00  0.00    +0.000 A 
ATOM      5  C   UNL     1       2.867   5.203  18.907  0.00  0.00    +0.000 A 
ATOM      6  C   UNL     1       3.152   3.855  19.002  0.00  0.00    +0.000 A 
ATOM      7  C   UNL     1       4.064   3.323  18.077  0.00  0.00    +0.000 A 
ATOM      8  C   UNL     1       4.707   4.145  17.111  0.00  0.00    +0.000 A 
ATOM      9  C   UNL     1       5.702   3.654  16.250  0.00  0.00    +0.000 A 
ATOM     10  C   UNL     1       6.366   4.504  15.357  0.00  0.00    +0.000 A 
ATOM     11  C   UNL     1       6.028   5.852  15.288  0.00  0.00    +0.000 A 
ATOM     12  C   UNL     1       5.021   6.354  16.107  0.00  0.00    +0.000 A 
ATOM     13  C   UNL     1       4.368   5.516  17.025  0.00  0.00    +0.000 A 
ATOM     14  C   UNL     1       2.068   6.077  19.769  0.00  0.00    +0.000 C 
ATOM     15  O   UNL     1       1.485   5.740  20.779  0.00  0.00    +0.000 OA
ENDROOT
BRANCH   1  17
ATOM     16  C   UNL     1       1.548   8.850  21.885  0.00  0.00    +0.000 C 
ATOM     17  N   UNL     1       1.091   9.183  20.533  0.00  0.00    +0.000 N 
ATOM     18  C   UNL     1      -0.259   9.737  20.430  0.00  0.00    +0.000 C 
ENDBRANCH   1  17
TORSDOF 1
ENDMDL
