MODEL 1
REMARK VINA RESULT:      -8.7      0.000      0.000
REMARK  Name = 
REMARK  5 active torsions:
REMARK  status: ('A' for Active; 'I' for Inactive)
REMARK    1  A    between atoms: C_1  and  C_2
REMARK    2  A    between atoms: C_6  and  C_8
REMARK    3  A    between atoms: N_16  and  S_17
REMARK    4  A    between atoms: S_17  and  C_20
REMARK    5  A    between atoms: N_24  and  C_25
REMARK                            x       y       z     vdW  Elec       q    Type
REMARK                         _______ _______ _______ _____ _____    ______ ____
ROOT
ATOM      1  C   UNL     1       2.329   8.721  17.893  0.00  0.00    +0.000 A 
ATOM      2  C   UNL     1       1.334   7.758  18.060  0.00  0.00    +0.000 A 
ATOM      3  C   UNL     1       1.631   6.383  18.112  0.00  0.00    +0.000 A 
ATOM      4  C   UNL     1       2.962   5.972  17.920  0.00  0.00    +0.000 A 
ATOM      5  C   UNL     1       3.951   6.939  17.606  0.00  0.00    +0.000 A 
ATOM      6  C   UNL     1       3.627   8.305  17.579  0.00  0.00    +0.000 A 
ATOM      7  C   UNL     1       5.116   6.234  17.297  0.00  0.00    +0.000 A 
ATOM      8  C   UNL     1       4.876   4.911  17.485  0.00  0.00    +0.000 A 
ATOM      9  N   UNL     1       3.595   4.720  17.896  0.00  0.00    +0.000 N 
ATOM     10  C   UNL     1       5.999   4.101  17.022  0.00  0.00    +0.000 C 
ATOM     11  N   UNL     1       6.752   5.059  16.140  0.00  0.00    +0.000 NA
ATOM     12  C   UNL     1       6.440   6.446  16.676  0.00  0.00    +0.000 C 
ENDROOT
BRANCH   1  18
ATOM     13  C   UNL     1      -2.990  12.010  19.089  0.00  0.00    +0.000 C 
ATOM     14  C   UNL     1      -1.533  11.749  19.461  0.00  0.00    +0.000 C 
ATOM     15  C   UNL     1      -0.580  12.518  18.529  0.00  0.00    +0.000 C 
ATOM     16  C   UNL     1       0.886  12.172  18.799  0.00  0.00    +0.000 C 
ATOM     17  N   UNL     1       1.092  10.724  18.793  0.00  0.00    +0.000 N 
ATOM     18  C   UNL     1       2.096  10.195  17.973  0.00  0.00    +0.000 C 
ATOM     19  O   UNL     1       2.844  10.915  17.321  0.00  0.00    +0.000 OA
ATOM     20  C   UNL     1       0.257  10.017  19.765  0.00  0.00    +0.000 C 
ATOM     21  C   UNL     1      -1.215  10.244  19.427  0.00  0.00    +0.000 C 
ENDBRANCH   1  18
BRANCH  11  22
ATOM     22  C   UNL     1       6.441   4.952  14.688  0.00  0.00    +0.000 C 
ATOM     23  C   UNL     1       7.611   5.120  13.707  0.00  0.00    +0.000 C 
ATOM     24  C   UNL     1       7.132   4.556  12.378  0.00  0.00    +0.000 C 
ATOM     25  C   UNL     1       6.015   3.576  12.694  0.00  0.00    +0.000 C 
ATOM     26  C   UNL     1       5.715   3.693  14.180  0.00  0.00    +0.000 C 
ENDBRANCH  11  22
BRANCH   9  27
ATOM     27  S   UNL     1       2.885   3.182  18.142  0.00  0.00    +0.000 S 
ATOM     28  O   UNL     1       1.652   3.169  17.378  0.00  0.00    +0.000 OA
ATOM     29  O   UNL     1       3.950   2.235  17.869  0.00  0.00    +0.000 OA
BRANCH  27  30
ATOM     30  C   UNL     1       2.349   2.850  19.855  0.00  0.00    +0.000 C 
ATOM     31  C   UNL     1       2.425   4.012  20.808  0.00  0.00    +0.000 C 
ATOM     32  C   UNL     1       1.090   3.528  20.304  0.00  0.00    +0.000 C 
ENDBRANCH  27  30
ENDBRANCH   9  27
TORSDOF 4
ENDMDL
MODEL 2
REMARK VINA RESULT:      -8.3      1.317      1.566
REMARK  Name = 
REMARK  5 active torsions:
REMARK  status: ('A' for Active; 'I' for Inactive)
REMARK    1  A    between atoms: C_1  and  C_2
REMARK    2  A    between atoms: C_6  and  C_8
REMARK    3  A    between atoms: N_16  and  S_17
REMARK    4  A    between atoms: S_17  and  C_20
REMARK    5  A    between atoms: N_24  and  C_25
REMARK                            x       y       z     vdW  Elec       q    Type
REMARK                         _______ _______ _______ _____ _____    ______ ____
ROOT
ATOM      1  C   UNL     1       2.071   8.133  18.493  0.00  0.00    +0.000 A 
ATOM      2  C   UNL     1       1.380   6.987  18.887  0.00  0.00    +0.000 A 
ATOM      3  C   UNL     1       2.015   5.735  18.991  0.00  0.00    +0.000 A 
ATOM      4  C   UNL     1       3.366   5.630  18.618  0.00  0.00    +0.000 A 
ATOM      5  C   UNL     1       4.031   6.762  18.080  0.00  0.00    +0.000 A 
ATOM      6  C   UNL     1       3.376   8.002  18.006  0.00  0.00    +0.000 A 
ATOM      7  C   UNL     1       5.280   6.320  17.640  0.00  0.00    +0.000 A 
ATOM      8  C   UNL     1       5.406   5.007  17.960  0.00  0.00    +0.000 A 
ATOM      9  N   UNL     1       4.282   4.567  18.584  0.00  0.00    +0.000 N 
ATOM     10  C   UNL     1       6.621   4.438  17.384  0.00  0.00    +0.000 C 
ATOM     11  N   UNL     1       6.982   5.443  16.324  0.00  0.00    +0.000 NA
ATOM     12  C   UNL     1       6.411   6.769  16.801  0.00  0.00    +0.000 C 
ENDROOT
BRANCH   1  18
ATOM     13  C   UNL     1      -1.525  11.079  22.843  0.00  0.00    +0.000 C 
ATOM     14  C   UNL     1      -0.260  11.112  21.990  0.00  0.00    +0.000 C 
ATOM     15  C   UNL     1      -0.571  11.599  20.563  0.00  0.00    +0.000 C 
ATOM     16  C   UNL     1       0.656  11.519  19.651  0.00  0.00    +0.000 C 
ATOM     17  N   UNL     1       1.261  10.189  19.704  0.00  0.00    +0.000 N 
ATOM     18  C   UNL     1       1.492   9.511  18.502  0.00  0.00    +0.000 C 
ATOM     19  O   UNL     1       1.265  10.028  17.414  0.00  0.00    +0.000 OA
ATOM     20  C   UNL     1       1.655   9.786  21.055  0.00  0.00    +0.000 C 
ATOM     21  C   UNL     1       0.416   9.731  21.948  0.00  0.00    +0.000 C 
ENDBRANCH   1  18
BRANCH  11  22
ATOM     22  C   UNL     1       6.510   5.107  14.953  0.00  0.00    +0.000 C 
ATOM     23  C   UNL     1       7.539   5.201  13.816  0.00  0.00    +0.000 C 
ATOM     24  C   UNL     1       6.951   4.421  12.650  0.00  0.00    +0.000 C 
ATOM     25  C   UNL     1       5.959   3.432  13.237  0.00  0.00    +0.000 C 
ATOM     26  C   UNL     1       5.829   3.747  14.720  0.00  0.00    +0.000 C 
ENDBRANCH  11  22
BRANCH   9  27
ATOM     27  S   UNL     1       4.018   2.941  19.053  0.00  0.00    +0.000 S 
ATOM     28  O   UNL     1       3.734   2.203  17.838  0.00  0.00    +0.000 OA
ATOM     29  O   UNL     1       5.157   2.608  19.888  0.00  0.00    +0.000 OA
BRANCH  27  30
ATOM     30  C   UNL     1       2.542   2.673  20.092  0.00  0.00    +0.000 C 
ATOM     31  C   UNL     1       2.798   2.172  21.487  0.00  0.00    +0.000 C 
ATOM     32  C   UNL     1       2.369   3.599  21.258  0.00  0.00    +0.000 C 
ENDBRANCH  27  30
ENDBRANCH   9  27
TORSDOF 4
ENDMDL
MODEL 3
REMARK VINA RESULT:      -8.2      1.722      2.058
REMARK  Name = 
REMARK  5 active torsions:
REMARK  status: ('A' for Active; 'I' for Inactive)
REMARK    1  A    between atoms: C_1  and  C_2
REMARK    2  A    between atoms: C_6  and  C_8
REMARK    3  A    between atoms: N_16  and  S_17
REMARK    4  A    between atoms: S_17  and  C_20
REMARK    5  A    between atoms: N_24  and  C_25
REMARK                            x       y       z     vdW  Elec       q    Type
REMARK                         _______ _______ _______ _____ _____    ______ ____
ROOT
ATOM      1  C   UNL     1       1.852   8.150  18.889  0.00  0.00    +0.000 A 
ATOM      2  C   UNL     1       1.206   7.007  19.359  0.00  0.00    +0.000 A 
ATOM      3  C   UNL     1       1.881   5.779  19.508  0.00  0.00    +0.000 A 
ATOM      4  C   UNL     1       3.225   5.695  19.104  0.00  0.00    +0.000 A 
ATOM      5  C   UNL     1       3.841   6.816  18.492  0.00  0.00    +0.000 A 
ATOM      6  C   UNL     1       3.148   8.031  18.374  0.00  0.00    +0.000 A 
ATOM      7  C   UNL     1       5.091   6.388  18.041  0.00  0.00    +0.000 A 
ATOM      8  C   UNL     1       5.265   5.097  18.423  0.00  0.00    +0.000 A 
ATOM      9  N   UNL     1       4.171   4.657  19.099  0.00  0.00    +0.000 N 
ATOM     10  C   UNL     1       6.480   4.534  17.843  0.00  0.00    +0.000 C 
ATOM     11  N   UNL     1       6.784   5.494  16.725  0.00  0.00    +0.000 NA
ATOM     12  C   UNL     1       6.186   6.825  17.150  0.00  0.00    +0.000 C 
ENDROOT
BRANCH   1  18
ATOM     13  C   UNL     1      -1.757  11.191  23.162  0.00  0.00    +0.000 C 
ATOM     14  C   UNL     1      -0.508  11.221  22.285  0.00  0.00    +0.000 C 
ATOM     15  C   UNL     1      -0.857  11.631  20.843  0.00  0.00    +0.000 C 
ATOM     16  C   UNL     1       0.356  11.544  19.914  0.00  0.00    +0.000 C 
ATOM     17  N   UNL     1       1.002  10.236  20.018  0.00  0.00    +0.000 N 
ATOM     18  C   UNL     1       1.233   9.509  18.844  0.00  0.00    +0.000 C 
ATOM     19  O   UNL     1       0.972   9.968  17.738  0.00  0.00    +0.000 OA
ATOM     20  C   UNL     1       1.430   9.908  21.379  0.00  0.00    +0.000 C 
ATOM     21  C   UNL     1       0.208   9.859  22.295  0.00  0.00    +0.000 C 
ENDBRANCH   1  18
BRANCH  11  22
ATOM     22  C   UNL     1       6.287   5.075  15.385  0.00  0.00    +0.000 C 
ATOM     23  C   UNL     1       7.272   5.175  14.211  0.00  0.00    +0.000 C 
ATOM     24  C   UNL     1       6.690   4.316  13.098  0.00  0.00    +0.000 C 
ATOM     25  C   UNL     1       5.774   3.301  13.760  0.00  0.00    +0.000 C 
ATOM     26  C   UNL     1       5.675   3.671  15.232  0.00  0.00    +0.000 C 
ENDBRANCH  11  22
BRANCH   9  27
ATOM     27  S   UNL     1       3.968   3.051  19.656  0.00  0.00    +0.000 S 
ATOM     28  O   UNL     1       5.293   2.464  19.713  0.00  0.00    +0.000 OA
ATOM     29  O   UNL     1       3.148   3.174  20.847  0.00  0.00    +0.000 OA
BRANCH  27  30
ATOM     30  C   UNL     1       3.045   1.957  18.524  0.00  0.00    +0.000 C 
ATOM     31  C   UNL     1       1.564   2.202  18.430  0.00  0.00    +0.000 C 
ATOM     32  C   UNL     1       2.473   2.598  17.295  0.00  0.00    +0.000 C 
ENDBRANCH  27  30
ENDBRANCH   9  27
TORSDOF 4
ENDMDL
MODEL 4
REMARK VINA RESULT:      -8.0      3.836      9.302
REMARK  Name = 
REMARK  5 active torsions:
REMARK  status: ('A' for Active; 'I' for Inactive)
REMARK    1  A    between atoms: C_1  and  C_2
REMARK    2  A    between atoms: C_6  and  C_8
REMARK    3  A    between atoms: N_16  and  S_17
REMARK    4  A    between atoms: S_17  and  C_20
REMARK    5  A    between atoms: N_24  and  C_25
REMARK                            x       y       z     vdW  Elec       q    Type
REMARK                         _______ _______ _______ _____ _____    ______ ____
ROOT
ATOM      1  C   UNL     1       1.791   8.200  19.581  0.00  0.00    +0.000 A 
ATOM      2  C   UNL     1       1.561   8.144  20.956  0.00  0.00    +0.000 A 
ATOM      3  C   UNL     1       0.760   9.096  21.615  0.00  0.00    +0.000 A 
ATOM      4  C   UNL     1       0.237  10.169  20.872  0.00  0.00    +0.000 A 
ATOM      5  C   UNL     1       0.588  10.306  19.505  0.00  0.00    +0.000 A 
ATOM      6  C   UNL     1       1.374   9.331  18.871  0.00  0.00    +0.000 A 
ATOM      7  C   UNL     1       0.080  11.536  19.083  0.00  0.00    +0.000 A 
ATOM      8  C   UNL     1      -0.611  12.089  20.113  0.00  0.00    +0.000 A 
ATOM      9  N   UNL     1      -0.567  11.272  21.198  0.00  0.00    +0.000 N 
ATOM     10  C   UNL     1      -1.031  13.451  19.796  0.00  0.00    +0.000 C 
ATOM     11  N   UNL     1      -0.142  13.806  18.636  0.00  0.00    +0.000 NA
ATOM     12  C   UNL     1       0.198  12.488  17.959  0.00  0.00    +0.000 C 
ENDROOT
BRANCH   1  18
ATOM     13  C   UNL     1       3.451   2.272  21.209  0.00  0.00    +0.000 C 
ATOM     14  C   UNL     1       2.728   3.173  20.211  0.00  0.00    +0.000 C 
ATOM     15  C   UNL     1       3.719   3.792  19.209  0.00  0.00    +0.000 C 
ATOM     16  C   UNL     1       3.038   4.800  18.279  0.00  0.00    +0.000 C 
ATOM     17  N   UNL     1       2.275   5.786  19.044  0.00  0.00    +0.000 N 
ATOM     18  C   UNL     1       2.509   7.144  18.803  0.00  0.00    +0.000 C 
ATOM     19  O   UNL     1       3.279   7.523  17.928  0.00  0.00    +0.000 OA
ATOM     20  C   UNL     1       1.259   5.186  19.910  0.00  0.00    +0.000 C 
ATOM     21  C   UNL     1       1.938   4.278  20.934  0.00  0.00    +0.000 C 
ENDBRANCH   1  18
BRANCH  11  22
ATOM     22  C   UNL     1       1.085  14.568  18.996  0.00  0.00    +0.000 C 
ATOM     23  C   UNL     1       2.389  14.166  18.290  0.00  0.00    +0.000 C 
ATOM     24  C   UNL     1       3.353  15.326  18.494  0.00  0.00    +0.000 C 
ATOM     25  C   UNL     1       2.506  16.561  18.752  0.00  0.00    +0.000 C 
ATOM     26  C   UNL     1       1.062  16.102  18.878  0.00  0.00    +0.000 C 
ENDBRANCH  11  22
BRANCH   9  27
ATOM     27  S   UNL     1      -1.236  11.666  22.724  0.00  0.00    +0.000 S 
ATOM     28  O   UNL     1      -1.366  10.418  23.452  0.00  0.00    +0.000 OA
ATOM     29  O   UNL     1      -0.407  12.746  23.224  0.00  0.00    +0.000 OA
BRANCH  27  30
ATOM     30  C   UNL     1      -2.937  12.327  22.668  0.00  0.00    +0.000 C 
ATOM     31  C   UNL     1      -3.657  12.411  23.987  0.00  0.00    +0.000 C 
ATOM     32  C   UNL     1      -3.156  13.662  23.313  0.00  0.00    +0.000 C 
ENDBRANCH  27  30
ENDBRANCH   9  27
TORSDOF 4
ENDMDL
MODEL 5
REMARK VINA RESULT:      -7.9      0.971      1.357
REMARK  Name = 
REMARK  5 active torsions:
REMARK  status: ('A' for Active; 'I' for Inactive)
REMARK    1  A    between atoms: C_1  and  C_2
REMARK    2  A    between atoms: C_6  and  C_8
REMARK    3  A    between atoms: N_16  and  S_17
REMARK    4  A    between atoms: S_17  and  C_20
REMARK    5  A    between atoms: N_24  and  C_25
REMARK                            x       y       z     vdW  Elec       q    Type
REMARK                         _______ _______ _______ _____ _____    ______ ____
ROOT
ATOM      1  C   UNL     1       2.223   8.505  17.992  0.00  0.00    +0.000 A 
ATOM      2  C   UNL     1       1.163   7.628  17.759  0.00  0.00    +0.000 A 
ATOM      3  C   UNL     1       1.300   6.236  17.922  0.00  0.00    +0.000 A 
ATOM      4  C   UNL     1       2.561   5.718  18.263  0.00  0.00    +0.000 A 
ATOM      5  C   UNL     1       3.673   6.593  18.359  0.00  0.00    +0.000 A 
ATOM      6  C   UNL     1       3.501   7.979  18.208  0.00  0.00    +0.000 A 
ATOM      7  C   UNL     1       4.802   5.790  18.527  0.00  0.00    +0.000 A 
ATOM      8  C   UNL     1       4.397   4.496  18.607  0.00  0.00    +0.000 A 
ATOM      9  N   UNL     1       3.046   4.419  18.487  0.00  0.00    +0.000 N 
ATOM     10  C   UNL     1       5.540   3.587  18.618  0.00  0.00    +0.000 C 
ATOM     11  N   UNL     1       6.654   4.454  18.098  0.00  0.00    +0.000 NA
ATOM     12  C   UNL     1       6.276   5.878  18.471  0.00  0.00    +0.000 C 
ENDROOT
BRANCH   1  18
ATOM     13  C   UNL     1      -2.614  12.282  19.687  0.00  0.00    +0.000 C 
ATOM     14  C   UNL     1      -1.137  11.937  19.855  0.00  0.00    +0.000 C 
ATOM     15  C   UNL     1      -0.295  12.556  18.725  0.00  0.00    +0.000 C 
ATOM     16  C   UNL     1       1.170  12.118  18.798  0.00  0.00    +0.000 C 
ATOM     17  N   UNL     1       1.278  10.662  18.888  0.00  0.00    +0.000 N 
ATOM     18  C   UNL     1       2.103   9.995  17.976  0.00  0.00    +0.000 C 
ATOM     19  O   UNL     1       2.783  10.601  17.156  0.00  0.00    +0.000 OA
ATOM     20  C   UNL     1       0.563  10.100  20.035  0.00  0.00    +0.000 C 
ATOM     21  C   UNL     1      -0.927  10.414  19.907  0.00  0.00    +0.000 C 
ENDBRANCH   1  18
BRANCH  11  22
ATOM     22  C   UNL     1       6.922   4.324  16.640  0.00  0.00    +0.000 C 
ATOM     23  C   UNL     1       5.892   3.546  15.806  0.00  0.00    +0.000 C 
ATOM     24  C   UNL     1       6.157   3.918  14.355  0.00  0.00    +0.000 C 
ATOM     25  C   UNL     1       6.860   5.265  14.368  0.00  0.00    +0.000 C 
ATOM     26  C   UNL     1       7.168   5.602  15.818  0.00  0.00    +0.000 C 
ENDBRANCH  11  22
BRANCH   9  27
ATOM     27  S   UNL     1       2.169   2.950  18.438  0.00  0.00    +0.000 S 
ATOM     28  O   UNL     1       0.865   3.267  17.887  0.00  0.00    +0.000 OA
ATOM     29  O   UNL     1       3.057   2.011  17.779  0.00  0.00    +0.000 OA
BRANCH  27  30
ATOM     30  C   UNL     1       1.797   2.224  20.071  0.00  0.00    +0.000 C 
ATOM     31  C   UNL     1       2.620   2.732  21.223  0.00  0.00    +0.000 C 
ATOM     32  C   UNL     1       1.175   3.139  21.082  0.00  0.00    +0.000 C 
ENDBRANCH  27  30
ENDBRANCH   9  27
TORSDOF 4
ENDMDL
MODEL 6
REMARK VINA RESULT:      -7.8      2.026      4.934
REMARK  Name = 
REMARK  5 active torsions:
REMARK  status: ('A' for Active; 'I' for Inactive)
REMARK    1  A    between atoms: C_1  and  C_2
REMARK    2  A    between atoms: C_6  and  C_8
REMARK    3  A    between atoms: N_16  and  S_17
REMARK    4  A    between atoms: S_17  and  C_20
REMARK    5  A    between atoms: N_24  and  C_25
REMARK                            x       y       z     vdW  Elec       q    Type
REMARK                         _______ _______ _______ _____ _____    ______ ____
ROOT
ATOM      1  C   UNL     1       1.598   8.524  18.075  0.00  0.00    +0.000 A 
ATOM      2  C   UNL     1       2.962   8.790  18.191  0.00  0.00    +0.000 A 
ATOM      3  C   UNL     1       3.936   7.799  17.958  0.00  0.00    +0.000 A 
ATOM      4  C   UNL     1       3.511   6.491  17.668  0.00  0.00    +0.000 A 
ATOM      5  C   UNL     1       2.126   6.186  17.690  0.00  0.00    +0.000 A 
ATOM      6  C   UNL     1       1.179   7.199  17.908  0.00  0.00    +0.000 A 
ATOM      7  C   UNL     1       2.019   4.801  17.547  0.00  0.00    +0.000 A 
ATOM      8  C   UNL     1       3.265   4.293  17.369  0.00  0.00    +0.000 A 
ATOM      9  N   UNL     1       4.187   5.290  17.401  0.00  0.00    +0.000 N 
ATOM     10  C   UNL     1       3.245   2.833  17.378  0.00  0.00    +0.000 C 
ATOM     11  N   UNL     1       1.916   2.528  18.014  0.00  0.00    +0.000 NA
ATOM     12  C   UNL     1       1.025   3.719  17.700  0.00  0.00    +0.000 C 
ENDROOT
BRANCH   1  18
ATOM     13  C   UNL     1      -1.329  11.004  23.156  0.00  0.00    +0.000 C 
ATOM     14  C   UNL     1      -0.539  11.266  21.877  0.00  0.00    +0.000 C 
ATOM     15  C   UNL     1      -1.459  11.233  20.643  0.00  0.00    +0.000 C 
ATOM     16  C   UNL     1      -0.671  11.364  19.338  0.00  0.00    +0.000 C 
ATOM     17  N   UNL     1       0.423  10.394  19.287  0.00  0.00    +0.000 N 
ATOM     18  C   UNL     1       0.526   9.561  18.167  0.00  0.00    +0.000 C 
ATOM     19  O   UNL     1      -0.229   9.671  17.208  0.00  0.00    +0.000 OA
ATOM     20  C   UNL     1       1.354  10.513  20.410  0.00  0.00    +0.000 C 
ATOM     21  C   UNL     1       0.607  10.251  21.716  0.00  0.00    +0.000 C 
ENDBRANCH   1  18
BRANCH  11  22
ATOM     22  C   UNL     1       1.969   2.256  19.477  0.00  0.00    +0.000 C 
ATOM     23  C   UNL     1       3.313   2.486  20.183  0.00  0.00    +0.000 C 
ATOM     24  C   UNL     1       3.001   2.559  21.671  0.00  0.00    +0.000 C 
ATOM     25  C   UNL     1       1.542   2.963  21.795  0.00  0.00    +0.000 C 
ATOM     26  C   UNL     1       0.949   2.954  20.394  0.00  0.00    +0.000 C 
ENDBRANCH  11  22
BRANCH   9  27
ATOM     27  S   UNL     1       5.878   5.037  17.312  0.00  0.00    +0.000 S 
ATOM     28  O   UNL     1       6.479   6.340  17.101  0.00  0.00    +0.000 OA
ATOM     29  O   UNL     1       6.195   4.242  18.483  0.00  0.00    +0.000 OA
BRANCH  27  30
ATOM     30  C   UNL     1       6.433   4.055  15.877  0.00  0.00    +0.000 C 
ATOM     31  C   UNL     1       5.634   4.223  14.613  0.00  0.00    +0.000 C 
ATOM     32  C   UNL     1       7.013   4.822  14.727  0.00  0.00    +0.000 C 
ENDBRANCH  27  30
ENDBRANCH   9  27
TORSDOF 4
ENDMDL
MODEL 7
REMARK VINA RESULT:      -7.7      1.261      1.471
REMARK  Name = 
REMARK  5 active torsions:
REMARK  status: ('A' for Active; 'I' for Inactive)
REMARK    1  A    between atoms: C_1  and  C_2
REMARK    2  A    between atoms: C_6  and  C_8
REMARK    3  A    between atoms: N_16  and  S_17
REMARK    4  A    between atoms: S_17  and  C_20
REMARK    5  A    between atoms: N_24  and  C_25
REMARK                            x       y       z     vdW  Elec       q    Type
REMARK                         _______ _______ _______ _____ _____    ______ ____
ROOT
ATOM      1  C   UNL     1       2.452   8.889  18.190  0.00  0.00    +0.000 A 
ATOM      2  C   UNL     1       1.689   7.858  18.738  0.00  0.00    +0.000 A 
ATOM      3  C   UNL     1       2.229   6.579  18.974  0.00  0.00    +0.000 A 
ATOM      4  C   UNL     1       3.553   6.322  18.580  0.00  0.00    +0.000 A 
ATOM      5  C   UNL     1       4.283   7.324  17.892  0.00  0.00    +0.000 A 
ATOM      6  C   UNL     1       3.724   8.596  17.687  0.00  0.00    +0.000 A 
ATOM      7  C   UNL     1       5.477   6.734  17.473  0.00  0.00    +0.000 A 
ATOM      8  C   UNL     1       5.512   5.462  17.945  0.00  0.00    +0.000 A 
ATOM      9  N   UNL     1       4.382   5.191  18.648  0.00  0.00    +0.000 N 
ATOM     10  C   UNL     1       6.657   4.732  17.408  0.00  0.00    +0.000 C 
ATOM     11  N   UNL     1       7.056   5.573  16.226  0.00  0.00    +0.000 NA
ATOM     12  C   UNL     1       6.607   6.987  16.556  0.00  0.00    +0.000 C 
ENDROOT
BRANCH   1  18
ATOM     13  C   UNL     1      -3.427  11.329  18.351  0.00  0.00    +0.000 C 
ATOM     14  C   UNL     1      -2.009  11.364  18.912  0.00  0.00    +0.000 C 
ATOM     15  C   UNL     1      -1.075  12.177  17.998  0.00  0.00    +0.000 C 
ATOM     16  C   UNL     1       0.380  12.121  18.470  0.00  0.00    +0.000 C 
ATOM     17  N   UNL     1       0.810  10.738  18.677  0.00  0.00    +0.000 N 
ATOM     18  C   UNL     1       1.982  10.302  18.050  0.00  0.00    +0.000 C 
ATOM     19  O   UNL     1       2.686  11.061  17.394  0.00  0.00    +0.000 OA
ATOM     20  C   UNL     1      -0.023  10.011  19.636  0.00  0.00    +0.000 C 
ATOM     21  C   UNL     1      -1.456   9.943  19.112  0.00  0.00    +0.000 C 
ENDBRANCH   1  18
BRANCH  11  22
ATOM     22  C   UNL     1       6.509   5.118  14.918  0.00  0.00    +0.000 C 
ATOM     23  C   UNL     1       7.471   5.111  13.721  0.00  0.00    +0.000 C 
ATOM     24  C   UNL     1       6.822   4.232  12.663  0.00  0.00    +0.000 C 
ATOM     25  C   UNL     1       5.870   3.298  13.391  0.00  0.00    +0.000 C 
ATOM     26  C   UNL     1       5.823   3.742  14.845  0.00  0.00    +0.000 C 
ENDBRANCH  11  22
BRANCH   9  27
ATOM     27  S   UNL     1       4.011   3.659  19.316  0.00  0.00    +0.000 S 
ATOM     28  O   UNL     1       5.279   3.011  19.593  0.00  0.00    +0.000 OA
ATOM     29  O   UNL     1       3.061   3.938  20.377  0.00  0.00    +0.000 OA
BRANCH  27  30
ATOM     30  C   UNL     1       3.164   2.510  18.178  0.00  0.00    +0.000 C 
ATOM     31  C   UNL     1       1.661   2.561  18.185  0.00  0.00    +0.000 C 
ATOM     32  C   UNL     1       2.435   3.131  17.025  0.00  0.00    +0.000 C 
ENDBRANCH  27  30
ENDBRANCH   9  27
TORSDOF 4
ENDMDL
MODEL 8
REMARK VINA RESULT:      -7.6      3.193     10.232
REMARK  Name = 
REMARK  5 active torsions:
REMARK  status: ('A' for Active; 'I' for Inactive)
REMARK    1  A    between atoms: C_1  and  C_2
REMARK    2  A    between atoms: C_6  and  C_8
REMARK    3  A    between atoms: N_16  and  S_17
REMARK    4  A    between atoms: S_17  and  C_20
REMARK    5  A    between atoms: N_24  and  C_25
REMARK                            x       y       z     vdW  Elec       q    Type
REMARK                         _______ _______ _______ _____ _____    ______ ____
ROOT
ATOM      1  C   UNL     1       1.651   8.115  19.733  0.00  0.00    +0.000 A 
ATOM      2  C   UNL     1       1.852   8.781  18.524  0.00  0.00    +0.000 A 
ATOM      3  C   UNL     1       1.647  10.168  18.397  0.00  0.00    +0.000 A 
ATOM      4  C   UNL     1       1.159  10.883  19.504  0.00  0.00    +0.000 A 
ATOM      5  C   UNL     1       0.817  10.184  20.689  0.00  0.00    +0.000 A 
ATOM      6  C   UNL     1       1.050   8.803  20.792  0.00  0.00    +0.000 A 
ATOM      7  C   UNL     1       0.201  11.109  21.535  0.00  0.00    +0.000 A 
ATOM      8  C   UNL     1       0.234  12.326  20.934  0.00  0.00    +0.000 A 
ATOM      9  N   UNL     1       0.837  12.233  19.720  0.00  0.00    +0.000 N 
ATOM     10  C   UNL     1      -0.538  13.308  21.689  0.00  0.00    +0.000 C 
ATOM     11  N   UNL     1      -1.393  12.442  22.575  0.00  0.00    +0.000 NA
ATOM     12  C   UNL     1      -0.611  11.153  22.769  0.00  0.00    +0.000 C 
ENDROOT
BRANCH   1  18
ATOM     13  C   UNL     1       4.764   3.939  16.072  0.00  0.00    +0.000 C 
ATOM     14  C   UNL     1       4.658   4.622  17.433  0.00  0.00    +0.000 C 
ATOM     15  C   UNL     1       3.598   3.935  18.312  0.00  0.00    +0.000 C 
ATOM     16  C   UNL     1       3.381   4.679  19.632  0.00  0.00    +0.000 C 
ATOM     17  N   UNL     1       3.126   6.100  19.397  0.00  0.00    +0.000 N 
ATOM     18  C   UNL     1       1.988   6.678  19.970  0.00  0.00    +0.000 C 
ATOM     19  O   UNL     1       1.245   6.046  20.713  0.00  0.00    +0.000 OA
ATOM     20  C   UNL     1       4.198   6.765  18.655  0.00  0.00    +0.000 C 
ATOM     21  C   UNL     1       4.337   6.118  17.278  0.00  0.00    +0.000 C 
ENDBRANCH   1  18
BRANCH  11  22
ATOM     22  C   UNL     1      -2.764  12.176  22.059  0.00  0.00    +0.000 C 
ATOM     23  C   UNL     1      -3.940  12.695  22.900  0.00  0.00    +0.000 C 
ATOM     24  C   UNL     1      -5.152  12.684  21.981  0.00  0.00    +0.000 C 
ATOM     25  C   UNL     1      -4.626  12.751  20.558  0.00  0.00    +0.000 C 
ATOM     26  C   UNL     1      -3.112  12.621  20.627  0.00  0.00    +0.000 C 
ENDBRANCH  11  22
BRANCH   9  27
ATOM     27  S   UNL     1       0.980  13.534  18.617  0.00  0.00    +0.000 S 
ATOM     28  O   UNL     1       2.195  13.300  17.858  0.00  0.00    +0.000 OA
ATOM     29  O   UNL     1      -0.313  13.608  17.963  0.00  0.00    +0.000 OA
BRANCH  27  30
ATOM     30  C   UNL     1       1.245  15.167  19.387  0.00  0.00    +0.000 C 
ATOM     31  C   UNL     1       1.594  16.291  18.450  0.00  0.00    +0.000 C 
ATOM     32  C   UNL     1       0.227  16.223  19.080  0.00  0.00    +0.000 C 
ENDBRANCH  27  30
ENDBRANCH   9  27
TORSDOF 4
ENDMDL
MODEL 9
REMARK VINA RESULT:      -7.5      2.534      4.746
REMARK  Name = 
REMARK  5 active torsions:
REMARK  status: ('A' for Active; 'I' for Inactive)
REMARK    1  A    between atoms: C_1  and  C_2
REMARK    2  A    between atoms: C_6  and  C_8
REMARK    3  A    between atoms: N_16  and  S_17
REMARK    4  A    between atoms: S_17  and  C_20
REMARK    5  A    between atoms: N_24  and  C_25
REMARK                            x       y       z     vdW  Elec       q    Type
REMARK                         _______ _______ _______ _____ _____    ______ ____
ROOT
ATOM      1  C   UNL     1       1.939   8.437  18.069  0.00  0.00    +0.000 A 
ATOM      2  C   UNL     1       3.317   8.611  17.941  0.00  0.00    +0.000 A 
ATOM      3  C   UNL     1       4.167   7.555  17.555  0.00  0.00    +0.000 A 
ATOM      4  C   UNL     1       3.612   6.279  17.363  0.00  0.00    +0.000 A 
ATOM      5  C   UNL     1       2.236   6.068  17.633  0.00  0.00    +0.000 A 
ATOM      6  C   UNL     1       1.411   7.144  17.999  0.00  0.00    +0.000 A 
ATOM      7  C   UNL     1       2.013   4.694  17.531  0.00  0.00    +0.000 A 
ATOM      8  C   UNL     1       3.172   4.101  17.145  0.00  0.00    +0.000 A 
ATOM      9  N   UNL     1       4.150   5.034  16.999  0.00  0.00    +0.000 N 
ATOM     10  C   UNL     1       3.057   2.646  17.178  0.00  0.00    +0.000 C 
ATOM     11  N   UNL     1       1.844   2.434  18.042  0.00  0.00    +0.000 NA
ATOM     12  C   UNL     1       0.993   3.681  17.872  0.00  0.00    +0.000 C 
ENDROOT
BRANCH   1  18
ATOM     13  C   UNL     1      -1.031  10.145  23.436  0.00  0.00    +0.000 C 
ATOM     14  C   UNL     1      -0.142  10.571  22.271  0.00  0.00    +0.000 C 
ATOM     15  C   UNL     1      -0.985  10.889  21.023  0.00  0.00    +0.000 C 
ATOM     16  C   UNL     1      -0.110  11.194  19.804  0.00  0.00    +0.000 C 
ATOM     17  N   UNL     1       0.884  10.142  19.596  0.00  0.00    +0.000 N 
ATOM     18  C   UNL     1       0.972   9.546  18.333  0.00  0.00    +0.000 C 
ATOM     19  O   UNL     1       0.290   9.928  17.389  0.00  0.00    +0.000 OA
ATOM     20  C   UNL     1       1.752   9.929  20.755  0.00  0.00    +0.000 C 
ATOM     21  C   UNL     1       0.905   9.492  21.949  0.00  0.00    +0.000 C 
ENDBRANCH   1  18
BRANCH  11  22
ATOM     22  C   UNL     1       2.135   2.163  19.477  0.00  0.00    +0.000 C 
ATOM     23  C   UNL     1       3.569   2.423  19.961  0.00  0.00    +0.000 C 
ATOM     24  C   UNL     1       3.497   2.489  21.479  0.00  0.00    +0.000 C 
ATOM     25  C   UNL     1       2.067   2.860  21.835  0.00  0.00    +0.000 C 
ATOM     26  C   UNL     1       1.259   2.838  20.548  0.00  0.00    +0.000 C 
ENDBRANCH  11  22
BRANCH   9  27
ATOM     27  S   UNL     1       5.778   4.667  16.619  0.00  0.00    +0.000 S 
ATOM     28  O   UNL     1       5.793   3.293  16.153  0.00  0.00    +0.000 OA
ATOM     29  O   UNL     1       6.213   5.756  15.765  0.00  0.00    +0.000 OA
BRANCH  27  30
ATOM     30  C   UNL     1       6.917   4.664  18.045  0.00  0.00    +0.000 C 
ATOM     31  C   UNL     1       7.457   6.006  18.462  0.00  0.00    +0.000 C 
ATOM     32  C   UNL     1       6.415   5.311  19.301  0.00  0.00    +0.000 C 
ENDBRANCH  27  30
ENDBRANCH   9  27
TORSDOF 4
ENDMDL
