MODEL 1
REMARK VINA RESULT:      -7.7      0.000      0.000
REMARK  Name = 
REMARK  12 active torsions:
REMARK  status: ('A' for Active; 'I' for Inactive)
REMARK    1  A    between atoms: C_2  and  C_26
REMARK    2  A    between atoms: N_3  and  S_4
REMARK    3  A    between atoms: S_4  and  O_7
REMARK    4  A    between atoms: O_7  and  C_8
REMARK    5  A    between atoms: C_8  and  C_9
REMARK    6  A    between atoms: C_11  and  N_12
REMARK    7  A    between atoms: C_22  and  O_23
REMARK    8  A    between atoms: C_24  and  O_25
REMARK    9  A    between atoms: C_26  and  O_27
REMARK   10  A    between atoms: C_26  and  C_28
REMARK   11  A    between atoms: C_28  and  O_29
REMARK   12  A    between atoms: C_28  and  C_30
REMARK                            x       y       z     vdW  Elec       q    Type
REMARK                         _______ _______ _______ _____ _____    ______ ____
ROOT
ATOM      1  C   UNL     1       2.229   3.124  17.897  0.00  0.00    +0.000 C 
ATOM      2  O   UNL     1       3.176   3.745  16.995  0.00  0.00    +0.000 OA
ATOM      3  C   UNL     1       4.491   3.699  17.591  0.00  0.00    +0.000 C 
ATOM      4  C   UNL     1       4.326   3.309  19.059  0.00  0.00    +0.000 C 
ATOM      5  C   UNL     1       3.057   2.472  19.010  0.00  0.00    +0.000 C 
ENDROOT
BRANCH   3   6
ATOM      6  N   UNL     1       5.183   4.954  17.384  0.00  0.00    +0.000 N 
ATOM      7  C   UNL     1       4.899   5.854  16.384  0.00  0.00    +0.000 A 
ATOM      8  N   UNL     1       5.761   6.850  16.349  0.00  0.00    +0.000 NA
ATOM      9  C   UNL     1       6.619   6.590  17.386  0.00  0.00    +0.000 A 
ATOM     10  C   UNL     1       7.769   7.331  17.862  0.00  0.00    +0.000 A 
ATOM     11  O   UNL     1       8.238   8.342  17.349  0.00  0.00    +0.000 OA
ATOM     12  N   UNL     1       8.325   6.760  18.999  0.00  0.00    +0.000 N 
ATOM     13  C   UNL     1       7.866   5.588  19.573  0.00  0.00    +0.000 A 
ATOM     14  N   UNL     1       6.875   4.874  19.128  0.00  0.00    +0.000 NA
ATOM     15  C   UNL     1       6.275   5.432  18.050  0.00  0.00    +0.000 A 
ATOM     16  H   UNL     1       9.118   7.247  19.387  0.00  0.00    +0.000 HD
ENDBRANCH   3   6
BRANCH   4  17
ATOM     17  O   UNL     1       5.437   2.557  19.551  0.00  0.00    +0.000 OA
ATOM     18  H   UNL     1       5.641   2.911  20.442  0.00  0.00    +0.000 HD
ENDBRANCH   4  17
BRANCH   5  19
ATOM     19  O   UNL     1       3.428   1.120  18.676  0.00  0.00    +0.000 OA
ATOM     20  H   UNL     1       2.706   0.517  18.934  0.00  0.00    +0.000 HD
ENDBRANCH   5  19
BRANCH   1  21
ATOM     21  C   UNL     1       1.226   4.155  18.434  0.00  0.00    +0.000 C 
BRANCH  21  22
ATOM     22  O   UNL     1       1.733   5.478  18.292  0.00  0.00    +0.000 OA
BRANCH  22  23
ATOM     23  S   UNL     1       2.100   6.279  19.663  0.00  0.00    +0.000 S 
ATOM     24  O   UNL     1       3.526   6.467  19.748  0.00  0.00    +0.000 OA
ATOM     25  O   UNL     1       1.377   5.626  20.742  0.00  0.00    +0.000 OA
BRANCH  23  28
ATOM     26  O   UNL     1       1.414   8.308  21.731  0.00  0.00    +0.000 OA
ATOM     27  C   UNL     1       1.169   8.627  20.575  0.00  0.00    +0.000 C 
ATOM     28  N   UNL     1       1.379   7.751  19.500  0.00  0.00    +0.000 N 
ATOM     29  H   UNL     1       1.021   7.971  18.574  0.00  0.00    +0.000 HD
BRANCH  27  30
ATOM     30  C   UNL     1       0.622  10.007  20.189  0.00  0.00    +0.000 C 
BRANCH  30  31
ATOM     31  O   UNL     1      -0.268  10.552  21.177  0.00  0.00    +0.000 OA
ATOM     32  H   UNL     1       0.257  10.788  21.962  0.00  0.00    +0.000 HD
ENDBRANCH  30  31
BRANCH  30  33
ATOM     33  C   UNL     1      -0.027   9.924  18.785  0.00  0.00    +0.000 C 
BRANCH  33  34
ATOM     34  C   UNL     1      -1.372  10.611  18.711  0.00  0.00    +0.000 C 
ATOM     35  C   UNL     1      -1.844  11.230  17.419  0.00  0.00    +0.000 C 
ATOM     36  C   UNL     1      -2.510   9.988  17.938  0.00  0.00    +0.000 C 
ENDBRANCH  33  34
BRANCH  33  37
ATOM     37  O   UNL     1       0.833  10.507  17.801  0.00  0.00    +0.000 OA
ATOM     38  H   UNL     1       0.712  11.470  17.832  0.00  0.00    +0.000 HD
ENDBRANCH  33  37
ENDBRANCH  30  33
ENDBRANCH  27  30
ENDBRANCH  23  28
ENDBRANCH  22  23
ENDBRANCH  21  22
ENDBRANCH   1  21
TORSDOF 12
ENDMDL
MODEL 2
REMARK VINA RESULT:      -7.6      1.333      2.011
REMARK  Name = 
REMARK  12 active torsions:
REMARK  status: ('A' for Active; 'I' for Inactive)
REMARK    1  A    between atoms: C_2  and  C_26
REMARK    2  A    between atoms: N_3  and  S_4
REMARK    3  A    between atoms: S_4  and  O_7
REMARK    4  A    between atoms: O_7  and  C_8
REMARK    5  A    between atoms: C_8  and  C_9
REMARK    6  A    between atoms: C_11  and  N_12
REMARK    7  A    between atoms: C_22  and  O_23
REMARK    8  A    between atoms: C_24  and  O_25
REMARK    9  A    between atoms: C_26  and  O_27
REMARK   10  A    between atoms: C_26  and  C_28
REMARK   11  A    between atoms: C_28  and  O_29
REMARK   12  A    between atoms: C_28  and  C_30
REMARK                            x       y       z     vdW  Elec       q    Type
REMARK                         _______ _______ _______ _____ _____    ______ ____
ROOT
ATOM      1  C   UNL     1       2.375   2.712  17.747  0.00  0.00    +0.000 C 
ATOM      2  O   UNL     1       3.302   3.432  16.899  0.00  0.00    +0.000 OA
ATOM      3  C   UNL     1       4.575   3.531  17.575  0.00  0.00    +0.000 C 
ATOM      4  C   UNL     1       4.364   3.128  19.033  0.00  0.00    +0.000 C 
ATOM      5  C   UNL     1       3.199   2.157  18.914  0.00  0.00    +0.000 C 
ENDROOT
BRANCH   3   6
ATOM      6  N   UNL     1       5.138   4.854  17.400  0.00  0.00    +0.000 N 
ATOM      7  C   UNL     1       4.695   5.784  16.489  0.00  0.00    +0.000 A 
ATOM      8  N   UNL     1       5.463   6.854  16.454  0.00  0.00    +0.000 NA
ATOM      9  C   UNL     1       6.424   6.611  17.401  0.00  0.00    +0.000 A 
ATOM     10  C   UNL     1       7.542   7.422  17.835  0.00  0.00    +0.000 A 
ATOM     11  O   UNL     1       7.878   8.501  17.357  0.00  0.00    +0.000 OA
ATOM     12  N   UNL     1       8.239   6.836  18.883  0.00  0.00    +0.000 N 
ATOM     13  C   UNL     1       7.931   5.594  19.410  0.00  0.00    +0.000 A 
ATOM     14  N   UNL     1       6.971   4.822  18.997  0.00  0.00    +0.000 NA
ATOM     15  C   UNL     1       6.237   5.388  18.010  0.00  0.00    +0.000 A 
ATOM     16  H   UNL     1       9.017   7.369  19.240  0.00  0.00    +0.000 HD
ENDBRANCH   3   6
BRANCH   4  17
ATOM     17  O   UNL     1       5.518   2.503  19.598  0.00  0.00    +0.000 OA
ATOM     18  H   UNL     1       5.344   2.410  20.558  0.00  0.00    +0.000 HD
ENDBRANCH   4  17
BRANCH   5  19
ATOM     19  O   UNL     1       3.735   0.853  18.615  0.00  0.00    +0.000 OA
ATOM     20  H   UNL     1       3.796   0.745  17.647  0.00  0.00    +0.000 HD
ENDBRANCH   5  19
BRANCH   1  21
ATOM     21  C   UNL     1       1.234   3.628  18.214  0.00  0.00    +0.000 C 
BRANCH  21  22
ATOM     22  O   UNL     1       1.707   4.953  18.435  0.00  0.00    +0.000 OA
BRANCH  22  23
ATOM     23  S   UNL     1       1.950   5.401  19.983  0.00  0.00    +0.000 S 
ATOM     24  O   UNL     1       3.363   5.536  20.232  0.00  0.00    +0.000 OA
ATOM     25  O   UNL     1       1.137   4.525  20.811  0.00  0.00    +0.000 OA
BRANCH  23  28
ATOM     26  O   UNL     1       2.784   8.018  18.835  0.00  0.00    +0.000 OA
ATOM     27  C   UNL     1       1.732   8.026  19.461  0.00  0.00    +0.000 C 
ATOM     28  N   UNL     1       1.244   6.883  20.113  0.00  0.00    +0.000 N 
ATOM     29  H   UNL     1       0.460   6.948  20.757  0.00  0.00    +0.000 HD
BRANCH  27  30
ATOM     30  C   UNL     1       0.846   9.271  19.589  0.00  0.00    +0.000 C 
BRANCH  30  31
ATOM     31  O   UNL     1       1.137  10.267  18.594  0.00  0.00    +0.000 OA
ATOM     32  H   UNL     1       1.750   9.880  17.945  0.00  0.00    +0.000 HD
ENDBRANCH  30  31
BRANCH  30  33
ATOM     33  C   UNL     1       0.947   9.825  21.032  0.00  0.00    +0.000 C 
BRANCH  33  34
ATOM     34  C   UNL     1      -0.392   9.915  21.728  0.00  0.00    +0.000 C 
ATOM     35  C   UNL     1      -0.514   9.590  23.195  0.00  0.00    +0.000 C 
ATOM     36  C   UNL     1      -0.662  11.011  22.731  0.00  0.00    +0.000 C 
ENDBRANCH  33  34
BRANCH  33  37
ATOM     37  O   UNL     1       1.813   9.005  21.822  0.00  0.00    +0.000 OA
ATOM     38  H   UNL     1       2.594   8.791  21.286  0.00  0.00    +0.000 HD
ENDBRANCH  33  37
ENDBRANCH  30  33
ENDBRANCH  27  30
ENDBRANCH  23  28
ENDBRANCH  22  23
ENDBRANCH  21  22
ENDBRANCH   1  21
TORSDOF 12
ENDMDL
MODEL 3
REMARK VINA RESULT:      -7.6      2.874      7.228
REMARK  Name = 
REMARK  12 active torsions:
REMARK  status: ('A' for Active; 'I' for Inactive)
REMARK    1  A    between atoms: C_2  and  C_26
REMARK    2  A    between atoms: N_3  and  S_4
REMARK    3  A    between atoms: S_4  and  O_7
REMARK    4  A    between atoms: O_7  and  C_8
REMARK    5  A    between atoms: C_8  and  C_9
REMARK    6  A    between atoms: C_11  and  N_12
REMARK    7  A    between atoms: C_22  and  O_23
REMARK    8  A    between atoms: C_24  and  O_25
REMARK    9  A    between atoms: C_26  and  O_27
REMARK   10  A    between atoms: C_26  and  C_28
REMARK   11  A    between atoms: C_28  and  O_29
REMARK   12  A    between atoms: C_28  and  C_30
REMARK                            x       y       z     vdW  Elec       q    Type
REMARK                         _______ _______ _______ _____ _____    ______ ____
ROOT
ATOM      1  C   UNL     1       4.282   4.144  19.670  0.00  0.00    +0.000 C 
ATOM      2  O   UNL     1       3.716   5.419  20.057  0.00  0.00    +0.000 OA
ATOM      3  C   UNL     1       2.378   5.520  19.521  0.00  0.00    +0.000 C 
ATOM      4  C   UNL     1       2.198   4.400  18.499  0.00  0.00    +0.000 C 
ATOM      5  C   UNL     1       3.140   3.337  19.043  0.00  0.00    +0.000 C 
ENDROOT
BRANCH   3   6
ATOM      6  N   UNL     1       2.144   6.849  18.995  0.00  0.00    +0.000 N 
ATOM      7  C   UNL     1       2.481   7.264  17.728  0.00  0.00    +0.000 A 
ATOM      8  N   UNL     1       2.271   8.553  17.552  0.00  0.00    +0.000 NA
ATOM      9  C   UNL     1       1.754   8.976  18.749  0.00  0.00    +0.000 A 
ATOM     10  C   UNL     1       1.312  10.290  19.170  0.00  0.00    +0.000 A 
ATOM     11  O   UNL     1       1.390  11.322  18.510  0.00  0.00    +0.000 OA
ATOM     12  N   UNL     1       0.778  10.277  20.451  0.00  0.00    +0.000 N 
ATOM     13  C   UNL     1       0.727   9.149  21.251  0.00  0.00    +0.000 A 
ATOM     14  N   UNL     1       1.171   7.974  20.918  0.00  0.00    +0.000 NA
ATOM     15  C   UNL     1       1.652   7.939  19.652  0.00  0.00    +0.000 A 
ATOM     16  H   UNL     1       0.434  11.163  20.788  0.00  0.00    +0.000 HD
ENDBRANCH   3   6
BRANCH   4  17
ATOM     17  O   UNL     1       0.849   3.931  18.436  0.00  0.00    +0.000 OA
ATOM     18  H   UNL     1       0.896   2.953  18.388  0.00  0.00    +0.000 HD
ENDBRANCH   4  17
BRANCH   5  19
ATOM     19  O   UNL     1       2.423   2.571  20.031  0.00  0.00    +0.000 OA
ATOM     20  H   UNL     1       2.416   1.632  19.767  0.00  0.00    +0.000 HD
ENDBRANCH   5  19
BRANCH   1  21
ATOM     21  C   UNL     1       5.464   4.338  18.709  0.00  0.00    +0.000 C 
BRANCH  21  22
ATOM     22  O   UNL     1       6.090   5.599  18.924  0.00  0.00    +0.000 OA
BRANCH  22  23
ATOM     23  S   UNL     1       7.654   5.730  18.484  0.00  0.00    +0.000 S 
ATOM     24  O   UNL     1       8.479   4.985  19.401  0.00  0.00    +0.000 OA
ATOM     25  O   UNL     1       7.910   7.140  18.242  0.00  0.00    +0.000 OA
BRANCH  23  28
ATOM     26  O   UNL     1       6.250   6.432  15.954  0.00  0.00    +0.000 OA
ATOM     27  C   UNL     1       7.048   5.507  15.877  0.00  0.00    +0.000 C 
ATOM     28  N   UNL     1       7.737   5.022  16.999  0.00  0.00    +0.000 N 
ATOM     29  H   UNL     1       8.268   4.156  16.948  0.00  0.00    +0.000 HD
BRANCH  27  30
ATOM     30  C   UNL     1       7.378   4.797  14.559  0.00  0.00    +0.000 C 
BRANCH  30  31
ATOM     31  O   UNL     1       7.912   5.687  13.564  0.00  0.00    +0.000 OA
ATOM     32  H   UNL     1       8.280   6.465  14.018  0.00  0.00    +0.000 HD
ENDBRANCH  30  31
BRANCH  30  33
ATOM     33  C   UNL     1       6.127   4.032  14.063  0.00  0.00    +0.000 C 
BRANCH  33  34
ATOM     34  C   UNL     1       6.195   3.669  12.596  0.00  0.00    +0.000 C 
ATOM     35  C   UNL     1       5.549   2.402  12.092  0.00  0.00    +0.000 C 
ATOM     36  C   UNL     1       4.958   3.736  11.732  0.00  0.00    +0.000 C 
ENDBRANCH  33  34
BRANCH  33  37
ATOM     37  O   UNL     1       5.943   2.830  14.818  0.00  0.00    +0.000 OA
ATOM     38  H   UNL     1       6.815   2.537  15.129  0.00  0.00    +0.000 HD
ENDBRANCH  33  37
ENDBRANCH  30  33
ENDBRANCH  27  30
ENDBRANCH  23  28
ENDBRANCH  22  23
ENDBRANCH  21  22
ENDBRANCH   1  21
TORSDOF 12
ENDMDL
MODEL 4
REMARK VINA RESULT:      -7.5      1.132      1.631
REMARK  Name = 
REMARK  12 active torsions:
REMARK  status: ('A' for Active; 'I' for Inactive)
REMARK    1  A    between atoms: C_2  and  C_26
REMARK    2  A    between atoms: N_3  and  S_4
REMARK    3  A    between atoms: S_4  and  O_7
REMARK    4  A    between atoms: O_7  and  C_8
REMARK    5  A    between atoms: C_8  and  C_9
REMARK    6  A    between atoms: C_11  and  N_12
REMARK    7  A    between atoms: C_22  and  O_23
REMARK    8  A    between atoms: C_24  and  O_25
REMARK    9  A    between atoms: C_26  and  O_27
REMARK   10  A    between atoms: C_26  and  C_28
REMARK   11  A    between atoms: C_28  and  O_29
REMARK   12  A    between atoms: C_28  and  C_30
REMARK                            x       y       z     vdW  Elec       q    Type
REMARK                         _______ _______ _______ _____ _____    ______ ____
ROOT
ATOM      1  C   UNL     1       2.213   2.936  17.821  0.00  0.00    +0.000 C 
ATOM      2  O   UNL     1       3.164   3.556  16.922  0.00  0.00    +0.000 OA
ATOM      3  C   UNL     1       4.467   3.554  17.546  0.00  0.00    +0.000 C 
ATOM      4  C   UNL     1       4.281   3.197  19.019  0.00  0.00    +0.000 C 
ATOM      5  C   UNL     1       3.032   2.332  18.966  0.00  0.00    +0.000 C 
ENDROOT
BRANCH   3   6
ATOM      6  N   UNL     1       5.137   4.818  17.320  0.00  0.00    +0.000 N 
ATOM      7  C   UNL     1       4.845   5.692  16.300  0.00  0.00    +0.000 A 
ATOM      8  N   UNL     1       5.687   6.704  16.253  0.00  0.00    +0.000 NA
ATOM      9  C   UNL     1       6.540   6.483  17.304  0.00  0.00    +0.000 A 
ATOM     10  C   UNL     1       7.670   7.256  17.776  0.00  0.00    +0.000 A 
ATOM     11  O   UNL     1       8.123   8.266  17.248  0.00  0.00    +0.000 OA
ATOM     12  N   UNL     1       8.225   6.719  18.929  0.00  0.00    +0.000 N 
ATOM     13  C   UNL     1       7.783   5.549  19.522  0.00  0.00    +0.000 A 
ATOM     14  N   UNL     1       6.812   4.807  19.083  0.00  0.00    +0.000 NA
ATOM     15  C   UNL     1       6.211   5.331  17.988  0.00  0.00    +0.000 A 
ATOM     16  H   UNL     1       9.004   7.230  19.316  0.00  0.00    +0.000 HD
ENDBRANCH   3   6
BRANCH   4  17
ATOM     17  O   UNL     1       5.398   2.483  19.552  0.00  0.00    +0.000 OA
ATOM     18  H   UNL     1       5.982   2.272  18.794  0.00  0.00    +0.000 HD
ENDBRANCH   4  17
BRANCH   5  19
ATOM     19  O   UNL     1       3.438   0.980  18.675  0.00  0.00    +0.000 OA
ATOM     20  H   UNL     1       2.797   0.360  19.069  0.00  0.00    +0.000 HD
ENDBRANCH   5  19
BRANCH   1  21
ATOM     21  C   UNL     1       1.177   3.958  18.312  0.00  0.00    +0.000 C 
BRANCH  21  22
ATOM     22  O   UNL     1       1.577   4.529  19.554  0.00  0.00    +0.000 OA
BRANCH  22  23
ATOM     23  S   UNL     1       2.204   6.033  19.506  0.00  0.00    +0.000 S 
ATOM     24  O   UNL     1       1.917   6.637  18.229  0.00  0.00    +0.000 OA
ATOM     25  O   UNL     1       3.573   5.938  19.985  0.00  0.00    +0.000 OA
BRANCH  23  28
ATOM     26  O   UNL     1       1.995   8.968  19.961  0.00  0.00    +0.000 OA
ATOM     27  C   UNL     1       1.351   8.267  20.729  0.00  0.00    +0.000 C 
ATOM     28  N   UNL     1       1.399   6.865  20.678  0.00  0.00    +0.000 N 
ATOM     29  H   UNL     1       0.989   6.304  21.420  0.00  0.00    +0.000 HD
BRANCH  27  30
ATOM     30  C   UNL     1       0.427   8.843  21.810  0.00  0.00    +0.000 C 
BRANCH  30  31
ATOM     31  O   UNL     1      -0.826   8.145  21.902  0.00  0.00    +0.000 OA
ATOM     32  H   UNL     1      -1.293   8.463  22.694  0.00  0.00    +0.000 HD
ENDBRANCH  30  31
BRANCH  30  33
ATOM     33  C   UNL     1       0.246  10.362  21.571  0.00  0.00    +0.000 C 
BRANCH  33  34
ATOM     34  C   UNL     1      -0.860  10.682  20.590  0.00  0.00    +0.000 C 
ATOM     35  C   UNL     1      -1.247  12.113  20.315  0.00  0.00    +0.000 C 
ATOM     36  C   UNL     1      -0.542  11.314  19.256  0.00  0.00    +0.000 C 
ENDBRANCH  33  34
BRANCH  33  37
ATOM     37  O   UNL     1      -0.035  11.032  22.803  0.00  0.00    +0.000 OA
ATOM     38  H   UNL     1      -0.667  11.745  22.618  0.00  0.00    +0.000 HD
ENDBRANCH  33  37
ENDBRANCH  30  33
ENDBRANCH  27  30
ENDBRANCH  23  28
ENDBRANCH  22  23
ENDBRANCH  21  22
ENDBRANCH   1  21
TORSDOF 12
ENDMDL
MODEL 5
REMARK VINA RESULT:      -7.4      2.679      8.620
REMARK  Name = 
REMARK  12 active torsions:
REMARK  status: ('A' for Active; 'I' for Inactive)
REMARK    1  A    between atoms: C_2  and  C_26
REMARK    2  A    between atoms: N_3  and  S_4
REMARK    3  A    between atoms: S_4  and  O_7
REMARK    4  A    between atoms: O_7  and  C_8
REMARK    5  A    between atoms: C_8  and  C_9
REMARK    6  A    between atoms: C_11  and  N_12
REMARK    7  A    between atoms: C_22  and  O_23
REMARK    8  A    between atoms: C_24  and  O_25
REMARK    9  A    between atoms: C_26  and  O_27
REMARK   10  A    between atoms: C_26  and  C_28
REMARK   11  A    between atoms: C_28  and  O_29
REMARK   12  A    between atoms: C_28  and  C_30
REMARK                            x       y       z     vdW  Elec       q    Type
REMARK                         _______ _______ _______ _____ _____    ______ ____
ROOT
ATOM      1  C   UNL     1       1.876   8.484  20.370  0.00  0.00    +0.000 C 
ATOM      2  O   UNL     1       1.342   9.468  19.452  0.00  0.00    +0.000 OA
ATOM      3  C   UNL     1       0.174  10.078  20.046  0.00  0.00    +0.000 C 
ATOM      4  C   UNL     1      -0.230   9.236  21.254  0.00  0.00    +0.000 C 
ATOM      5  C   UNL     1       1.110   8.661  21.685  0.00  0.00    +0.000 C 
ENDROOT
BRANCH   3   6
ATOM      6  N   UNL     1      -0.870  10.237  19.056  0.00  0.00    +0.000 N 
ATOM      7  C   UNL     1      -0.883   9.633  17.820  0.00  0.00    +0.000 A 
ATOM      8  N   UNL     1      -1.885  10.047  17.072  0.00  0.00    +0.000 NA
ATOM      9  C   UNL     1      -2.558  10.935  17.871  0.00  0.00    +0.000 A 
ATOM     10  C   UNL     1      -3.754  11.711  17.614  0.00  0.00    +0.000 A 
ATOM     11  O   UNL     1      -4.368  11.757  16.553  0.00  0.00    +0.000 OA
ATOM     12  N   UNL     1      -4.154  12.439  18.726  0.00  0.00    +0.000 N 
ATOM     13  C   UNL     1      -3.457  12.462  19.921  0.00  0.00    +0.000 A 
ATOM     14  N   UNL     1      -2.350  11.822  20.154  0.00  0.00    +0.000 NA
ATOM     15  C   UNL     1      -1.959  11.059  19.107  0.00  0.00    +0.000 A 
ATOM     16  H   UNL     1      -4.996  12.982  18.610  0.00  0.00    +0.000 HD
ENDBRANCH   3   6
BRANCH   4  17
ATOM     17  O   UNL     1      -0.828  10.020  22.289  0.00  0.00    +0.000 OA
ATOM     18  H   UNL     1      -0.113  10.573  22.668  0.00  0.00    +0.000 HD
ENDBRANCH   4  17
BRANCH   5  19
ATOM     19  O   UNL     1       1.750   9.621  22.549  0.00  0.00    +0.000 OA
ATOM     20  H   UNL     1       2.666   9.336  22.723  0.00  0.00    +0.000 HD
ENDBRANCH   5  19
BRANCH   1  21
ATOM     21  C   UNL     1       1.739   7.067  19.794  0.00  0.00    +0.000 C 
BRANCH  21  22
ATOM     22  O   UNL     1       1.462   6.125  20.825  0.00  0.00    +0.000 OA
BRANCH  22  23
ATOM     23  S   UNL     1       1.915   4.582  20.557  0.00  0.00    +0.000 S 
ATOM     24  O   UNL     1       0.956   3.938  19.696  0.00  0.00    +0.000 OA
ATOM     25  O   UNL     1       2.249   4.007  21.850  0.00  0.00    +0.000 OA
BRANCH  23  28
ATOM     26  O   UNL     1       3.779   2.437  19.669  0.00  0.00    +0.000 OA
ATOM     27  C   UNL     1       4.097   3.577  19.357  0.00  0.00    +0.000 C 
ATOM     28  N   UNL     1       3.352   4.696  19.758  0.00  0.00    +0.000 N 
ATOM     29  H   UNL     1       3.716   5.636  19.629  0.00  0.00    +0.000 HD
BRANCH  27  30
ATOM     30  C   UNL     1       5.326   3.894  18.496  0.00  0.00    +0.000 C 
BRANCH  30  31
ATOM     31  O   UNL     1       6.211   4.844  19.114  0.00  0.00    +0.000 OA
ATOM     32  H   UNL     1       5.737   5.690  19.199  0.00  0.00    +0.000 HD
ENDBRANCH  30  31
BRANCH  30  33
ATOM     33  C   UNL     1       4.863   4.341  17.088  0.00  0.00    +0.000 C 
BRANCH  33  34
ATOM     34  C   UNL     1       5.761   3.840  15.980  0.00  0.00    +0.000 C 
ATOM     35  C   UNL     1       5.732   4.491  14.620  0.00  0.00    +0.000 C 
ATOM     36  C   UNL     1       6.931   4.670  15.507  0.00  0.00    +0.000 C 
ENDBRANCH  33  34
BRANCH  33  37
ATOM     37  O   UNL     1       3.531   3.885  16.832  0.00  0.00    +0.000 OA
ATOM     38  H   UNL     1       3.535   2.915  16.868  0.00  0.00    +0.000 HD
ENDBRANCH  33  37
ENDBRANCH  30  33
ENDBRANCH  27  30
ENDBRANCH  23  28
ENDBRANCH  22  23
ENDBRANCH  21  22
ENDBRANCH   1  21
TORSDOF 12
ENDMDL
MODEL 6
REMARK VINA RESULT:      -7.4      3.484      7.623
REMARK  Name = 
REMARK  12 active torsions:
REMARK  status: ('A' for Active; 'I' for Inactive)
REMARK    1  A    between atoms: C_2  and  C_26
REMARK    2  A    between atoms: N_3  and  S_4
REMARK    3  A    between atoms: S_4  and  O_7
REMARK    4  A    between atoms: O_7  and  C_8
REMARK    5  A    between atoms: C_8  and  C_9
REMARK    6  A    between atoms: C_11  and  N_12
REMARK    7  A    between atoms: C_22  and  O_23
REMARK    8  A    between atoms: C_24  and  O_25
REMARK    9  A    between atoms: C_26  and  O_27
REMARK   10  A    between atoms: C_26  and  C_28
REMARK   11  A    between atoms: C_28  and  O_29
REMARK   12  A    between atoms: C_28  and  C_30
REMARK                            x       y       z     vdW  Elec       q    Type
REMARK                         _______ _______ _______ _____ _____    ______ ____
ROOT
ATOM      1  C   UNL     1       4.915   4.647  19.251  0.00  0.00    +0.000 C 
ATOM      2  O   UNL     1       4.029   5.665  19.776  0.00  0.00    +0.000 OA
ATOM      3  C   UNL     1       2.799   5.652  19.017  0.00  0.00    +0.000 C 
ATOM      4  C   UNL     1       3.030   4.805  17.767  0.00  0.00    +0.000 C 
ATOM      5  C   UNL     1       4.089   3.828  18.254  0.00  0.00    +0.000 C 
ENDROOT
BRANCH   3   6
ATOM      6  N   UNL     1       2.361   7.005  18.744  0.00  0.00    +0.000 N 
ATOM      7  C   UNL     1       2.551   7.670  17.556  0.00  0.00    +0.000 A 
ATOM      8  N   UNL     1       2.166   8.929  17.621  0.00  0.00    +0.000 NA
ATOM      9  C   UNL     1       1.684   9.069  18.897  0.00  0.00    +0.000 A 
ATOM     10  C   UNL     1       1.109  10.220  19.563  0.00  0.00    +0.000 A 
ATOM     11  O   UNL     1       1.007  11.348  19.093  0.00  0.00    +0.000 OA
ATOM     12  N   UNL     1       0.673   9.917  20.846  0.00  0.00    +0.000 N 
ATOM     13  C   UNL     1       0.825   8.675  21.436  0.00  0.00    +0.000 A 
ATOM     14  N   UNL     1       1.391   7.646  20.880  0.00  0.00    +0.000 NA
ATOM     15  C   UNL     1       1.780   7.891  19.606  0.00  0.00    +0.000 A 
ATOM     16  H   UNL     1       0.244  10.678  21.350  0.00  0.00    +0.000 HD
ENDBRANCH   3   6
BRANCH   4  17
ATOM     17  O   UNL     1       1.845   4.131  17.340  0.00  0.00    +0.000 OA
ATOM     18  H   UNL     1       1.559   3.566  18.088  0.00  0.00    +0.000 HD
ENDBRANCH   4  17
BRANCH   5  19
ATOM     19  O   UNL     1       3.418   2.726  18.896  0.00  0.00    +0.000 OA
ATOM     20  H   UNL     1       4.055   2.244  19.456  0.00  0.00    +0.000 HD
ENDBRANCH   5  19
BRANCH   1  21
ATOM     21  C   UNL     1       6.157   5.281  18.609  0.00  0.00    +0.000 C 
BRANCH  21  22
ATOM     22  O   UNL     1       6.298   4.862  17.255  0.00  0.00    +0.000 OA
BRANCH  22  23
ATOM     23  S   UNL     1       6.681   6.010  16.164  0.00  0.00    +0.000 S 
ATOM     24  O   UNL     1       7.795   6.786  16.647  0.00  0.00    +0.000 OA
ATOM     25  O   UNL     1       5.440   6.663  15.780  0.00  0.00    +0.000 OA
BRANCH  23  28
ATOM     26  O   UNL     1       5.218   3.966  14.569  0.00  0.00    +0.000 OA
ATOM     27  C   UNL     1       6.323   4.276  14.144  0.00  0.00    +0.000 C 
ATOM     28  N   UNL     1       7.156   5.179  14.823  0.00  0.00    +0.000 N 
ATOM     29  H   UNL     1       8.126   5.300  14.544  0.00  0.00    +0.000 HD
BRANCH  27  30
ATOM     30  C   UNL     1       6.900   3.723  12.835  0.00  0.00    +0.000 C 
BRANCH  30  31
ATOM     31  O   UNL     1       7.326   4.756  11.932  0.00  0.00    +0.000 OA
ATOM     32  H   UNL     1       7.641   4.334  11.114  0.00  0.00    +0.000 HD
ENDBRANCH  30  31
BRANCH  30  33
ATOM     33  C   UNL     1       5.874   2.757  12.193  0.00  0.00    +0.000 C 
BRANCH  33  34
ATOM     34  C   UNL     1       4.935   3.444  11.228  0.00  0.00    +0.000 C 
ATOM     35  C   UNL     1       3.943   2.641  10.424  0.00  0.00    +0.000 C 
ATOM     36  C   UNL     1       3.458   3.535  11.529  0.00  0.00    +0.000 C 
ENDBRANCH  33  34
BRANCH  33  37
ATOM     37  O   UNL     1       6.548   1.704  11.496  0.00  0.00    +0.000 OA
ATOM     38  H   UNL     1       5.941   1.355  10.823  0.00  0.00    +0.000 HD
ENDBRANCH  33  37
ENDBRANCH  30  33
ENDBRANCH  27  30
ENDBRANCH  23  28
ENDBRANCH  22  23
ENDBRANCH  21  22
ENDBRANCH   1  21
TORSDOF 12
ENDMDL
MODEL 7
REMARK VINA RESULT:      -7.3      3.368      7.499
REMARK  Name = 
REMARK  12 active torsions:
REMARK  status: ('A' for Active; 'I' for Inactive)
REMARK    1  A    between atoms: C_2  and  C_26
REMARK    2  A    between atoms: N_3  and  S_4
REMARK    3  A    between atoms: S_4  and  O_7
REMARK    4  A    between atoms: O_7  and  C_8
REMARK    5  A    between atoms: C_8  and  C_9
REMARK    6  A    between atoms: C_11  and  N_12
REMARK    7  A    between atoms: C_22  and  O_23
REMARK    8  A    between atoms: C_24  and  O_25
REMARK    9  A    between atoms: C_26  and  O_27
REMARK   10  A    between atoms: C_26  and  C_28
REMARK   11  A    between atoms: C_28  and  O_29
REMARK   12  A    between atoms: C_28  and  C_30
REMARK                            x       y       z     vdW  Elec       q    Type
REMARK                         _______ _______ _______ _____ _____    ______ ____
ROOT
ATOM      1  C   UNL     1       4.532   3.909  19.039  0.00  0.00    +0.000 C 
ATOM      2  O   UNL     1       4.330   5.277  19.469  0.00  0.00    +0.000 OA
ATOM      3  C   UNL     1       2.922   5.489  19.714  0.00  0.00    +0.000 C 
ATOM      4  C   UNL     1       2.161   4.303  19.125  0.00  0.00    +0.000 C 
ATOM      5  C   UNL     1       3.193   3.192  19.241  0.00  0.00    +0.000 C 
ENDROOT
BRANCH   3   6
ATOM      6  N   UNL     1       2.508   6.777  19.198  0.00  0.00    +0.000 N 
ATOM      7  C   UNL     1       2.819   7.261  17.949  0.00  0.00    +0.000 A 
ATOM      8  N   UNL     1       2.423   8.508  17.783  0.00  0.00    +0.000 NA
ATOM      9  C   UNL     1       1.810   8.826  18.967  0.00  0.00    +0.000 A 
ATOM     10  C   UNL     1       1.162  10.051  19.390  0.00  0.00    +0.000 A 
ATOM     11  O   UNL     1       1.105  11.095  18.747  0.00  0.00    +0.000 OA
ATOM     12  N   UNL     1       0.595   9.934  20.651  0.00  0.00    +0.000 N 
ATOM     13  C   UNL     1       0.689   8.797  21.434  0.00  0.00    +0.000 A 
ATOM     14  N   UNL     1       1.316   7.709  21.101  0.00  0.00    +0.000 NA
ATOM     15  C   UNL     1       1.836   7.769  19.852  0.00  0.00    +0.000 A 
ATOM     16  H   UNL     1       0.112  10.753  20.988  0.00  0.00    +0.000 HD
ENDBRANCH   3   6
BRANCH   4  17
ATOM     17  O   UNL     1       0.972   4.001  19.857  0.00  0.00    +0.000 OA
ATOM     18  H   UNL     1       0.675   4.841  20.267  0.00  0.00    +0.000 HD
ENDBRANCH   4  17
BRANCH   5  19
ATOM     19  O   UNL     1       3.087   2.623  20.561  0.00  0.00    +0.000 OA
ATOM     20  H   UNL     1       2.214   2.842  20.937  0.00  0.00    +0.000 HD
ENDBRANCH   5  19
BRANCH   1  21
ATOM     21  C   UNL     1       5.014   3.859  17.582  0.00  0.00    +0.000 C 
BRANCH  21  22
ATOM     22  O   UNL     1       5.535   5.121  17.176  0.00  0.00    +0.000 OA
BRANCH  22  23
ATOM     23  S   UNL     1       7.149   5.220  16.971  0.00  0.00    +0.000 S 
ATOM     24  O   UNL     1       7.815   4.438  17.981  0.00  0.00    +0.000 OA
ATOM     25  O   UNL     1       7.469   6.628  16.798  0.00  0.00    +0.000 OA
BRANCH  23  28
ATOM     26  O   UNL     1       5.715   5.590  14.388  0.00  0.00    +0.000 OA
ATOM     27  C   UNL     1       6.693   4.855  14.349  0.00  0.00    +0.000 C 
ATOM     28  N   UNL     1       7.432   4.536  15.499  0.00  0.00    +0.000 N 
ATOM     29  H   UNL     1       8.136   3.804  15.476  0.00  0.00    +0.000 HD
BRANCH  27  30
ATOM     30  C   UNL     1       7.212   4.224  13.051  0.00  0.00    +0.000 C 
BRANCH  30  31
ATOM     31  O   UNL     1       7.523   5.198  12.042  0.00  0.00    +0.000 OA
ATOM     32  H   UNL     1       8.332   4.913  11.583  0.00  0.00    +0.000 HD
ENDBRANCH  30  31
BRANCH  30  33
ATOM     33  C   UNL     1       6.198   3.161  12.560  0.00  0.00    +0.000 C 
BRANCH  33  34
ATOM     34  C   UNL     1       5.154   3.724  11.622  0.00  0.00    +0.000 C 
ATOM     35  C   UNL     1       4.311   2.804  10.776  0.00  0.00    +0.000 C 
ATOM     36  C   UNL     1       3.684   3.550  11.919  0.00  0.00    +0.000 C 
ENDBRANCH  33  34
BRANCH  33  37
ATOM     37  O   UNL     1       6.878   2.094  11.891  0.00  0.00    +0.000 OA
ATOM     38  H   UNL     1       7.334   2.467  11.119  0.00  0.00    +0.000 HD
ENDBRANCH  33  37
ENDBRANCH  30  33
ENDBRANCH  27  30
ENDBRANCH  23  28
ENDBRANCH  22  23
ENDBRANCH  21  22
ENDBRANCH   1  21
TORSDOF 12
ENDMDL
MODEL 8
REMARK VINA RESULT:      -7.3      2.653      4.344
REMARK  Name = 
REMARK  12 active torsions:
REMARK  status: ('A' for Active; 'I' for Inactive)
REMARK    1  A    between atoms: C_2  and  C_26
REMARK    2  A    between atoms: N_3  and  S_4
REMARK    3  A    between atoms: S_4  and  O_7
REMARK    4  A    between atoms: O_7  and  C_8
REMARK    5  A    between atoms: C_8  and  C_9
REMARK    6  A    between atoms: C_11  and  N_12
REMARK    7  A    between atoms: C_22  and  O_23
REMARK    8  A    between atoms: C_24  and  O_25
REMARK    9  A    between atoms: C_26  and  O_27
REMARK   10  A    between atoms: C_26  and  C_28
REMARK   11  A    between atoms: C_28  and  O_29
REMARK   12  A    between atoms: C_28  and  C_30
REMARK                            x       y       z     vdW  Elec       q    Type
REMARK                         _______ _______ _______ _____ _____    ______ ____
ROOT
ATOM      1  C   UNL     1       6.621   5.279  19.294  0.00  0.00    +0.000 C 
ATOM      2  O   UNL     1       6.880   4.344  18.219  0.00  0.00    +0.000 OA
ATOM      3  C   UNL     1       7.303   5.080  17.050  0.00  0.00    +0.000 C 
ATOM      4  C   UNL     1       7.009   6.559  17.296  0.00  0.00    +0.000 C 
ATOM      5  C   UNL     1       7.123   6.643  18.810  0.00  0.00    +0.000 C 
ENDROOT
BRANCH   3   6
ATOM      6  N   UNL     1       6.679   4.539  15.861  0.00  0.00    +0.000 N 
ATOM      7  C   UNL     1       5.613   3.670  15.856  0.00  0.00    +0.000 A 
ATOM      8  N   UNL     1       5.325   3.239  14.645  0.00  0.00    +0.000 NA
ATOM      9  C   UNL     1       6.228   3.880  13.835  0.00  0.00    +0.000 A 
ATOM     10  C   UNL     1       6.405   3.825  12.399  0.00  0.00    +0.000 A 
ATOM     11  O   UNL     1       5.784   3.106  11.623  0.00  0.00    +0.000 OA
ATOM     12  N   UNL     1       7.396   4.693  11.961  0.00  0.00    +0.000 N 
ATOM     13  C   UNL     1       8.161   5.476  12.808  0.00  0.00    +0.000 A 
ATOM     14  N   UNL     1       8.060   5.497  14.104  0.00  0.00    +0.000 NA
ATOM     15  C   UNL     1       7.066   4.700  14.561  0.00  0.00    +0.000 A 
ATOM     16  H   UNL     1       7.549   4.712  10.965  0.00  0.00    +0.000 HD
ENDBRANCH   3   6
BRANCH   4  17
ATOM     17  O   UNL     1       7.948   7.416  16.645  0.00  0.00    +0.000 OA
ATOM     18  H   UNL     1       7.463   8.236  16.412  0.00  0.00    +0.000 HD
ENDBRANCH   4  17
BRANCH   5  19
ATOM     19  O   UNL     1       8.511   6.849  19.141  0.00  0.00    +0.000 OA
ATOM     20  H   UNL     1       8.590   7.624  19.728  0.00  0.00    +0.000 HD
ENDBRANCH   5  19
BRANCH   1  21
ATOM     21  C   UNL     1       5.130   5.295  19.660  0.00  0.00    +0.000 C 
BRANCH  21  22
ATOM     22  O   UNL     1       4.347   4.717  18.620  0.00  0.00    +0.000 OA
BRANCH  22  23
ATOM     23  S   UNL     1       2.735   4.659  18.856  0.00  0.00    +0.000 S 
ATOM     24  O   UNL     1       2.426   3.662  19.849  0.00  0.00    +0.000 OA
ATOM     25  O   UNL     1       2.116   4.607  17.542  0.00  0.00    +0.000 OA
BRANCH  23  28
ATOM     26  O   UNL     1       3.009   7.350  17.612  0.00  0.00    +0.000 OA
ATOM     27  C   UNL     1       2.481   7.329  18.716  0.00  0.00    +0.000 C 
ATOM     28  N   UNL     1       2.341   6.143  19.453  0.00  0.00    +0.000 N 
ATOM     29  H   UNL     1       2.050   6.168  20.427  0.00  0.00    +0.000 HD
BRANCH  27  30
ATOM     30  C   UNL     1       1.917   8.583  19.396  0.00  0.00    +0.000 C 
BRANCH  30  31
ATOM     31  O   UNL     1       1.209   8.288  20.611  0.00  0.00    +0.000 OA
ATOM     32  H   UNL     1       1.192   9.094  21.156  0.00  0.00    +0.000 HD
ENDBRANCH  30  31
BRANCH  30  33
ATOM     33  C   UNL     1       1.054   9.371  18.380  0.00  0.00    +0.000 C 
BRANCH  33  34
ATOM     34  C   UNL     1       0.080  10.321  19.038  0.00  0.00    +0.000 C 
ATOM     35  C   UNL     1      -0.596  11.403  18.234  0.00  0.00    +0.000 C 
ATOM     36  C   UNL     1      -1.398  10.236  18.735  0.00  0.00    +0.000 C 
ENDBRANCH  33  34
BRANCH  33  37
ATOM     37  O   UNL     1       1.888  10.122  17.492  0.00  0.00    +0.000 OA
ATOM     38  H   UNL     1       2.564  10.571  18.025  0.00  0.00    +0.000 HD
ENDBRANCH  33  37
ENDBRANCH  30  33
ENDBRANCH  27  30
ENDBRANCH  23  28
ENDBRANCH  22  23
ENDBRANCH  21  22
ENDBRANCH   1  21
TORSDOF 12
ENDMDL
MODEL 9
REMARK VINA RESULT:      -7.3      1.977      2.892
REMARK  Name = 
REMARK  12 active torsions:
REMARK  status: ('A' for Active; 'I' for Inactive)
REMARK    1  A    between atoms: C_2  and  C_26
REMARK    2  A    between atoms: N_3  and  S_4
REMARK    3  A    between atoms: S_4  and  O_7
REMARK    4  A    between atoms: O_7  and  C_8
REMARK    5  A    between atoms: C_8  and  C_9
REMARK    6  A    between atoms: C_11  and  N_12
REMARK    7  A    between atoms: C_22  and  O_23
REMARK    8  A    between atoms: C_24  and  O_25
REMARK    9  A    between atoms: C_26  and  O_27
REMARK   10  A    between atoms: C_26  and  C_28
REMARK   11  A    between atoms: C_28  and  O_29
REMARK   12  A    between atoms: C_28  and  C_30
REMARK                            x       y       z     vdW  Elec       q    Type
REMARK                         _______ _______ _______ _____ _____    ______ ____
ROOT
ATOM      1  C   UNL     1       1.401   5.930  19.596  0.00  0.00    +0.000 C 
ATOM      2  O   UNL     1       1.961   5.447  18.352  0.00  0.00    +0.000 OA
ATOM      3  C   UNL     1       2.684   4.222  18.607  0.00  0.00    +0.000 C 
ATOM      4  C   UNL     1       2.849   4.083  20.119  0.00  0.00    +0.000 C 
ATOM      5  C   UNL     1       1.618   4.818  20.628  0.00  0.00    +0.000 C 
ENDROOT
BRANCH   3   6
ATOM      6  N   UNL     1       3.930   4.209  17.870  0.00  0.00    +0.000 N 
ATOM      7  C   UNL     1       4.092   3.692  16.606  0.00  0.00    +0.000 A 
ATOM      8  N   UNL     1       5.352   3.696  16.222  0.00  0.00    +0.000 NA
ATOM      9  C   UNL     1       6.024   4.262  17.275  0.00  0.00    +0.000 A 
ATOM     10  C   UNL     1       7.434   4.549  17.445  0.00  0.00    +0.000 A 
ATOM     11  O   UNL     1       8.328   4.258  16.657  0.00  0.00    +0.000 OA
ATOM     12  N   UNL     1       7.693   5.203  18.642  0.00  0.00    +0.000 N 
ATOM     13  C   UNL     1       6.723   5.494  19.584  0.00  0.00    +0.000 A 
ATOM     14  N   UNL     1       5.463   5.193  19.480  0.00  0.00    +0.000 NA
ATOM     15  C   UNL     1       5.166   4.601  18.299  0.00  0.00    +0.000 A 
ATOM     16  H   UNL     1       8.658   5.446  18.804  0.00  0.00    +0.000 HD
ENDBRANCH   3   6
BRANCH   4  17
ATOM     17  O   UNL     1       2.863   2.718  20.542  0.00  0.00    +0.000 OA
ATOM     18  H   UNL     1       2.191   2.251  20.003  0.00  0.00    +0.000 HD
ENDBRANCH   4  17
BRANCH   5  19
ATOM     19  O   UNL     1       0.519   3.886  20.646  0.00  0.00    +0.000 OA
ATOM     20  H   UNL     1       0.014   3.968  19.816  0.00  0.00    +0.000 HD
ENDBRANCH   5  19
BRANCH   1  21
ATOM     21  C   UNL     1       2.052   7.256  20.013  0.00  0.00    +0.000 C 
BRANCH  21  22
ATOM     22  O   UNL     1       1.714   7.588  21.356  0.00  0.00    +0.000 OA
BRANCH  22  23
ATOM     23  S   UNL     1       0.632   8.788  21.569  0.00  0.00    +0.000 S 
ATOM     24  O   UNL     1       1.153   9.749  22.508  0.00  0.00    +0.000 OA
ATOM     25  O   UNL     1      -0.659   8.159  21.798  0.00  0.00    +0.000 OA
BRANCH  23  28
ATOM     26  O   UNL     1      -0.949  11.171  20.743  0.00  0.00    +0.000 OA
ATOM     27  C   UNL     1      -0.253  10.670  19.870  0.00  0.00    +0.000 C 
ATOM     28  N   UNL     1       0.499   9.506  20.093  0.00  0.00    +0.000 N 
ATOM     29  H   UNL     1       0.939   9.016  19.318  0.00  0.00    +0.000 HD
BRANCH  27  30
ATOM     30  C   UNL     1      -0.125  11.262  18.461  0.00  0.00    +0.000 C 
BRANCH  30  31
ATOM     31  O   UNL     1       0.694  12.443  18.424  0.00  0.00    +0.000 OA
ATOM     32  H   UNL     1       0.309  13.098  19.031  0.00  0.00    +0.000 HD
ENDBRANCH  30  31
BRANCH  30  33
ATOM     33  C   UNL     1      -1.539  11.500  17.876  0.00  0.00    +0.000 C 
BRANCH  33  34
ATOM     34  C   UNL     1      -2.362  10.235  17.776  0.00  0.00    +0.000 C 
ATOM     35  C   UNL     1      -3.858  10.308  17.602  0.00  0.00    +0.000 C 
ATOM     36  C   UNL     1      -2.997   9.835  16.465  0.00  0.00    +0.000 C 
ENDBRANCH  33  34
BRANCH  33  37
ATOM     37  O   UNL     1      -2.258  12.445  18.675  0.00  0.00    +0.000 OA
ATOM     38  H   UNL     1      -2.957  12.832  18.123  0.00  0.00    +0.000 HD
ENDBRANCH  33  37
ENDBRANCH  30  33
ENDBRANCH  27  30
ENDBRANCH  23  28
ENDBRANCH  22  23
ENDBRANCH  21  22
ENDBRANCH   1  21
TORSDOF 12
ENDMDL
