MODEL 1
REMARK VINA RESULT:      -8.7      0.000      0.000
REMARK  Name = 
REMARK  9 active torsions:
REMARK  status: ('A' for Active; 'I' for Inactive)
REMARK    1  A    between atoms: C_2  and  C_3
REMARK    2  A    between atoms: C_6  and  C_7
REMARK    3  A    between atoms: C_10  and  C_11
REMARK    4  A    between atoms: N_13  and  C_14
REMARK    5  A    between atoms: C_14  and  C_15
REMARK    6  A    between atoms: C_18  and  C_19
REMARK    7  A    between atoms: N_25  and  C_26
REMARK    8  A    between atoms: C_26  and  C_27
REMARK    9  A    between atoms: C_27  and  C_28
REMARK                            x       y       z     vdW  Elec       q    Type
REMARK                         _______ _______ _______ _____ _____    ______ ____
ROOT
ATOM      1  C   UNL     1      -2.481  10.787  17.151  0.00  0.00    +0.000 A 
ATOM      2  C   UNL     1      -1.324  10.249  17.562  0.00  0.00    +0.000 A 
ATOM      3  N   UNL     1      -0.895  10.522  18.843  0.00  0.00    +0.000 N 
ATOM      4  C   UNL     1       0.173  10.068  19.602  0.00  0.00    +0.000 A 
ATOM      5  C   UNL     1       0.027  10.768  20.798  0.00  0.00    +0.000 A 
ATOM      6  N   UNL     1      -1.077  11.586  20.804  0.00  0.00    +0.000 NA
ATOM      7  C   UNL     1      -1.608  11.405  19.619  0.00  0.00    +0.000 A 
ATOM      8  C   UNL     1      -2.841  11.986  19.099  0.00  0.00    +0.000 A 
ATOM      9  N   UNL     1      -3.561  12.888  19.856  0.00  0.00    +0.000 N 
ATOM     10  N   UNL     1      -3.264  11.638  17.906  0.00  0.00    +0.000 NA
ATOM     11  H   UNL     1      -3.154  13.092  20.767  0.00  0.00    +0.000 HD
ENDROOT
BRANCH   4  12
ATOM     12  C   UNL     1       1.186   9.079  19.212  0.00  0.00    +0.000 A 
ATOM     13  C   UNL     1       1.947   9.196  18.042  0.00  0.00    +0.000 A 
ATOM     14  C   UNL     1       2.907   8.236  17.706  0.00  0.00    +0.000 A 
ATOM     15  C   UNL     1       3.077   7.097  18.502  0.00  0.00    +0.000 A 
ATOM     16  C   UNL     1       2.295   6.927  19.657  0.00  0.00    +0.000 A 
ATOM     17  C   UNL     1       2.355   5.711  20.541  0.00  0.00    +0.000 C 
ATOM     18  C   UNL     1       1.378   7.938  20.006  0.00  0.00    +0.000 A 
BRANCH  15  19
ATOM     19  C   UNL     1       4.107   6.108  18.101  0.00  0.00    +0.000 C 
ATOM     20  O   UNL     1       4.274   5.093  18.772  0.00  0.00    +0.000 OA
ATOM     21  N   UNL     1       4.813   6.420  16.953  0.00  0.00    +0.000 N 
ATOM     22  H   UNL     1       4.562   7.246  16.425  0.00  0.00    +0.000 HD
BRANCH  21  23
ATOM     23  C   UNL     1       5.748   5.495  16.363  0.00  0.00    +0.000 C 
ATOM     24  C   UNL     1       7.118   5.485  16.996  0.00  0.00    +0.000 C 
ATOM     25  C   UNL     1       5.204   4.184  15.839  0.00  0.00    +0.000 C 
ATOM     26  C   UNL     1       5.672   5.230  14.874  0.00  0.00    +0.000 C 
ENDBRANCH  21  23
ENDBRANCH  15  19
ENDBRANCH   4  12
BRANCH   1  28
ATOM     27  C   UNL     1      -3.327  10.148  14.533  0.00  0.00    +0.000 C 
ATOM     28  C   UNL     1      -2.937  10.444  15.742  0.00  0.00    +0.000 C 
ENDBRANCH   1  28
BRANCH   9  29
ATOM     29  C   UNL     1      -4.992  13.090  19.716  0.00  0.00    +0.000 C 
BRANCH  29  30
ATOM     30  C   UNL     1      -5.749  12.154  20.643  0.00  0.00    +0.000 C 
BRANCH  30  31
ATOM     31  C   UNL     1      -6.710  11.275  19.874  0.00  0.00    +0.000 C 
ATOM     32  F   UNL     1      -6.132  10.662  18.821  0.00  0.00    +0.000 F 
ATOM     33  F   UNL     1      -7.229  10.316  20.673  0.00  0.00    +0.000 F 
ATOM     34  F   UNL     1      -7.744  12.005  19.399  0.00  0.00    +0.000 F 
ENDBRANCH  30  31
ENDBRANCH  29  30
ENDBRANCH   9  29
TORSDOF 7
ENDMDL
MODEL 2
REMARK VINA RESULT:      -8.6      1.547      1.727
REMARK  Name = 
REMARK  9 active torsions:
REMARK  status: ('A' for Active; 'I' for Inactive)
REMARK    1  A    between atoms: C_2  and  C_3
REMARK    2  A    between atoms: C_6  and  C_7
REMARK    3  A    between atoms: C_10  and  C_11
REMARK    4  A    between atoms: N_13  and  C_14
REMARK    5  A    between atoms: C_14  and  C_15
REMARK    6  A    between atoms: C_18  and  C_19
REMARK    7  A    between atoms: N_25  and  C_26
REMARK    8  A    between atoms: C_26  and  C_27
REMARK    9  A    between atoms: C_27  and  C_28
REMARK                            x       y       z     vdW  Elec       q    Type
REMARK                         _______ _______ _______ _____ _____    ______ ____
ROOT
ATOM      1  C   UNL     1      -2.111  10.683  17.339  0.00  0.00    +0.000 A 
ATOM      2  C   UNL     1      -0.971  10.067  17.684  0.00  0.00    +0.000 A 
ATOM      3  N   UNL     1      -0.436  10.330  18.926  0.00  0.00    +0.000 N 
ATOM      4  C   UNL     1       0.644   9.811  19.622  0.00  0.00    +0.000 A 
ATOM      5  C   UNL     1       0.633  10.542  20.808  0.00  0.00    +0.000 A 
ATOM      6  N   UNL     1      -0.404  11.440  20.870  0.00  0.00    +0.000 NA
ATOM      7  C   UNL     1      -1.027  11.278  19.728  0.00  0.00    +0.000 A 
ATOM      8  C   UNL     1      -2.247  11.941  19.278  0.00  0.00    +0.000 A 
ATOM      9  N   UNL     1      -2.844  12.908  20.060  0.00  0.00    +0.000 N 
ATOM     10  N   UNL     1      -2.775  11.605  18.124  0.00  0.00    +0.000 NA
ATOM     11  H   UNL     1      -2.361  13.098  20.937  0.00  0.00    +0.000 HD
ENDROOT
BRANCH   4  12
ATOM     12  C   UNL     1       1.552   8.741  19.187  0.00  0.00    +0.000 A 
ATOM     13  C   UNL     1       2.269   8.798  17.986  0.00  0.00    +0.000 A 
ATOM     14  C   UNL     1       3.128   7.762  17.608  0.00  0.00    +0.000 A 
ATOM     15  C   UNL     1       3.237   6.610  18.395  0.00  0.00    +0.000 A 
ATOM     16  C   UNL     1       2.493   6.501  19.583  0.00  0.00    +0.000 A 
ATOM     17  C   UNL     1       2.489   5.281  20.463  0.00  0.00    +0.000 C 
ATOM     18  C   UNL     1       1.682   7.585  19.972  0.00  0.00    +0.000 A 
BRANCH  15  19
ATOM     19  C   UNL     1       4.160   5.538  17.949  0.00  0.00    +0.000 C 
ATOM     20  O   UNL     1       3.886   4.362  18.173  0.00  0.00    +0.000 OA
ATOM     21  N   UNL     1       5.293   5.972  17.283  0.00  0.00    +0.000 N 
ATOM     22  H   UNL     1       5.404   6.958  17.084  0.00  0.00    +0.000 HD
BRANCH  21  23
ATOM     23  C   UNL     1       6.213   5.047  16.672  0.00  0.00    +0.000 C 
ATOM     24  C   UNL     1       7.338   4.584  17.566  0.00  0.00    +0.000 C 
ATOM     25  C   UNL     1       5.655   4.058  15.672  0.00  0.00    +0.000 C 
ATOM     26  C   UNL     1       6.517   5.187  15.196  0.00  0.00    +0.000 C 
ENDBRANCH  21  23
ENDBRANCH  15  19
ENDBRANCH   4  12
BRANCH   1  28
ATOM     27  C   UNL     1      -3.181  10.062  14.800  0.00  0.00    +0.000 C 
ATOM     28  C   UNL     1      -2.687  10.349  15.972  0.00  0.00    +0.000 C 
ENDBRANCH   1  28
BRANCH   9  29
ATOM     29  C   UNL     1      -4.262  13.216  20.013  0.00  0.00    +0.000 C 
BRANCH  29  30
ATOM     30  C   UNL     1      -5.014  12.399  21.051  0.00  0.00    +0.000 C 
BRANCH  30  31
ATOM     31  C   UNL     1      -4.802  12.949  22.444  0.00  0.00    +0.000 C 
ATOM     32  F   UNL     1      -3.750  12.390  23.076  0.00  0.00    +0.000 F 
ATOM     33  F   UNL     1      -4.597  14.285  22.408  0.00  0.00    +0.000 F 
ATOM     34  F   UNL     1      -5.895  12.732  23.210  0.00  0.00    +0.000 F 
ENDBRANCH  30  31
ENDBRANCH  29  30
ENDBRANCH   9  29
TORSDOF 7
ENDMDL
MODEL 3
REMARK VINA RESULT:      -8.3      1.305      1.665
REMARK  Name = 
REMARK  9 active torsions:
REMARK  status: ('A' for Active; 'I' for Inactive)
REMARK    1  A    between atoms: C_2  and  C_3
REMARK    2  A    between atoms: C_6  and  C_7
REMARK    3  A    between atoms: C_10  and  C_11
REMARK    4  A    between atoms: N_13  and  C_14
REMARK    5  A    between atoms: C_14  and  C_15
REMARK    6  A    between atoms: C_18  and  C_19
REMARK    7  A    between atoms: N_25  and  C_26
REMARK    8  A    between atoms: C_26  and  C_27
REMARK    9  A    between atoms: C_27  and  C_28
REMARK                            x       y       z     vdW  Elec       q    Type
REMARK                         _______ _______ _______ _____ _____    ______ ____
ROOT
ATOM      1  C   UNL     1      -2.432  11.058  17.724  0.00  0.00    +0.000 A 
ATOM      2  C   UNL     1      -1.304  10.423  18.071  0.00  0.00    +0.000 A 
ATOM      3  N   UNL     1      -0.750  10.700  19.302  0.00  0.00    +0.000 N 
ATOM      4  C   UNL     1       0.326  10.172  19.999  0.00  0.00    +0.000 A 
ATOM      5  C   UNL     1       0.344  10.928  21.168  0.00  0.00    +0.000 A 
ATOM      6  N   UNL     1      -0.670  11.853  21.220  0.00  0.00    +0.000 NA
ATOM      7  C   UNL     1      -1.309  11.680  20.088  0.00  0.00    +0.000 A 
ATOM      8  C   UNL     1      -2.518  12.362  19.635  0.00  0.00    +0.000 A 
ATOM      9  N   UNL     1      -3.083  13.361  20.402  0.00  0.00    +0.000 N 
ATOM     10  N   UNL     1      -3.066  12.013  18.495  0.00  0.00    +0.000 NA
ATOM     11  H   UNL     1      -2.586  13.558  21.269  0.00  0.00    +0.000 HD
ENDROOT
BRANCH   4  12
ATOM     12  C   UNL     1       1.203   9.071  19.579  0.00  0.00    +0.000 A 
ATOM     13  C   UNL     1       1.956   9.110  18.399  0.00  0.00    +0.000 A 
ATOM     14  C   UNL     1       2.785   8.044  18.035  0.00  0.00    +0.000 A 
ATOM     15  C   UNL     1       2.825   6.881  18.814  0.00  0.00    +0.000 A 
ATOM     16  C   UNL     1       2.044   6.792  19.979  0.00  0.00    +0.000 A 
ATOM     17  C   UNL     1       1.966   5.565  20.845  0.00  0.00    +0.000 C 
ATOM     18  C   UNL     1       1.265   7.903  20.355  0.00  0.00    +0.000 A 
BRANCH  15  19
ATOM     19  C   UNL     1       3.718   5.779  18.383  0.00  0.00    +0.000 C 
ATOM     20  O   UNL     1       4.923   5.843  18.614  0.00  0.00    +0.000 OA
ATOM     21  N   UNL     1       3.092   4.725  17.743  0.00  0.00    +0.000 N 
ATOM     22  H   UNL     1       2.084   4.725  17.656  0.00  0.00    +0.000 HD
BRANCH  21  23
ATOM     23  C   UNL     1       3.804   3.522  17.389  0.00  0.00    +0.000 C 
ATOM     24  C   UNL     1       4.821   3.687  16.285  0.00  0.00    +0.000 C 
ATOM     25  C   UNL     1       4.117   2.539  18.495  0.00  0.00    +0.000 C 
ATOM     26  C   UNL     1       3.081   2.195  17.469  0.00  0.00    +0.000 C 
ENDBRANCH  21  23
ENDBRANCH  15  19
ENDBRANCH   4  12
BRANCH   1  28
ATOM     27  C   UNL     1      -3.543  10.408  15.210  0.00  0.00    +0.000 C 
ATOM     28  C   UNL     1      -3.030  10.708  16.371  0.00  0.00    +0.000 C 
ENDBRANCH   1  28
BRANCH   9  29
ATOM     29  C   UNL     1      -4.494  13.701  20.362  0.00  0.00    +0.000 C 
BRANCH  29  30
ATOM     30  C   UNL     1      -5.235  13.012  21.496  0.00  0.00    +0.000 C 
BRANCH  30  31
ATOM     31  C   UNL     1      -6.534  12.404  21.016  0.00  0.00    +0.000 C 
ATOM     32  F   UNL     1      -7.169  13.170  20.106  0.00  0.00    +0.000 F 
ATOM     33  F   UNL     1      -6.320  11.193  20.455  0.00  0.00    +0.000 F 
ATOM     34  F   UNL     1      -7.382  12.221  22.053  0.00  0.00    +0.000 F 
ENDBRANCH  30  31
ENDBRANCH  29  30
ENDBRANCH   9  29
TORSDOF 7
ENDMDL
MODEL 4
REMARK VINA RESULT:      -8.2      1.149      1.504
REMARK  Name = 
REMARK  9 active torsions:
REMARK  status: ('A' for Active; 'I' for Inactive)
REMARK    1  A    between atoms: C_2  and  C_3
REMARK    2  A    between atoms: C_6  and  C_7
REMARK    3  A    between atoms: C_10  and  C_11
REMARK    4  A    between atoms: N_13  and  C_14
REMARK    5  A    between atoms: C_14  and  C_15
REMARK    6  A    between atoms: C_18  and  C_19
REMARK    7  A    between atoms: N_25  and  C_26
REMARK    8  A    between atoms: C_26  and  C_27
REMARK    9  A    between atoms: C_27  and  C_28
REMARK                            x       y       z     vdW  Elec       q    Type
REMARK                         _______ _______ _______ _____ _____    ______ ____
ROOT
ATOM      1  C   UNL     1      -2.541  10.977  17.349  0.00  0.00    +0.000 A 
ATOM      2  C   UNL     1      -1.416  10.375  17.764  0.00  0.00    +0.000 A 
ATOM      3  N   UNL     1      -0.961  10.646  19.036  0.00  0.00    +0.000 N 
ATOM      4  C   UNL     1       0.082  10.142  19.797  0.00  0.00    +0.000 A 
ATOM      5  C   UNL     1      -0.010  10.874  20.979  0.00  0.00    +0.000 A 
ATOM      6  N   UNL     1      -1.060  11.760  20.975  0.00  0.00    +0.000 NA
ATOM      7  C   UNL     1      -1.611  11.588  19.798  0.00  0.00    +0.000 A 
ATOM      8  C   UNL     1      -2.809  12.235  19.273  0.00  0.00    +0.000 A 
ATOM      9  N   UNL     1      -3.464  13.197  20.016  0.00  0.00    +0.000 N 
ATOM     10  N   UNL     1      -3.262  11.891  18.091  0.00  0.00    +0.000 NA
ATOM     11  H   UNL     1      -3.037  13.394  20.920  0.00  0.00    +0.000 HD
ENDROOT
BRANCH   4  12
ATOM     12  C   UNL     1       1.027   9.082  19.421  0.00  0.00    +0.000 A 
ATOM     13  C   UNL     1       1.814   9.145  18.264  0.00  0.00    +0.000 A 
ATOM     14  C   UNL     1       2.707   8.119  17.941  0.00  0.00    +0.000 A 
ATOM     15  C   UNL     1       2.782   6.970  18.737  0.00  0.00    +0.000 A 
ATOM     16  C   UNL     1       1.970   6.855  19.879  0.00  0.00    +0.000 A 
ATOM     17  C   UNL     1       1.929   5.638  20.761  0.00  0.00    +0.000 C 
ATOM     18  C   UNL     1       1.124   7.930  20.215  0.00  0.00    +0.000 A 
BRANCH  15  19
ATOM     19  C   UNL     1       3.744   5.910  18.351  0.00  0.00    +0.000 C 
ATOM     20  O   UNL     1       4.946   6.075  18.543  0.00  0.00    +0.000 OA
ATOM     21  N   UNL     1       3.182   4.775  17.793  0.00  0.00    +0.000 N 
ATOM     22  H   UNL     1       2.175   4.697  17.735  0.00  0.00    +0.000 HD
BRANCH  21  23
ATOM     23  C   UNL     1       3.972   3.607  17.494  0.00  0.00    +0.000 C 
ATOM     24  C   UNL     1       4.877   3.742  16.293  0.00  0.00    +0.000 C 
ATOM     25  C   UNL     1       4.464   2.774  18.657  0.00  0.00    +0.000 C 
ATOM     26  C   UNL     1       3.385   2.239  17.766  0.00  0.00    +0.000 C 
ENDBRANCH  21  23
ENDBRANCH  15  19
ENDBRANCH   4  12
BRANCH   1  28
ATOM     27  C   UNL     1      -3.447  10.338  14.751  0.00  0.00    +0.000 C 
ATOM     28  C   UNL     1      -3.028  10.634  15.951  0.00  0.00    +0.000 C 
ENDBRANCH   1  28
BRANCH   9  29
ATOM     29  C   UNL     1      -4.880  13.487  19.882  0.00  0.00    +0.000 C 
BRANCH  29  30
ATOM     30  C   UNL     1      -5.707  12.276  20.284  0.00  0.00    +0.000 C 
BRANCH  30  31
ATOM     31  C   UNL     1      -6.772  11.970  19.256  0.00  0.00    +0.000 C 
ATOM     32  F   UNL     1      -7.067  10.656  19.181  0.00  0.00    +0.000 F 
ATOM     33  F   UNL     1      -7.916  12.632  19.535  0.00  0.00    +0.000 F 
ATOM     34  F   UNL     1      -6.371  12.364  18.026  0.00  0.00    +0.000 F 
ENDBRANCH  30  31
ENDBRANCH  29  30
ENDBRANCH   9  29
TORSDOF 7
ENDMDL
MODEL 5
REMARK VINA RESULT:      -8.2      0.621      1.063
REMARK  Name = 
REMARK  9 active torsions:
REMARK  status: ('A' for Active; 'I' for Inactive)
REMARK    1  A    between atoms: C_2  and  C_3
REMARK    2  A    between atoms: C_6  and  C_7
REMARK    3  A    between atoms: C_10  and  C_11
REMARK    4  A    between atoms: N_13  and  C_14
REMARK    5  A    between atoms: C_14  and  C_15
REMARK    6  A    between atoms: C_18  and  C_19
REMARK    7  A    between atoms: N_25  and  C_26
REMARK    8  A    between atoms: C_26  and  C_27
REMARK    9  A    between atoms: C_27  and  C_28
REMARK                            x       y       z     vdW  Elec       q    Type
REMARK                         _______ _______ _______ _____ _____    ______ ____
ROOT
ATOM      1  C   UNL     1      -2.281  10.740  17.322  0.00  0.00    +0.000 A 
ATOM      2  C   UNL     1      -1.146  10.136  17.704  0.00  0.00    +0.000 A 
ATOM      3  N   UNL     1      -0.665  10.390  18.970  0.00  0.00    +0.000 N 
ATOM      4  C   UNL     1       0.395   9.878  19.702  0.00  0.00    +0.000 A 
ATOM      5  C   UNL     1       0.325  10.592  20.896  0.00  0.00    +0.000 A 
ATOM      6  N   UNL     1      -0.727  11.475  20.927  0.00  0.00    +0.000 NA
ATOM      7  C   UNL     1      -1.302  11.319  19.760  0.00  0.00    +0.000 A 
ATOM      8  C   UNL     1      -2.512  11.970  19.270  0.00  0.00    +0.000 A 
ATOM      9  N   UNL     1      -3.155  12.918  20.040  0.00  0.00    +0.000 N 
ATOM     10  N   UNL     1      -2.989  11.642  18.092  0.00  0.00    +0.000 NA
ATOM     11  H   UNL     1      -2.710  13.103  20.938  0.00  0.00    +0.000 HD
ENDROOT
BRANCH   4  12
ATOM     12  C   UNL     1       1.335   8.827  19.291  0.00  0.00    +0.000 A 
ATOM     13  C   UNL     1       2.052   8.881  18.089  0.00  0.00    +0.000 A 
ATOM     14  C   UNL     1       2.942   7.863  17.733  0.00  0.00    +0.000 A 
ATOM     15  C   UNL     1       3.084   6.732  18.544  0.00  0.00    +0.000 A 
ATOM     16  C   UNL     1       2.343   6.626  19.734  0.00  0.00    +0.000 A 
ATOM     17  C   UNL     1       2.374   5.425  20.638  0.00  0.00    +0.000 C 
ATOM     18  C   UNL     1       1.499   7.692  20.099  0.00  0.00    +0.000 A 
BRANCH  15  19
ATOM     19  C   UNL     1       4.040   5.680  18.121  0.00  0.00    +0.000 C 
ATOM     20  O   UNL     1       3.924   4.537  18.556  0.00  0.00    +0.000 OA
ATOM     21  N   UNL     1       5.014   6.090  17.228  0.00  0.00    +0.000 N 
ATOM     22  H   UNL     1       4.994   7.035  16.870  0.00  0.00    +0.000 HD
BRANCH  21  23
ATOM     23  C   UNL     1       5.929   5.154  16.623  0.00  0.00    +0.000 C 
ATOM     24  C   UNL     1       5.299   4.190  15.647  0.00  0.00    +0.000 C 
ATOM     25  C   UNL     1       7.334   5.633  16.333  0.00  0.00    +0.000 C 
ATOM     26  C   UNL     1       7.100   4.647  17.436  0.00  0.00    +0.000 C 
ENDBRANCH  21  23
ENDBRANCH  15  19
ENDBRANCH   4  12
BRANCH   1  28
ATOM     27  C   UNL     1      -3.239  10.138  14.734  0.00  0.00    +0.000 C 
ATOM     28  C   UNL     1      -2.797  10.417  15.929  0.00  0.00    +0.000 C 
ENDBRANCH   1  28
BRANCH   9  29
ATOM     29  C   UNL     1      -4.574  13.206  19.940  0.00  0.00    +0.000 C 
BRANCH  29  30
ATOM     30  C   UNL     1      -5.336  12.487  21.041  0.00  0.00    +0.000 C 
BRANCH  30  31
ATOM     31  C   UNL     1      -6.777  12.246  20.648  0.00  0.00    +0.000 C 
ATOM     32  F   UNL     1      -6.932  12.036  19.325  0.00  0.00    +0.000 F 
ATOM     33  F   UNL     1      -7.279  11.172  21.295  0.00  0.00    +0.000 F 
ATOM     34  F   UNL     1      -7.543  13.309  20.980  0.00  0.00    +0.000 F 
ENDBRANCH  30  31
ENDBRANCH  29  30
ENDBRANCH   9  29
TORSDOF 7
ENDMDL
MODEL 6
REMARK VINA RESULT:      -8.2      1.746      2.115
REMARK  Name = 
REMARK  9 active torsions:
REMARK  status: ('A' for Active; 'I' for Inactive)
REMARK    1  A    between atoms: C_2  and  C_3
REMARK    2  A    between atoms: C_6  and  C_7
REMARK    3  A    between atoms: C_10  and  C_11
REMARK    4  A    between atoms: N_13  and  C_14
REMARK    5  A    between atoms: C_14  and  C_15
REMARK    6  A    between atoms: C_18  and  C_19
REMARK    7  A    between atoms: N_25  and  C_26
REMARK    8  A    between atoms: C_26  and  C_27
REMARK    9  A    between atoms: C_27  and  C_28
REMARK                            x       y       z     vdW  Elec       q    Type
REMARK                         _______ _______ _______ _____ _____    ______ ____
ROOT
ATOM      1  C   UNL     1      -2.530  10.943  17.637  0.00  0.00    +0.000 A 
ATOM      2  C   UNL     1      -1.389  10.335  17.995  0.00  0.00    +0.000 A 
ATOM      3  N   UNL     1      -0.847  10.637  19.225  0.00  0.00    +0.000 N 
ATOM      4  C   UNL     1       0.236  10.139  19.932  0.00  0.00    +0.000 A 
ATOM      5  C   UNL     1       0.234  10.908  21.093  0.00  0.00    +0.000 A 
ATOM      6  N   UNL     1      -0.801  11.811  21.131  0.00  0.00    +0.000 NA
ATOM      7  C   UNL     1      -1.431  11.613  19.998  0.00  0.00    +0.000 A 
ATOM      8  C   UNL     1      -2.651  12.264  19.534  0.00  0.00    +0.000 A 
ATOM      9  N   UNL     1      -3.241  13.259  20.287  0.00  0.00    +0.000 N 
ATOM     10  N   UNL     1      -3.187  11.892  18.395  0.00  0.00    +0.000 NA
ATOM     11  H   UNL     1      -2.753  13.476  21.154  0.00  0.00    +0.000 HD
ENDROOT
BRANCH   4  12
ATOM     12  C   UNL     1       1.139   9.053  19.528  0.00  0.00    +0.000 A 
ATOM     13  C   UNL     1       1.871   9.081  18.335  0.00  0.00    +0.000 A 
ATOM     14  C   UNL     1       2.724   8.029  17.986  0.00  0.00    +0.000 A 
ATOM     15  C   UNL     1       2.812   6.891  18.795  0.00  0.00    +0.000 A 
ATOM     16  C   UNL     1       2.053   6.811  19.976  0.00  0.00    +0.000 A 
ATOM     17  C   UNL     1       2.027   5.608  20.878  0.00  0.00    +0.000 C 
ATOM     18  C   UNL     1       1.248   7.910  20.335  0.00  0.00    +0.000 A 
BRANCH  15  19
ATOM     19  C   UNL     1       3.730   5.803  18.380  0.00  0.00    +0.000 C 
ATOM     20  O   UNL     1       4.940   5.924  18.555  0.00  0.00    +0.000 OA
ATOM     21  N   UNL     1       3.121   4.696  17.818  0.00  0.00    +0.000 N 
ATOM     22  H   UNL     1       2.111   4.653  17.775  0.00  0.00    +0.000 HD
BRANCH  21  23
ATOM     23  C   UNL     1       3.865   3.505  17.492  0.00  0.00    +0.000 C 
ATOM     24  C   UNL     1       4.902   3.681  16.408  0.00  0.00    +0.000 C 
ATOM     25  C   UNL     1       4.175   2.540  18.614  0.00  0.00    +0.000 C 
ATOM     26  C   UNL     1       3.168   2.163  17.570  0.00  0.00    +0.000 C 
ENDBRANCH  21  23
ENDBRANCH  15  19
ENDBRANCH   4  12
BRANCH   1  28
ATOM     27  C   UNL     1      -3.616  10.242  15.126  0.00  0.00    +0.000 C 
ATOM     28  C   UNL     1      -3.114  10.566  16.285  0.00  0.00    +0.000 C 
ENDBRANCH   1  28
BRANCH   9  29
ATOM     29  C   UNL     1      -4.659  13.568  20.238  0.00  0.00    +0.000 C 
BRANCH  29  30
ATOM     30  C   UNL     1      -5.431  12.656  21.177  0.00  0.00    +0.000 C 
BRANCH  30  31
ATOM     31  C   UNL     1      -5.880  13.395  22.417  0.00  0.00    +0.000 C 
ATOM     32  F   UNL     1      -5.067  14.422  22.741  0.00  0.00    +0.000 F 
ATOM     33  F   UNL     1      -7.126  13.895  22.255  0.00  0.00    +0.000 F 
ATOM     34  F   UNL     1      -5.918  12.559  23.479  0.00  0.00    +0.000 F 
ENDBRANCH  30  31
ENDBRANCH  29  30
ENDBRANCH   9  29
TORSDOF 7
ENDMDL
MODEL 7
REMARK VINA RESULT:      -8.2      1.538      2.213
REMARK  Name = 
REMARK  9 active torsions:
REMARK  status: ('A' for Active; 'I' for Inactive)
REMARK    1  A    between atoms: C_2  and  C_3
REMARK    2  A    between atoms: C_6  and  C_7
REMARK    3  A    between atoms: C_10  and  C_11
REMARK    4  A    between atoms: N_13  and  C_14
REMARK    5  A    between atoms: C_14  and  C_15
REMARK    6  A    between atoms: C_18  and  C_19
REMARK    7  A    between atoms: N_25  and  C_26
REMARK    8  A    between atoms: C_26  and  C_27
REMARK    9  A    between atoms: C_27  and  C_28
REMARK                            x       y       z     vdW  Elec       q    Type
REMARK                         _______ _______ _______ _____ _____    ______ ____
ROOT
ATOM      1  C   UNL     1      -2.429  11.197  18.027  0.00  0.00    +0.000 A 
ATOM      2  C   UNL     1      -1.388  10.478  18.471  0.00  0.00    +0.000 A 
ATOM      3  N   UNL     1      -0.946  10.695  19.758  0.00  0.00    +0.000 N 
ATOM      4  C   UNL     1       0.014  10.081  20.547  0.00  0.00    +0.000 A 
ATOM      5  C   UNL     1      -0.037  10.814  21.730  0.00  0.00    +0.000 A 
ATOM      6  N   UNL     1      -0.986  11.807  21.701  0.00  0.00    +0.000 NA
ATOM      7  C   UNL     1      -1.516  11.698  20.507  0.00  0.00    +0.000 A 
ATOM      8  C   UNL     1      -2.622  12.470  19.950  0.00  0.00    +0.000 A 
ATOM      9  N   UNL     1      -3.195  13.493  20.679  0.00  0.00    +0.000 N 
ATOM     10  N   UNL     1      -3.072  12.180  18.752  0.00  0.00    +0.000 NA
ATOM     11  H   UNL     1      -2.777  13.640  21.597  0.00  0.00    +0.000 HD
ENDROOT
BRANCH   4  12
ATOM     12  C   UNL     1       0.853   8.929  20.193  0.00  0.00    +0.000 A 
ATOM     13  C   UNL     1       0.998   7.812  21.026  0.00  0.00    +0.000 A 
ATOM     14  C   UNL     1       1.802   6.732  20.652  0.00  0.00    +0.000 A 
ATOM     15  C   UNL     1       2.537   6.775  19.461  0.00  0.00    +0.000 A 
ATOM     16  C   UNL     1       2.451   7.903  18.626  0.00  0.00    +0.000 A 
ATOM     17  C   UNL     1       3.248   8.074  17.362  0.00  0.00    +0.000 C 
ATOM     18  C   UNL     1       1.586   8.951  18.996  0.00  0.00    +0.000 A 
BRANCH  15  19
ATOM     19  C   UNL     1       3.377   5.604  19.111  0.00  0.00    +0.000 C 
ATOM     20  O   UNL     1       4.495   5.484  19.605  0.00  0.00    +0.000 OA
ATOM     21  N   UNL     1       2.802   4.705  18.231  0.00  0.00    +0.000 N 
ATOM     22  H   UNL     1       1.848   4.849  17.926  0.00  0.00    +0.000 HD
BRANCH  21  23
ATOM     23  C   UNL     1       3.437   3.453  17.903  0.00  0.00    +0.000 C 
ATOM     24  C   UNL     1       4.622   3.565  16.974  0.00  0.00    +0.000 C 
ATOM     25  C   UNL     1       3.480   2.385  18.974  0.00  0.00    +0.000 C 
ATOM     26  C   UNL     1       2.583   2.209  17.787  0.00  0.00    +0.000 C 
ENDBRANCH  21  23
ENDBRANCH  15  19
ENDBRANCH   4  12
BRANCH   1  28
ATOM     27  C   UNL     1      -3.318  10.667  15.399  0.00  0.00    +0.000 C 
ATOM     28  C   UNL     1      -2.907  10.912  16.612  0.00  0.00    +0.000 C 
ENDBRANCH   1  28
BRANCH   9  29
ATOM     29  C   UNL     1      -4.567  13.932  20.505  0.00  0.00    +0.000 C 
BRANCH  29  30
ATOM     30  C   UNL     1      -5.498  13.115  21.386  0.00  0.00    +0.000 C 
BRANCH  30  31
ATOM     31  C   UNL     1      -6.609  12.483  20.579  0.00  0.00    +0.000 C 
ATOM     32  F   UNL     1      -6.939  11.250  21.014  0.00  0.00    +0.000 F 
ATOM     33  F   UNL     1      -7.725  13.244  20.617  0.00  0.00    +0.000 F 
ATOM     34  F   UNL     1      -6.246  12.368  19.281  0.00  0.00    +0.000 F 
ENDBRANCH  30  31
ENDBRANCH  29  30
ENDBRANCH   9  29
TORSDOF 7
ENDMDL
MODEL 8
REMARK VINA RESULT:      -8.2      2.130      2.468
REMARK  Name = 
REMARK  9 active torsions:
REMARK  status: ('A' for Active; 'I' for Inactive)
REMARK    1  A    between atoms: C_2  and  C_3
REMARK    2  A    between atoms: C_6  and  C_7
REMARK    3  A    between atoms: C_10  and  C_11
REMARK    4  A    between atoms: N_13  and  C_14
REMARK    5  A    between atoms: C_14  and  C_15
REMARK    6  A    between atoms: C_18  and  C_19
REMARK    7  A    between atoms: N_25  and  C_26
REMARK    8  A    between atoms: C_26  and  C_27
REMARK    9  A    between atoms: C_27  and  C_28
REMARK                            x       y       z     vdW  Elec       q    Type
REMARK                         _______ _______ _______ _____ _____    ______ ____
ROOT
ATOM      1  C   UNL     1      -2.583  11.508  18.701  0.00  0.00    +0.000 A 
ATOM      2  C   UNL     1      -1.443  10.809  18.805  0.00  0.00    +0.000 A 
ATOM      3  N   UNL     1      -0.688  10.958  19.948  0.00  0.00    +0.000 N 
ATOM      4  C   UNL     1       0.460  10.336  20.414  0.00  0.00    +0.000 A 
ATOM      5  C   UNL     1       0.699  10.983  21.623  0.00  0.00    +0.000 A 
ATOM      6  N   UNL     1      -0.251  11.931  21.916  0.00  0.00    +0.000 NA
ATOM      7  C   UNL     1      -1.070  11.880  20.893  0.00  0.00    +0.000 A 
ATOM      8  C   UNL     1      -2.303  12.637  20.702  0.00  0.00    +0.000 A 
ATOM      9  N   UNL     1      -2.693  13.580  21.631  0.00  0.00    +0.000 N 
ATOM     10  N   UNL     1      -3.041  12.409  19.641  0.00  0.00    +0.000 NA
ATOM     11  H   UNL     1      -2.056  13.683  22.419  0.00  0.00    +0.000 HD
ENDROOT
BRANCH   4  12
ATOM     12  C   UNL     1       1.209   9.250  19.766  0.00  0.00    +0.000 A 
ATOM     13  C   UNL     1       1.727   9.356  18.470  0.00  0.00    +0.000 A 
ATOM     14  C   UNL     1       2.439   8.302  17.889  0.00  0.00    +0.000 A 
ATOM     15  C   UNL     1       2.590   7.089  18.570  0.00  0.00    +0.000 A 
ATOM     16  C   UNL     1       2.040   6.935  19.855  0.00  0.00    +0.000 A 
ATOM     17  C   UNL     1       2.091   5.654  20.641  0.00  0.00    +0.000 C 
ATOM     18  C   UNL     1       1.380   8.032  20.442  0.00  0.00    +0.000 A 
BRANCH  15  19
ATOM     19  C   UNL     1       3.352   6.002  17.909  0.00  0.00    +0.000 C 
ATOM     20  O   UNL     1       2.767   4.997  17.514  0.00  0.00    +0.000 OA
ATOM     21  N   UNL     1       4.711   6.226  17.779  0.00  0.00    +0.000 N 
ATOM     22  H   UNL     1       5.098   7.114  18.073  0.00  0.00    +0.000 HD
BRANCH  21  23
ATOM     23  C   UNL     1       5.560   5.327  17.039  0.00  0.00    +0.000 C 
ATOM     24  C   UNL     1       5.692   3.944  17.632  0.00  0.00    +0.000 C 
ATOM     25  C   UNL     1       5.572   5.451  15.532  0.00  0.00    +0.000 C 
ATOM     26  C   UNL     1       6.768   5.888  16.320  0.00  0.00    +0.000 C 
ENDBRANCH  21  23
ENDBRANCH  15  19
ENDBRANCH   4  12
BRANCH   1  28
ATOM     27  C   UNL     1      -4.110  11.121  16.356  0.00  0.00    +0.000 C 
ATOM     28  C   UNL     1      -3.404  11.299  17.439  0.00  0.00    +0.000 C 
ENDBRANCH   1  28
BRANCH   9  29
ATOM     29  C   UNL     1      -4.076  13.966  21.850  0.00  0.00    +0.000 C 
BRANCH  29  30
ATOM     30  C   UNL     1      -4.843  12.830  22.507  0.00  0.00    +0.000 C 
BRANCH  30  31
ATOM     31  C   UNL     1      -4.676  12.849  24.010  0.00  0.00    +0.000 C 
ATOM     32  F   UNL     1      -4.256  14.042  24.477  0.00  0.00    +0.000 F 
ATOM     33  F   UNL     1      -5.842  12.554  24.627  0.00  0.00    +0.000 F 
ATOM     34  F   UNL     1      -3.771  11.922  24.398  0.00  0.00    +0.000 F 
ENDBRANCH  30  31
ENDBRANCH  29  30
ENDBRANCH   9  29
TORSDOF 7
ENDMDL
MODEL 9
REMARK VINA RESULT:      -8.1      2.240      2.854
REMARK  Name = 
REMARK  9 active torsions:
REMARK  status: ('A' for Active; 'I' for Inactive)
REMARK    1  A    between atoms: C_2  and  C_3
REMARK    2  A    between atoms: C_6  and  C_7
REMARK    3  A    between atoms: C_10  and  C_11
REMARK    4  A    between atoms: N_13  and  C_14
REMARK    5  A    between atoms: C_14  and  C_15
REMARK    6  A    between atoms: C_18  and  C_19
REMARK    7  A    between atoms: N_25  and  C_26
REMARK    8  A    between atoms: C_26  and  C_27
REMARK    9  A    between atoms: C_27  and  C_28
REMARK                            x       y       z     vdW  Elec       q    Type
REMARK                         _______ _______ _______ _____ _____    ______ ____
ROOT
ATOM      1  C   UNL     1      -2.472  11.302  18.436  0.00  0.00    +0.000 A 
ATOM      2  C   UNL     1      -1.422  10.557  18.811  0.00  0.00    +0.000 A 
ATOM      3  N   UNL     1      -0.927  10.721  20.087  0.00  0.00    +0.000 N 
ATOM      4  C   UNL     1       0.056  10.068  20.814  0.00  0.00    +0.000 A 
ATOM      5  C   UNL     1       0.060  10.757  22.024  0.00  0.00    +0.000 A 
ATOM      6  N   UNL     1      -0.878  11.759  22.070  0.00  0.00    +0.000 NA
ATOM      7  C   UNL     1      -1.456  11.701  20.894  0.00  0.00    +0.000 A 
ATOM      8  C   UNL     1      -2.574  12.504  20.412  0.00  0.00    +0.000 A 
ATOM      9  N   UNL     1      -3.106  13.504  21.200  0.00  0.00    +0.000 N 
ATOM     10  N   UNL     1      -3.075  12.264  19.222  0.00  0.00    +0.000 NA
ATOM     11  H   UNL     1      -2.652  13.613  22.105  0.00  0.00    +0.000 HD
ENDROOT
BRANCH   4  12
ATOM     12  C   UNL     1       0.868   8.922  20.383  0.00  0.00    +0.000 A 
ATOM     13  C   UNL     1       1.047   7.781  21.175  0.00  0.00    +0.000 A 
ATOM     14  C   UNL     1       1.824   6.708  20.729  0.00  0.00    +0.000 A 
ATOM     15  C   UNL     1       2.496   6.781  19.504  0.00  0.00    +0.000 A 
ATOM     16  C   UNL     1       2.374   7.933  18.707  0.00  0.00    +0.000 A 
ATOM     17  C   UNL     1       3.106   8.136  17.409  0.00  0.00    +0.000 C 
ATOM     18  C   UNL     1       1.537   8.975  19.151  0.00  0.00    +0.000 A 
BRANCH  15  19
ATOM     19  C   UNL     1       3.308   5.616  19.077  0.00  0.00    +0.000 C 
ATOM     20  O   UNL     1       4.466   5.500  19.471  0.00  0.00    +0.000 OA
ATOM     21  N   UNL     1       2.663   4.717  18.247  0.00  0.00    +0.000 N 
ATOM     22  H   UNL     1       1.686   4.856  18.027  0.00  0.00    +0.000 HD
BRANCH  21  23
ATOM     23  C   UNL     1       3.274   3.470  17.860  0.00  0.00    +0.000 C 
ATOM     24  C   UNL     1       4.425   3.599  16.891  0.00  0.00    +0.000 C 
ATOM     25  C   UNL     1       3.346   2.371  18.898  0.00  0.00    +0.000 C 
ATOM     26  C   UNL     1       2.405   2.236  17.740  0.00  0.00    +0.000 C 
ENDBRANCH  21  23
ENDBRANCH  15  19
ENDBRANCH   4  12
BRANCH   1  28
ATOM     27  C   UNL     1      -3.468  10.881  15.826  0.00  0.00    +0.000 C 
ATOM     28  C   UNL     1      -3.008  11.076  17.032  0.00  0.00    +0.000 C 
ENDBRANCH   1  28
BRANCH   9  29
ATOM     29  C   UNL     1      -4.480  13.963  21.097  0.00  0.00    +0.000 C 
BRANCH  29  30
ATOM     30  C   UNL     1      -5.404  13.038  21.872  0.00  0.00    +0.000 C 
BRANCH  30  31
ATOM     31  C   UNL     1      -5.197  13.177  23.364  0.00  0.00    +0.000 C 
ATOM     32  F   UNL     1      -4.195  12.404  23.830  0.00  0.00    +0.000 F 
ATOM     33  F   UNL     1      -4.915  14.457  23.694  0.00  0.00    +0.000 F 
ATOM     34  F   UNL     1      -6.320  12.828  24.032  0.00  0.00    +0.000 F 
ENDBRANCH  30  31
ENDBRANCH  29  30
ENDBRANCH   9  29
TORSDOF 7
ENDMDL
