MODEL 1
REMARK VINA RESULT:      -7.9      0.000      0.000
REMARK  Name = 
REMARK  7 active torsions:
REMARK  status: ('A' for Active; 'I' for Inactive)
REMARK    1  A    between atoms: C_1  and  S_2
REMARK    2  A    between atoms: S_2  and  N_5
REMARK    3  A    between atoms: C_8  and  N_9
REMARK    4  A    between atoms: C_15  and  N_16
REMARK    5  A    between atoms: N_16  and  C_17
REMARK    6  A    between atoms: C_17  and  C_18
REMARK    7  A    between atoms: C_18  and  C_19
REMARK                            x       y       z     vdW  Elec       q    Type
REMARK                         _______ _______ _______ _____ _____    ______ ____
ROOT
ATOM      1  N   UNL     1       2.536   5.780  18.148  0.00  0.00    +0.000 N 
ATOM      2  C   UNL     1       2.045   6.791  18.965  0.00  0.00    +0.000 A 
ATOM      3  N   UNL     1       1.788   6.542  20.252  0.00  0.00    +0.000 NA
ATOM      4  C   UNL     1       1.383   7.586  21.001  0.00  0.00    +0.000 A 
ATOM      5  C   UNL     1       1.265   8.868  20.525  0.00  0.00    +0.000 A 
ATOM      6 CL   UNL     1       0.800  10.146  21.576  0.00  0.00    +0.000 Cl
ATOM      7  C   UNL     1       1.517   9.041  19.170  0.00  0.00    +0.000 A 
ATOM      8  N   UNL     1       1.877   7.993  18.393  0.00  0.00    +0.000 NA
ATOM      9  H   UNL     1       1.756   5.527  17.549  0.00  0.00    +0.000 HD
ENDROOT
BRANCH   1  13
ATOM     10  N   UNL     1       5.713   4.509  17.346  0.00  0.00    +0.000 NA
ATOM     11  C   UNL     1       5.496   5.508  18.425  0.00  0.00    +0.000 C 
ATOM     12  C   UNL     1       4.505   4.988  19.455  0.00  0.00    +0.000 C 
ATOM     13  C   UNL     1       3.167   4.622  18.803  0.00  0.00    +0.000 C 
ATOM     14  C   UNL     1       3.451   3.539  17.754  0.00  0.00    +0.000 C 
ATOM     15  C   UNL     1       4.467   4.004  16.714  0.00  0.00    +0.000 C 
BRANCH  10  17
ATOM     16  C   UNL     1       6.434   4.133  14.735  0.00  0.00    +0.000 C 
ATOM     17  S   UNL     1       6.972   4.895  16.255  0.00  0.00    +0.000 S 
ATOM     18  O   UNL     1       8.167   4.214  16.693  0.00  0.00    +0.000 OA
ATOM     19  O   UNL     1       6.962   6.333  16.057  0.00  0.00    +0.000 OA
ENDBRANCH  10  17
ENDBRANCH   1  13
BRANCH   7  20
ATOM     20  N   UNL     1       1.355  10.318  18.591  0.00  0.00    +0.000 N 
ATOM     21  H   UNL     1       1.858  10.382  17.709  0.00  0.00    +0.000 HD
BRANCH  20  22
ATOM     22  C   UNL     1      -0.005  10.845  18.580  0.00  0.00    +0.000 C 
BRANCH  22  23
ATOM     23  C   UNL     1      -0.914  10.028  17.650  0.00  0.00    +0.000 C 
BRANCH  23  24
ATOM     24  C   UNL     1      -2.251  10.716  17.501  0.00  0.00    +0.000 A 
ATOM     25  C   UNL     1      -2.858  11.312  18.617  0.00  0.00    +0.000 A 
ATOM     26  C   UNL     1      -4.151  11.829  18.526  0.00  0.00    +0.000 A 
ATOM     27  C   UNL     1      -4.842  11.757  17.319  0.00  0.00    +0.000 A 
ATOM     28 CL   UNL     1      -6.454  12.351  17.219  0.00  0.00    +0.000 Cl
ATOM     29  C   UNL     1      -4.243  11.189  16.196  0.00  0.00    +0.000 A 
ATOM     30  C   UNL     1      -2.948  10.670  16.286  0.00  0.00    +0.000 A 
ENDBRANCH  23  24
ENDBRANCH  22  23
ENDBRANCH  20  22
ENDBRANCH   7  20
TORSDOF 6
ENDMDL
MODEL 2
REMARK VINA RESULT:      -7.7      6.085     10.188
REMARK  Name = 
REMARK  7 active torsions:
REMARK  status: ('A' for Active; 'I' for Inactive)
REMARK    1  A    between atoms: C_1  and  S_2
REMARK    2  A    between atoms: S_2  and  N_5
REMARK    3  A    between atoms: C_8  and  N_9
REMARK    4  A    between atoms: C_15  and  N_16
REMARK    5  A    between atoms: N_16  and  C_17
REMARK    6  A    between atoms: C_17  and  C_18
REMARK    7  A    between atoms: C_18  and  C_19
REMARK                            x       y       z     vdW  Elec       q    Type
REMARK                         _______ _______ _______ _____ _____    ______ ____
ROOT
ATOM      1  N   UNL     1      -0.434  10.968  21.279  0.00  0.00    +0.000 N 
ATOM      2  C   UNL     1       0.310  10.138  20.449  0.00  0.00    +0.000 A 
ATOM      3  N   UNL     1       0.561  10.508  19.190  0.00  0.00    +0.000 NA
ATOM      4  C   UNL     1       1.347   9.689  18.465  0.00  0.00    +0.000 A 
ATOM      5  C   UNL     1       1.922   8.545  18.960  0.00  0.00    +0.000 A 
ATOM      6 CL   UNL     1       2.963   7.598  17.973  0.00  0.00    +0.000 Cl
ATOM      7  C   UNL     1       1.586   8.209  20.265  0.00  0.00    +0.000 A 
ATOM      8  N   UNL     1       0.757   8.995  20.991  0.00  0.00    +0.000 NA
ATOM      9  H   UNL     1      -1.335  10.507  21.368  0.00  0.00    +0.000 HD
ENDROOT
BRANCH   1  13
ATOM     10  N   UNL     1      -2.757  13.229  22.634  0.00  0.00    +0.000 NA
ATOM     11  C   UNL     1      -1.386  13.061  23.183  0.00  0.00    +0.000 C 
ATOM     12  C   UNL     1      -0.338  13.316  22.110  0.00  0.00    +0.000 C 
ATOM     13  C   UNL     1      -0.539  12.388  20.906  0.00  0.00    +0.000 C 
ATOM     14  C   UNL     1      -1.941  12.663  20.347  0.00  0.00    +0.000 C 
ATOM     15  C   UNL     1      -3.026  12.451  21.398  0.00  0.00    +0.000 C 
BRANCH  10  17
ATOM     16  C   UNL     1      -5.480  13.409  22.823  0.00  0.00    +0.000 C 
ATOM     17  S   UNL     1      -4.006  13.185  23.803  0.00  0.00    +0.000 S 
ATOM     18  O   UNL     1      -3.861  14.341  24.655  0.00  0.00    +0.000 OA
ATOM     19  O   UNL     1      -4.045  11.846  24.361  0.00  0.00    +0.000 OA
ENDBRANCH  10  17
ENDBRANCH   1  13
BRANCH   7  20
ATOM     20  N   UNL     1       2.085   7.014  20.824  0.00  0.00    +0.000 N 
ATOM     21  H   UNL     1       2.357   7.154  21.795  0.00  0.00    +0.000 HD
BRANCH  20  22
ATOM     22  C   UNL     1       1.304   5.810  20.557  0.00  0.00    +0.000 C 
BRANCH  22  23
ATOM     23  C   UNL     1       2.147   4.542  20.756  0.00  0.00    +0.000 C 
BRANCH  23  24
ATOM     24  C   UNL     1       2.946   4.254  19.505  0.00  0.00    +0.000 A 
ATOM     25  C   UNL     1       4.346   4.333  19.537  0.00  0.00    +0.000 A 
ATOM     26  C   UNL     1       5.087   4.205  18.361  0.00  0.00    +0.000 A 
ATOM     27  C   UNL     1       4.434   3.995  17.150  0.00  0.00    +0.000 A 
ATOM     28 CL   UNL     1       5.344   3.886  15.694  0.00  0.00    +0.000 Cl
ATOM     29  C   UNL     1       3.044   3.891  17.107  0.00  0.00    +0.000 A 
ATOM     30  C   UNL     1       2.300   4.019  18.283  0.00  0.00    +0.000 A 
ENDBRANCH  23  24
ENDBRANCH  22  23
ENDBRANCH  20  22
ENDBRANCH   7  20
TORSDOF 6
ENDMDL
MODEL 3
REMARK VINA RESULT:      -7.7      5.875     10.026
REMARK  Name = 
REMARK  7 active torsions:
REMARK  status: ('A' for Active; 'I' for Inactive)
REMARK    1  A    between atoms: C_1  and  S_2
REMARK    2  A    between atoms: S_2  and  N_5
REMARK    3  A    between atoms: C_8  and  N_9
REMARK    4  A    between atoms: C_15  and  N_16
REMARK    5  A    between atoms: N_16  and  C_17
REMARK    6  A    between atoms: C_17  and  C_18
REMARK    7  A    between atoms: C_18  and  C_19
REMARK                            x       y       z     vdW  Elec       q    Type
REMARK                         _______ _______ _______ _____ _____    ______ ____
ROOT
ATOM      1  N   UNL     1      -0.377  10.915  20.289  0.00  0.00    +0.000 N 
ATOM      2  C   UNL     1       0.459  10.015  19.639  0.00  0.00    +0.000 A 
ATOM      3  N   UNL     1       0.809  10.230  18.368  0.00  0.00    +0.000 NA
ATOM      4  C   UNL     1       1.679   9.356  17.825  0.00  0.00    +0.000 A 
ATOM      5  C   UNL     1       2.238   8.307  18.512  0.00  0.00    +0.000 A 
ATOM      6 CL   UNL     1       3.388   7.282  17.748  0.00  0.00    +0.000 Cl
ATOM      7  C   UNL     1       1.798   8.128  19.817  0.00  0.00    +0.000 A 
ATOM      8  N   UNL     1       0.888   8.968  20.362  0.00  0.00    +0.000 NA
ATOM      9  H   UNL     1      -1.270  10.435  20.361  0.00  0.00    +0.000 HD
ENDROOT
BRANCH   1  13
ATOM     10  N   UNL     1      -2.978  13.171  20.991  0.00  0.00    +0.000 NA
ATOM     11  C   UNL     1      -1.700  13.157  21.750  0.00  0.00    +0.000 C 
ATOM     12  C   UNL     1      -0.513  13.347  20.817  0.00  0.00    +0.000 C 
ATOM     13  C   UNL     1      -0.488  12.270  19.726  0.00  0.00    +0.000 C 
ATOM     14  C   UNL     1      -1.799  12.387  18.938  0.00  0.00    +0.000 C 
ATOM     15  C   UNL     1      -3.021  12.235  19.838  0.00  0.00    +0.000 C 
BRANCH  10  17
ATOM     16  C   UNL     1      -5.603  12.405  20.919  0.00  0.00    +0.000 C 
ATOM     17  S   UNL     1      -4.387  13.189  21.962  0.00  0.00    +0.000 S 
ATOM     18  O   UNL     1      -4.783  14.564  22.147  0.00  0.00    +0.000 OA
ATOM     19  O   UNL     1      -4.153  12.319  23.099  0.00  0.00    +0.000 OA
ENDBRANCH  10  17
ENDBRANCH   1  13
BRANCH   7  20
ATOM     20  N   UNL     1       2.278   7.034  20.568  0.00  0.00    +0.000 N 
ATOM     21  H   UNL     1       2.502   7.318  21.519  0.00  0.00    +0.000 HD
BRANCH  20  22
ATOM     22  C   UNL     1       1.519   5.794  20.443  0.00  0.00    +0.000 C 
BRANCH  22  23
ATOM     23  C   UNL     1       2.404   4.568  20.716  0.00  0.00    +0.000 C 
BRANCH  23  24
ATOM     24  C   UNL     1       3.235   4.252  19.493  0.00  0.00    +0.000 A 
ATOM     25  C   UNL     1       4.623   4.450  19.522  0.00  0.00    +0.000 A 
ATOM     26  C   UNL     1       5.384   4.294  18.362  0.00  0.00    +0.000 A 
ATOM     27  C   UNL     1       4.761   3.936  17.169  0.00  0.00    +0.000 A 
ATOM     28 CL   UNL     1       5.691   3.791  15.729  0.00  0.00    +0.000 Cl
ATOM     29  C   UNL     1       3.385   3.714  17.131  0.00  0.00    +0.000 A 
ATOM     30  C   UNL     1       2.623   3.870  18.292  0.00  0.00    +0.000 A 
ENDBRANCH  23  24
ENDBRANCH  22  23
ENDBRANCH  20  22
ENDBRANCH   7  20
TORSDOF 6
ENDMDL
MODEL 4
REMARK VINA RESULT:      -7.6      1.347      1.896
REMARK  Name = 
REMARK  7 active torsions:
REMARK  status: ('A' for Active; 'I' for Inactive)
REMARK    1  A    between atoms: C_1  and  S_2
REMARK    2  A    between atoms: S_2  and  N_5
REMARK    3  A    between atoms: C_8  and  N_9
REMARK    4  A    between atoms: C_15  and  N_16
REMARK    5  A    between atoms: N_16  and  C_17
REMARK    6  A    between atoms: C_17  and  C_18
REMARK    7  A    between atoms: C_18  and  C_19
REMARK                            x       y       z     vdW  Elec       q    Type
REMARK                         _______ _______ _______ _____ _____    ______ ____
ROOT
ATOM      1  N   UNL     1       2.564   6.543  18.642  0.00  0.00    +0.000 N 
ATOM      2  C   UNL     1       1.867   7.267  19.602  0.00  0.00    +0.000 A 
ATOM      3  N   UNL     1       1.304   6.633  20.635  0.00  0.00    +0.000 NA
ATOM      4  C   UNL     1       0.706   7.404  21.563  0.00  0.00    +0.000 A 
ATOM      5  C   UNL     1       0.685   8.776  21.521  0.00  0.00    +0.000 A 
ATOM      6 CL   UNL     1      -0.049   9.675  22.788  0.00  0.00    +0.000 Cl
ATOM      7  C   UNL     1       1.261   9.360  20.399  0.00  0.00    +0.000 A 
ATOM      8  N   UNL     1       1.822   8.597  19.432  0.00  0.00    +0.000 NA
ATOM      9  H   UNL     1       1.961   6.547  17.825  0.00  0.00    +0.000 HD
ENDROOT
BRANCH   1  13
ATOM     10  N   UNL     1       5.555   5.086  17.512  0.00  0.00    +0.000 NA
ATOM     11  C   UNL     1       5.462   5.841  18.788  0.00  0.00    +0.000 C 
ATOM     12  C   UNL     1       4.405   5.237  19.700  0.00  0.00    +0.000 C 
ATOM     13  C   UNL     1       3.035   5.198  19.012  0.00  0.00    +0.000 C 
ATOM     14  C   UNL     1       3.184   4.347  17.745  0.00  0.00    +0.000 C 
ATOM     15  C   UNL     1       4.259   4.896  16.811  0.00  0.00    +0.000 C 
BRANCH  10  17
ATOM     16  C   UNL     1       7.507   6.991  17.315  0.00  0.00    +0.000 C 
ATOM     17  S   UNL     1       6.861   5.539  16.505  0.00  0.00    +0.000 S 
ATOM     18  O   UNL     1       6.322   5.947  15.230  0.00  0.00    +0.000 OA
ATOM     19  O   UNL     1       7.870   4.499  16.591  0.00  0.00    +0.000 OA
ENDBRANCH  10  17
ENDBRANCH   1  13
BRANCH   7  20
ATOM     20  N   UNL     1       1.223  10.762  20.250  0.00  0.00    +0.000 N 
ATOM     21  H   UNL     1       2.157  11.159  20.325  0.00  0.00    +0.000 HD
BRANCH  20  22
ATOM     22  C   UNL     1       0.412  11.265  19.147  0.00  0.00    +0.000 C 
BRANCH  22  23
ATOM     23  C   UNL     1      -1.082  11.263  19.506  0.00  0.00    +0.000 C 
BRANCH  23  24
ATOM     24  C   UNL     1      -1.901  10.879  18.295  0.00  0.00    +0.000 A 
ATOM     25  C   UNL     1      -1.413   9.917  17.398  0.00  0.00    +0.000 A 
ATOM     26  C   UNL     1      -2.092   9.653  16.207  0.00  0.00    +0.000 A 
ATOM     27  C   UNL     1      -3.263  10.346  15.910  0.00  0.00    +0.000 A 
ATOM     28 CL   UNL     1      -4.073  10.055  14.420  0.00  0.00    +0.000 Cl
ATOM     29  C   UNL     1      -3.772  11.288  16.802  0.00  0.00    +0.000 A 
ATOM     30  C   UNL     1      -3.093  11.553  17.995  0.00  0.00    +0.000 A 
ENDBRANCH  23  24
ENDBRANCH  22  23
ENDBRANCH  20  22
ENDBRANCH   7  20
TORSDOF 6
ENDMDL
MODEL 5
REMARK VINA RESULT:      -7.6      5.965     10.117
REMARK  Name = 
REMARK  7 active torsions:
REMARK  status: ('A' for Active; 'I' for Inactive)
REMARK    1  A    between atoms: C_1  and  S_2
REMARK    2  A    between atoms: S_2  and  N_5
REMARK    3  A    between atoms: C_8  and  N_9
REMARK    4  A    between atoms: C_15  and  N_16
REMARK    5  A    between atoms: N_16  and  C_17
REMARK    6  A    between atoms: C_17  and  C_18
REMARK    7  A    between atoms: C_18  and  C_19
REMARK                            x       y       z     vdW  Elec       q    Type
REMARK                         _______ _______ _______ _____ _____    ______ ____
ROOT
ATOM      1  N   UNL     1      -0.090  11.044  20.913  0.00  0.00    +0.000 N 
ATOM      2  C   UNL     1       0.584  10.147  20.093  0.00  0.00    +0.000 A 
ATOM      3  N   UNL     1       0.749  10.425  18.797  0.00  0.00    +0.000 NA
ATOM      4  C   UNL     1       1.473   9.545  18.078  0.00  0.00    +0.000 A 
ATOM      5  C   UNL     1       2.069   8.429  18.611  0.00  0.00    +0.000 A 
ATOM      6 CL   UNL     1       3.028   7.399  17.623  0.00  0.00    +0.000 Cl
ATOM      7  C   UNL     1       1.823   8.191  19.957  0.00  0.00    +0.000 A 
ATOM      8  N   UNL     1       1.057   9.038  20.682  0.00  0.00    +0.000 NA
ATOM      9  H   UNL     1      -0.987  10.605  21.097  0.00  0.00    +0.000 HD
ENDROOT
BRANCH   1  13
ATOM     10  N   UNL     1      -2.393  13.387  22.159  0.00  0.00    +0.000 NA
ATOM     11  C   UNL     1      -1.011  13.258  22.692  0.00  0.00    +0.000 C 
ATOM     12  C   UNL     1       0.015  13.443  21.584  0.00  0.00    +0.000 C 
ATOM     13  C   UNL     1      -0.206  12.437  20.449  0.00  0.00    +0.000 C 
ATOM     14  C   UNL     1      -1.619  12.672  19.899  0.00  0.00    +0.000 C 
ATOM     15  C   UNL     1      -2.684  12.529  20.983  0.00  0.00    +0.000 C 
BRANCH  10  17
ATOM     16  C   UNL     1      -2.851  14.308  24.694  0.00  0.00    +0.000 C 
ATOM     17  S   UNL     1      -3.619  13.419  23.352  0.00  0.00    +0.000 S 
ATOM     18  O   UNL     1      -3.849  12.065  23.793  0.00  0.00    +0.000 OA
ATOM     19  O   UNL     1      -4.708  14.236  22.847  0.00  0.00    +0.000 OA
ENDBRANCH  10  17
ENDBRANCH   1  13
BRANCH   7  20
ATOM     20  N   UNL     1       2.348   7.029  20.563  0.00  0.00    +0.000 N 
ATOM     21  H   UNL     1       2.663   7.226  21.511  0.00  0.00    +0.000 HD
BRANCH  20  22
ATOM     22  C   UNL     1       1.557   5.813  20.403  0.00  0.00    +0.000 C 
BRANCH  22  23
ATOM     23  C   UNL     1       2.406   4.558  20.651  0.00  0.00    +0.000 C 
BRANCH  23  24
ATOM     24  C   UNL     1       3.260   4.267  19.438  0.00  0.00    +0.000 A 
ATOM     25  C   UNL     1       4.634   4.544  19.468  0.00  0.00    +0.000 A 
ATOM     26  C   UNL     1       5.408   4.410  18.314  0.00  0.00    +0.000 A 
ATOM     27  C   UNL     1       4.812   3.995  17.126  0.00  0.00    +0.000 A 
ATOM     28 CL   UNL     1       5.755   3.876  15.692  0.00  0.00    +0.000 Cl
ATOM     29  C   UNL     1       3.452   3.693  17.086  0.00  0.00    +0.000 A 
ATOM     30  C   UNL     1       2.676   3.827  18.241  0.00  0.00    +0.000 A 
ENDBRANCH  23  24
ENDBRANCH  22  23
ENDBRANCH  20  22
ENDBRANCH   7  20
TORSDOF 6
ENDMDL
MODEL 6
REMARK VINA RESULT:      -7.5      0.844      1.454
REMARK  Name = 
REMARK  7 active torsions:
REMARK  status: ('A' for Active; 'I' for Inactive)
REMARK    1  A    between atoms: C_1  and  S_2
REMARK    2  A    between atoms: S_2  and  N_5
REMARK    3  A    between atoms: C_8  and  N_9
REMARK    4  A    between atoms: C_15  and  N_16
REMARK    5  A    between atoms: N_16  and  C_17
REMARK    6  A    between atoms: C_17  and  C_18
REMARK    7  A    between atoms: C_18  and  C_19
REMARK                            x       y       z     vdW  Elec       q    Type
REMARK                         _______ _______ _______ _____ _____    ______ ____
ROOT
ATOM      1  N   UNL     1       2.674   5.617  17.926  0.00  0.00    +0.000 N 
ATOM      2  C   UNL     1       2.175   6.565  18.811  0.00  0.00    +0.000 A 
ATOM      3  N   UNL     1       1.715   6.183  20.006  0.00  0.00    +0.000 NA
ATOM      4  C   UNL     1       1.313   7.161  20.840  0.00  0.00    +0.000 A 
ATOM      5  C   UNL     1       1.391   8.499  20.543  0.00  0.00    +0.000 A 
ATOM      6 CL   UNL     1       0.911   9.676  21.700  0.00  0.00    +0.000 Cl
ATOM      7  C   UNL     1       1.847   8.816  19.269  0.00  0.00    +0.000 A 
ATOM      8  N   UNL     1       2.209   7.842  18.401  0.00  0.00    +0.000 NA
ATOM      9  H   UNL     1       1.966   5.538  17.202  0.00  0.00    +0.000 HD
ENDROOT
BRANCH   1  13
ATOM     10  N   UNL     1       5.919   4.288  17.705  0.00  0.00    +0.000 NA
ATOM     11  C   UNL     1       5.458   5.089  18.868  0.00  0.00    +0.000 C 
ATOM     12  C   UNL     1       4.224   4.464  19.501  0.00  0.00    +0.000 C 
ATOM     13  C   UNL     1       3.089   4.319  18.480  0.00  0.00    +0.000 C 
ATOM     14  C   UNL     1       3.607   3.425  17.347  0.00  0.00    +0.000 C 
ATOM     15  C   UNL     1       4.866   3.995  16.700  0.00  0.00    +0.000 C 
BRANCH  10  17
ATOM     16  C   UNL     1       7.501   6.506  17.467  0.00  0.00    +0.000 C 
ATOM     17  S   UNL     1       7.425   4.773  17.054  0.00  0.00    +0.000 S 
ATOM     18  O   UNL     1       7.347   4.663  15.617  0.00  0.00    +0.000 OA
ATOM     19  O   UNL     1       8.470   4.095  17.800  0.00  0.00    +0.000 OA
ENDBRANCH  10  17
ENDBRANCH   1  13
BRANCH   7  20
ATOM     20  N   UNL     1       1.896  10.167  18.866  0.00  0.00    +0.000 N 
ATOM     21  H   UNL     1       2.728  10.348  18.308  0.00  0.00    +0.000 HD
BRANCH  20  22
ATOM     22  C   UNL     1       0.653  10.720  18.339  0.00  0.00    +0.000 C 
BRANCH  22  23
ATOM     23  C   UNL     1      -0.333   9.608  17.950  0.00  0.00    +0.000 C 
BRANCH  23  24
ATOM     24  C   UNL     1      -1.716  10.189  17.764  0.00  0.00    +0.000 A 
ATOM     25  C   UNL     1      -2.402   9.987  16.557  0.00  0.00    +0.000 A 
ATOM     26  C   UNL     1      -3.617  10.629  16.319  0.00  0.00    +0.000 A 
ATOM     27  C   UNL     1      -4.155  11.474  17.287  0.00  0.00    +0.000 A 
ATOM     28 CL   UNL     1      -5.629  12.305  16.974  0.00  0.00    +0.000 Cl
ATOM     29  C   UNL     1      -3.496  11.667  18.500  0.00  0.00    +0.000 A 
ATOM     30  C   UNL     1      -2.278  11.023  18.739  0.00  0.00    +0.000 A 
ENDBRANCH  23  24
ENDBRANCH  22  23
ENDBRANCH  20  22
ENDBRANCH   7  20
TORSDOF 6
ENDMDL
MODEL 7
REMARK VINA RESULT:      -7.4      5.753      9.725
REMARK  Name = 
REMARK  7 active torsions:
REMARK  status: ('A' for Active; 'I' for Inactive)
REMARK    1  A    between atoms: C_1  and  S_2
REMARK    2  A    between atoms: S_2  and  N_5
REMARK    3  A    between atoms: C_8  and  N_9
REMARK    4  A    between atoms: C_15  and  N_16
REMARK    5  A    between atoms: N_16  and  C_17
REMARK    6  A    between atoms: C_17  and  C_18
REMARK    7  A    between atoms: C_18  and  C_19
REMARK                            x       y       z     vdW  Elec       q    Type
REMARK                         _______ _______ _______ _____ _____    ______ ____
ROOT
ATOM      1  N   UNL     1      -0.176  10.629  19.924  0.00  0.00    +0.000 N 
ATOM      2  C   UNL     1       0.722   9.747  19.334  0.00  0.00    +0.000 A 
ATOM      3  N   UNL     1       1.172   9.983  18.098  0.00  0.00    +0.000 NA
ATOM      4  C   UNL     1       2.094   9.126  17.617  0.00  0.00    +0.000 A 
ATOM      5  C   UNL     1       2.610   8.076  18.334  0.00  0.00    +0.000 A 
ATOM      6 CL   UNL     1       3.831   7.075  17.655  0.00  0.00    +0.000 Cl
ATOM      7  C   UNL     1       2.068   7.875  19.598  0.00  0.00    +0.000 A 
ATOM      8  N   UNL     1       1.105   8.697  20.076  0.00  0.00    +0.000 NA
ATOM      9  H   UNL     1      -1.065  10.137  19.917  0.00  0.00    +0.000 HD
ENDROOT
BRANCH   1  13
ATOM     10  N   UNL     1      -1.461  13.415  21.635  0.00  0.00    +0.000 NA
ATOM     11  C   UNL     1      -0.016  13.071  21.633  0.00  0.00    +0.000 C 
ATOM     12  C   UNL     1       0.524  13.003  20.212  0.00  0.00    +0.000 C 
ATOM     13  C   UNL     1      -0.258  11.990  19.369  0.00  0.00    +0.000 C 
ATOM     14  C   UNL     1      -1.723  12.443  19.353  0.00  0.00    +0.000 C 
ATOM     15  C   UNL     1      -2.301  12.557  20.761  0.00  0.00    +0.000 C 
BRANCH  10  17
ATOM     16  C   UNL     1      -2.906  12.194  23.610  0.00  0.00    +0.000 C 
ATOM     17  S   UNL     1      -2.119  13.736  23.181  0.00  0.00    +0.000 S 
ATOM     18  O   UNL     1      -3.152  14.733  23.029  0.00  0.00    +0.000 OA
ATOM     19  O   UNL     1      -1.014  13.939  24.100  0.00  0.00    +0.000 OA
ENDBRANCH  10  17
ENDBRANCH   1  13
BRANCH   7  20
ATOM     20  N   UNL     1       2.499   6.778  20.372  0.00  0.00    +0.000 N 
ATOM     21  H   UNL     1       3.082   7.089  21.147  0.00  0.00    +0.000 HD
BRANCH  20  22
ATOM     22  C   UNL     1       1.477   5.793  20.708  0.00  0.00    +0.000 C 
BRANCH  22  23
ATOM     23  C   UNL     1       2.076   4.384  20.829  0.00  0.00    +0.000 C 
BRANCH  23  24
ATOM     24  C   UNL     1       2.881   4.061  19.591  0.00  0.00    +0.000 A 
ATOM     25  C   UNL     1       4.282   4.018  19.660  0.00  0.00    +0.000 A 
ATOM     26  C   UNL     1       5.042   3.857  18.500  0.00  0.00    +0.000 A 
ATOM     27  C   UNL     1       4.406   3.734  17.267  0.00  0.00    +0.000 A 
ATOM     28 CL   UNL     1       5.344   3.585  15.833  0.00  0.00    +0.000 Cl
ATOM     29  C   UNL     1       3.015   3.751  17.187  0.00  0.00    +0.000 A 
ATOM     30  C   UNL     1       2.252   3.913  18.347  0.00  0.00    +0.000 A 
ENDBRANCH  23  24
ENDBRANCH  22  23
ENDBRANCH  20  22
ENDBRANCH   7  20
TORSDOF 6
ENDMDL
MODEL 8
REMARK VINA RESULT:      -7.4      6.161     10.334
REMARK  Name = 
REMARK  7 active torsions:
REMARK  status: ('A' for Active; 'I' for Inactive)
REMARK    1  A    between atoms: C_1  and  S_2
REMARK    2  A    between atoms: S_2  and  N_5
REMARK    3  A    between atoms: C_8  and  N_9
REMARK    4  A    between atoms: C_15  and  N_16
REMARK    5  A    between atoms: N_16  and  C_17
REMARK    6  A    between atoms: C_17  and  C_18
REMARK    7  A    between atoms: C_18  and  C_19
REMARK                            x       y       z     vdW  Elec       q    Type
REMARK                         _______ _______ _______ _____ _____    ______ ____
ROOT
ATOM      1  N   UNL     1      -0.335  11.285  21.444  0.00  0.00    +0.000 N 
ATOM      2  C   UNL     1       0.309  10.427  20.561  0.00  0.00    +0.000 A 
ATOM      3  N   UNL     1       0.426  10.762  19.273  0.00  0.00    +0.000 NA
ATOM      4  C   UNL     1       1.123   9.917  18.489  0.00  0.00    +0.000 A 
ATOM      5  C   UNL     1       1.739   8.779  18.950  0.00  0.00    +0.000 A 
ATOM      6 CL   UNL     1       2.660   7.797  17.882  0.00  0.00    +0.000 Cl
ATOM      7  C   UNL     1       1.543   8.481  20.292  0.00  0.00    +0.000 A 
ATOM      8  N   UNL     1       0.803   9.293  21.082  0.00  0.00    +0.000 NA
ATOM      9  H   UNL     1      -1.225  10.837  21.641  0.00  0.00    +0.000 HD
ENDROOT
BRANCH   1  13
ATOM     10  N   UNL     1      -2.871  13.448  22.555  0.00  0.00    +0.000 NA
ATOM     11  C   UNL     1      -1.551  13.347  23.229  0.00  0.00    +0.000 C 
ATOM     12  C   UNL     1      -0.420  13.641  22.254  0.00  0.00    +0.000 C 
ATOM     13  C   UNL     1      -0.468  12.697  21.047  0.00  0.00    +0.000 C 
ATOM     14  C   UNL     1      -1.823  12.904  20.358  0.00  0.00    +0.000 C 
ATOM     15  C   UNL     1      -2.990  12.651  21.307  0.00  0.00    +0.000 C 
BRANCH  10  17
ATOM     16  C   UNL     1      -5.027  14.928  23.358  0.00  0.00    +0.000 C 
ATOM     17  S   UNL     1      -4.219  13.356  23.604  0.00  0.00    +0.000 S 
ATOM     18  O   UNL     1      -3.728  13.319  24.960  0.00  0.00    +0.000 OA
ATOM     19  O   UNL     1      -5.103  12.321  23.101  0.00  0.00    +0.000 OA
ENDBRANCH  10  17
ENDBRANCH   1  13
BRANCH   7  20
ATOM     20  N   UNL     1       2.089   7.294  20.826  0.00  0.00    +0.000 N 
ATOM     21  H   UNL     1       2.312   7.411  21.812  0.00  0.00    +0.000 HD
BRANCH  20  22
ATOM     22  C   UNL     1       1.394   6.059  20.479  0.00  0.00    +0.000 C 
BRANCH  22  23
ATOM     23  C   UNL     1       2.314   4.839  20.628  0.00  0.00    +0.000 C 
BRANCH  23  24
ATOM     24  C   UNL     1       3.161   4.680  19.386  0.00  0.00    +0.000 A 
ATOM     25  C   UNL     1       2.621   4.068  18.245  0.00  0.00    +0.000 A 
ATOM     26  C   UNL     1       3.429   3.791  17.142  0.00  0.00    +0.000 A 
ATOM     27  C   UNL     1       4.780   4.126  17.172  0.00  0.00    +0.000 A 
ATOM     28 CL   UNL     1       5.788   3.740  15.832  0.00  0.00    +0.000 Cl
ATOM     29  C   UNL     1       5.326   4.755  18.290  0.00  0.00    +0.000 A 
ATOM     30  C   UNL     1       4.518   5.033  19.396  0.00  0.00    +0.000 A 
ENDBRANCH  23  24
ENDBRANCH  22  23
ENDBRANCH  20  22
ENDBRANCH   7  20
TORSDOF 6
ENDMDL
MODEL 9
REMARK VINA RESULT:      -7.4      1.111      1.511
REMARK  Name = 
REMARK  7 active torsions:
REMARK  status: ('A' for Active; 'I' for Inactive)
REMARK    1  A    between atoms: C_1  and  S_2
REMARK    2  A    between atoms: S_2  and  N_5
REMARK    3  A    between atoms: C_8  and  N_9
REMARK    4  A    between atoms: C_15  and  N_16
REMARK    5  A    between atoms: N_16  and  C_17
REMARK    6  A    between atoms: C_17  and  C_18
REMARK    7  A    between atoms: C_18  and  C_19
REMARK                            x       y       z     vdW  Elec       q    Type
REMARK                         _______ _______ _______ _____ _____    ______ ____
ROOT
ATOM      1  N   UNL     1       2.635   5.898  18.527  0.00  0.00    +0.000 N 
ATOM      2  C   UNL     1       2.037   6.731  19.465  0.00  0.00    +0.000 A 
ATOM      3  N   UNL     1       1.652   6.237  20.645  0.00  0.00    +0.000 NA
ATOM      4  C   UNL     1       1.146   7.116  21.532  0.00  0.00    +0.000 A 
ATOM      5  C   UNL     1       1.050   8.466  21.301  0.00  0.00    +0.000 A 
ATOM      6 CL   UNL     1       0.448   9.516  22.521  0.00  0.00    +0.000 Cl
ATOM      7  C   UNL     1       1.438   8.898  20.039  0.00  0.00    +0.000 A 
ATOM      8  N   UNL     1       1.902   8.021  19.119  0.00  0.00    +0.000 NA
ATOM      9  H   UNL     1       1.927   5.764  17.810  0.00  0.00    +0.000 HD
ENDROOT
BRANCH   1  13
ATOM     10  N   UNL     1       5.650   4.513  17.371  0.00  0.00    +0.000 NA
ATOM     11  C   UNL     1       5.578   5.402  18.560  0.00  0.00    +0.000 C 
ATOM     12  C   UNL     1       4.621   4.840  19.600  0.00  0.00    +0.000 C 
ATOM     13  C   UNL     1       3.219   4.637  19.011  0.00  0.00    +0.000 C 
ATOM     14  C   UNL     1       3.355   3.657  17.839  0.00  0.00    +0.000 C 
ATOM     15  C   UNL     1       4.332   4.163  16.782  0.00  0.00    +0.000 C 
BRANCH  10  17
ATOM     16  C   UNL     1       6.367   4.036  14.775  0.00  0.00    +0.000 C 
ATOM     17  S   UNL     1       6.861   4.930  16.237  0.00  0.00    +0.000 S 
ATOM     18  O   UNL     1       8.112   4.374  16.694  0.00  0.00    +0.000 OA
ATOM     19  O   UNL     1       6.733   6.348  15.952  0.00  0.00    +0.000 OA
ENDBRANCH  10  17
ENDBRANCH   1  13
BRANCH   7  20
ATOM     20  N   UNL     1       1.309  10.262  19.702  0.00  0.00    +0.000 N 
ATOM     21  H   UNL     1       2.205  10.739  19.774  0.00  0.00    +0.000 HD
BRANCH  20  22
ATOM     22  C   UNL     1       0.536  10.552  18.499  0.00  0.00    +0.000 C 
BRANCH  22  23
ATOM     23  C   UNL     1      -0.878  11.039  18.848  0.00  0.00    +0.000 C 
BRANCH  23  24
ATOM     24  C   UNL     1      -1.827  10.713  17.718  0.00  0.00    +0.000 A 
ATOM     25  C   UNL     1      -1.498   9.708  16.797  0.00  0.00    +0.000 A 
ATOM     26  C   UNL     1      -2.296   9.490  15.673  0.00  0.00    +0.000 A 
ATOM     27  C   UNL     1      -3.429  10.273  15.466  0.00  0.00    +0.000 A 
ATOM     28 CL   UNL     1      -4.386  10.037  14.056  0.00  0.00    +0.000 Cl
ATOM     29  C   UNL     1      -3.782  11.260  16.385  0.00  0.00    +0.000 A 
ATOM     30  C   UNL     1      -2.983  11.479  17.511  0.00  0.00    +0.000 A 
ENDBRANCH  23  24
ENDBRANCH  22  23
ENDBRANCH  20  22
ENDBRANCH   7  20
TORSDOF 6
ENDMDL
