MODEL 1
REMARK VINA RESULT:      -8.3      0.000      0.000
REMARK  Name = 
REMARK  3 active torsions:
REMARK  status: ('A' for Active; 'I' for Inactive)
REMARK    1  A    between atoms: O_1  and  C_2
REMARK    2  A    between atoms: C_6  and  C_7
REMARK    3  A    between atoms: C_9  and  O_10
REMARK                            x       y       z     vdW  Elec       q    Type
REMARK                         _______ _______ _______ _____ _____    ______ ____
ROOT
ATOM      1  C   UNL     1       4.351   4.496  17.986  0.00  0.00    +0.000 A 
ATOM      2  C   UNL     1       5.414   5.294  18.377  0.00  0.00    +0.000 A 
ATOM      3  C   UNL     1       6.582   5.127  17.695  0.00  0.00    +0.000 A 
ATOM      4  C   UNL     1       6.475   4.813  16.364  0.00  0.00    +0.000 A 
ATOM      5  C   UNL     1       7.324   5.439  15.449  0.00  0.00    +0.000 A 
ATOM      6  C   UNL     1       7.225   5.045  14.149  0.00  0.00    +0.000 A 
ATOM      7  C   UNL     1       6.417   3.992  13.793  0.00  0.00    +0.000 A 
ATOM      8  C   UNL     1       5.543   3.403  14.696  0.00  0.00    +0.000 A 
ATOM      9  C   UNL     1       5.444   3.935  15.989  0.00  0.00    +0.000 A 
ATOM     10  N   UNL     1       4.421   3.713  16.859  0.00  0.00    +0.000 NA
ATOM     11  O   UNL     1       6.550   3.690  12.471  0.00  0.00    +0.000 OA
ATOM     12  C   UNL     1       7.418   4.760  12.028  0.00  0.00    +0.000 C 
ATOM     13  O   UNL     1       7.869   5.609  13.099  0.00  0.00    +0.000 OA
ENDROOT
BRANCH   1  18
ATOM     14  C   UNL     1       1.040   3.411  19.448  0.00  0.00    +0.000 A 
ATOM     15  C   UNL     1       0.879   4.273  20.516  0.00  0.00    +0.000 A 
ATOM     16  C   UNL     1       1.843   5.255  20.743  0.00  0.00    +0.000 A 
ATOM     17  C   UNL     1       2.954   5.377  19.895  0.00  0.00    +0.000 A 
ATOM     18  C   UNL     1       3.135   4.498  18.816  0.00  0.00    +0.000 A 
ATOM     19  C   UNL     1       2.126   3.533  18.596  0.00  0.00    +0.000 A 
BRANCH  14  20
ATOM     20  O   UNL     1       0.139   2.422  19.164  0.00  0.00    +0.000 OA
ATOM     21  H   UNL     1      -0.755   2.795  19.205  0.00  0.00    +0.000 HD
ENDBRANCH  14  20
ENDBRANCH   1  18
BRANCH   3  22
ATOM     22  O   UNL     1       7.409   4.189  18.391  0.00  0.00    +0.000 OA
ATOM     23  H   UNL     1       8.221   4.095  17.839  0.00  0.00    +0.000 HD
ENDBRANCH   3  22
TORSDOF 3
ENDMDL
MODEL 2
REMARK VINA RESULT:      -8.0      1.134      1.526
REMARK  Name = 
REMARK  3 active torsions:
REMARK  status: ('A' for Active; 'I' for Inactive)
REMARK    1  A    between atoms: O_1  and  C_2
REMARK    2  A    between atoms: C_6  and  C_7
REMARK    3  A    between atoms: C_9  and  O_10
REMARK                            x       y       z     vdW  Elec       q    Type
REMARK                         _______ _______ _______ _____ _____    ______ ____
ROOT
ATOM      1  C   UNL     1       4.600   4.429  18.045  0.00  0.00    +0.000 A 
ATOM      2  C   UNL     1       5.667   5.247  18.379  0.00  0.00    +0.000 A 
ATOM      3  C   UNL     1       6.802   5.097  17.639  0.00  0.00    +0.000 A 
ATOM      4  C   UNL     1       6.633   4.777  16.316  0.00  0.00    +0.000 A 
ATOM      5  C   UNL     1       7.423   5.414  15.358  0.00  0.00    +0.000 A 
ATOM      6  C   UNL     1       7.266   5.012  14.065  0.00  0.00    +0.000 A 
ATOM      7  C   UNL     1       6.460   3.945  13.754  0.00  0.00    +0.000 A 
ATOM      8  C   UNL     1       5.642   3.344  14.702  0.00  0.00    +0.000 A 
ATOM      9  C   UNL     1       5.600   3.879  15.997  0.00  0.00    +0.000 A 
ATOM     10  N   UNL     1       4.626   3.643  16.919  0.00  0.00    +0.000 NA
ATOM     11  O   UNL     1       6.530   3.640  12.428  0.00  0.00    +0.000 OA
ATOM     12  C   UNL     1       7.356   4.723  11.938  0.00  0.00    +0.000 C 
ATOM     13  O   UNL     1       7.846   5.584  12.983  0.00  0.00    +0.000 OA
ENDROOT
BRANCH   1  18
ATOM     14  C   UNL     1       1.939   5.630  20.443  0.00  0.00    +0.000 A 
ATOM     15  C   UNL     1       1.062   4.563  20.487  0.00  0.00    +0.000 A 
ATOM     16  C   UNL     1       1.360   3.412  19.757  0.00  0.00    +0.000 A 
ATOM     17  C   UNL     1       2.537   3.331  18.999  0.00  0.00    +0.000 A 
ATOM     18  C   UNL     1       3.428   4.413  18.936  0.00  0.00    +0.000 A 
ATOM     19  C   UNL     1       3.111   5.553  19.709  0.00  0.00    +0.000 A 
BRANCH  14  20
ATOM     20  O   UNL     1       1.713   6.791  21.130  0.00  0.00    +0.000 OA
ATOM     21  H   UNL     1       0.905   7.203  20.785  0.00  0.00    +0.000 HD
ENDBRANCH  14  20
ENDBRANCH   1  18
BRANCH   3  22
ATOM     22  O   UNL     1       7.679   4.177  18.296  0.00  0.00    +0.000 OA
ATOM     23  H   UNL     1       8.440   4.054  17.679  0.00  0.00    +0.000 HD
ENDBRANCH   3  22
TORSDOF 3
ENDMDL
MODEL 3
REMARK VINA RESULT:      -8.0      1.378      6.999
REMARK  Name = 
REMARK  3 active torsions:
REMARK  status: ('A' for Active; 'I' for Inactive)
REMARK    1  A    between atoms: O_1  and  C_2
REMARK    2  A    between atoms: C_6  and  C_7
REMARK    3  A    between atoms: C_9  and  O_10
REMARK                            x       y       z     vdW  Elec       q    Type
REMARK                         _______ _______ _______ _____ _____    ______ ____
ROOT
ATOM      1  C   UNL     1       5.644   4.525  16.135  0.00  0.00    +0.000 A 
ATOM      2  C   UNL     1       6.555   4.294  17.152  0.00  0.00    +0.000 A 
ATOM      3  C   UNL     1       6.111   4.498  18.424  0.00  0.00    +0.000 A 
ATOM      4  C   UNL     1       4.794   4.202  18.669  0.00  0.00    +0.000 A 
ATOM      5  C   UNL     1       4.457   3.532  19.846  0.00  0.00    +0.000 A 
ATOM      6  C   UNL     1       3.130   3.321  20.075  0.00  0.00    +0.000 A 
ATOM      7  C   UNL     1       2.179   3.860  19.244  0.00  0.00    +0.000 A 
ATOM      8  C   UNL     1       2.519   4.486  18.052  0.00  0.00    +0.000 A 
ATOM      9  C   UNL     1       3.865   4.518  17.663  0.00  0.00    +0.000 A 
ATOM     10  N   UNL     1       4.319   4.770  16.404  0.00  0.00    +0.000 NA
ATOM     11  O   UNL     1       0.921   3.626  19.712  0.00  0.00    +0.000 OA
ATOM     12  C   UNL     1       1.201   2.766  20.842  0.00  0.00    +0.000 C 
ATOM     13  O   UNL     1       2.609   2.591  21.090  0.00  0.00    +0.000 OA
ENDROOT
BRANCH   1  18
ATOM     14  C   UNL     1       7.820   5.198  13.121  0.00  0.00    +0.000 A 
ATOM     15  C   UNL     1       7.283   4.360  12.162  0.00  0.00    +0.000 A 
ATOM     16  C   UNL     1       6.166   3.590  12.486  0.00  0.00    +0.000 A 
ATOM     17  C   UNL     1       5.585   3.672  13.760  0.00  0.00    +0.000 A 
ATOM     18  C   UNL     1       6.130   4.510  14.745  0.00  0.00    +0.000 A 
ATOM     19  C   UNL     1       7.244   5.297  14.377  0.00  0.00    +0.000 A 
BRANCH  14  20
ATOM     20  O   UNL     1       8.915   5.980  12.878  0.00  0.00    +0.000 OA
ATOM     21  H   UNL     1       9.450   5.559  12.187  0.00  0.00    +0.000 HD
ENDBRANCH  14  20
ENDBRANCH   1  18
BRANCH   3  22
ATOM     22  O   UNL     1       6.436   5.830  18.832  0.00  0.00    +0.000 OA
ATOM     23  H   UNL     1       7.256   5.746  19.375  0.00  0.00    +0.000 HD
ENDBRANCH   3  22
TORSDOF 3
ENDMDL
MODEL 4
REMARK VINA RESULT:      -7.9      1.566      6.755
REMARK  Name = 
REMARK  3 active torsions:
REMARK  status: ('A' for Active; 'I' for Inactive)
REMARK    1  A    between atoms: O_1  and  C_2
REMARK    2  A    between atoms: C_6  and  C_7
REMARK    3  A    between atoms: C_9  and  O_10
REMARK                            x       y       z     vdW  Elec       q    Type
REMARK                         _______ _______ _______ _____ _____    ______ ____
ROOT
ATOM      1  C   UNL     1       5.821   4.435  15.916  0.00  0.00    +0.000 A 
ATOM      2  C   UNL     1       6.719   4.350  16.967  0.00  0.00    +0.000 A 
ATOM      3  C   UNL     1       6.235   4.647  18.207  0.00  0.00    +0.000 A 
ATOM      4  C   UNL     1       4.930   4.303  18.453  0.00  0.00    +0.000 A 
ATOM      5  C   UNL     1       4.600   3.728  19.681  0.00  0.00    +0.000 A 
ATOM      6  C   UNL     1       3.282   3.467  19.904  0.00  0.00    +0.000 A 
ATOM      7  C   UNL     1       2.323   3.873  19.008  0.00  0.00    +0.000 A 
ATOM      8  C   UNL     1       2.658   4.403  17.769  0.00  0.00    +0.000 A 
ATOM      9  C   UNL     1       4.009   4.473  17.405  0.00  0.00    +0.000 A 
ATOM     10  N   UNL     1       4.479   4.631  16.136  0.00  0.00    +0.000 NA
ATOM     11  O   UNL     1       1.069   3.615  19.472  0.00  0.00    +0.000 OA
ATOM     12  C   UNL     1       1.367   2.881  20.683  0.00  0.00    +0.000 C 
ATOM     13  O   UNL     1       2.775   2.807  20.973  0.00  0.00    +0.000 OA
ENDROOT
BRANCH   1  18
ATOM     14  C   UNL     1       6.108   3.378  12.301  0.00  0.00    +0.000 A 
ATOM     15  C   UNL     1       7.111   4.198  11.820  0.00  0.00    +0.000 A 
ATOM     16  C   UNL     1       7.737   5.084  12.696  0.00  0.00    +0.000 A 
ATOM     17  C   UNL     1       7.367   5.136  14.048  0.00  0.00    +0.000 A 
ATOM     18  C   UNL     1       6.341   4.317  14.544  0.00  0.00    +0.000 A 
ATOM     19  C   UNL     1       5.746   3.411  13.638  0.00  0.00    +0.000 A 
BRANCH  14  20
ATOM     20  O   UNL     1       5.447   2.486  11.501  0.00  0.00    +0.000 OA
ATOM     21  H   UNL     1       5.162   1.735  12.044  0.00  0.00    +0.000 HD
ENDBRANCH  14  20
ENDBRANCH   1  18
BRANCH   3  22
ATOM     22  O   UNL     1       6.478   6.027  18.493  0.00  0.00    +0.000 OA
ATOM     23  H   UNL     1       7.139   6.322  17.822  0.00  0.00    +0.000 HD
ENDBRANCH   3  22
TORSDOF 3
ENDMDL
MODEL 5
REMARK VINA RESULT:      -7.8      1.130      1.153
REMARK  Name = 
REMARK  3 active torsions:
REMARK  status: ('A' for Active; 'I' for Inactive)
REMARK    1  A    between atoms: O_1  and  C_2
REMARK    2  A    between atoms: C_6  and  C_7
REMARK    3  A    between atoms: C_9  and  O_10
REMARK                            x       y       z     vdW  Elec       q    Type
REMARK                         _______ _______ _______ _____ _____    ______ ____
ROOT
ATOM      1  C   UNL     1       4.856   4.487  18.141  0.00  0.00    +0.000 A 
ATOM      2  C   UNL     1       5.963   5.271  18.418  0.00  0.00    +0.000 A 
ATOM      3  C   UNL     1       7.051   5.092  17.617  0.00  0.00    +0.000 A 
ATOM      4  C   UNL     1       6.801   4.781  16.304  0.00  0.00    +0.000 A 
ATOM      5  C   UNL     1       7.556   5.398  15.305  0.00  0.00    +0.000 A 
ATOM      6  C   UNL     1       7.317   5.006  14.023  0.00  0.00    +0.000 A 
ATOM      7  C   UNL     1       6.463   3.964  13.754  0.00  0.00    +0.000 A 
ATOM      8  C   UNL     1       5.681   3.384  14.744  0.00  0.00    +0.000 A 
ATOM      9  C   UNL     1       5.726   3.916  16.040  0.00  0.00    +0.000 A 
ATOM     10  N   UNL     1       4.797   3.704  17.013  0.00  0.00    +0.000 NA
ATOM     11  O   UNL     1       6.452   3.662  12.425  0.00  0.00    +0.000 OA
ATOM     12  C   UNL     1       7.281   4.722  11.893  0.00  0.00    +0.000 C 
ATOM     13  O   UNL     1       7.853   5.564  12.911  0.00  0.00    +0.000 OA
ENDROOT
BRANCH   1  18
ATOM     14  C   UNL     1       2.652   3.528  21.056  0.00  0.00    +0.000 A 
ATOM     15  C   UNL     1       1.754   4.577  21.120  0.00  0.00    +0.000 A 
ATOM     16  C   UNL     1       1.838   5.597  20.172  0.00  0.00    +0.000 A 
ATOM     17  C   UNL     1       2.809   5.556  19.161  0.00  0.00    +0.000 A 
ATOM     18  C   UNL     1       3.734   4.503  19.095  0.00  0.00    +0.000 A 
ATOM     19  C   UNL     1       3.605   3.471  20.052  0.00  0.00    +0.000 A 
BRANCH  14  20
ATOM     20  O   UNL     1       2.633   2.495  21.952  0.00  0.00    +0.000 OA
ATOM     21  H   UNL     1       3.497   2.448  22.391  0.00  0.00    +0.000 HD
ENDBRANCH  14  20
ENDBRANCH   1  18
BRANCH   3  22
ATOM     22  O   UNL     1       7.935   4.144  18.222  0.00  0.00    +0.000 OA
ATOM     23  H   UNL     1       7.599   4.022  19.142  0.00  0.00    +0.000 HD
ENDBRANCH   3  22
TORSDOF 3
ENDMDL
MODEL 6
REMARK VINA RESULT:      -7.7      3.641      5.346
REMARK  Name = 
REMARK  3 active torsions:
REMARK  status: ('A' for Active; 'I' for Inactive)
REMARK    1  A    between atoms: O_1  and  C_2
REMARK    2  A    between atoms: C_6  and  C_7
REMARK    3  A    between atoms: C_9  and  O_10
REMARK                            x       y       z     vdW  Elec       q    Type
REMARK                         _______ _______ _______ _____ _____    ______ ____
ROOT
ATOM      1  C   UNL     1       1.921   7.496  19.888  0.00  0.00    +0.000 A 
ATOM      2  C   UNL     1       1.957   6.352  20.666  0.00  0.00    +0.000 A 
ATOM      3  C   UNL     1       2.511   5.245  20.096  0.00  0.00    +0.000 A 
ATOM      4  C   UNL     1       3.553   5.459  19.229  0.00  0.00    +0.000 A 
ATOM      5  C   UNL     1       4.668   4.623  19.289  0.00  0.00    +0.000 A 
ATOM      6  C   UNL     1       5.645   4.833  18.363  0.00  0.00    +0.000 A 
ATOM      7  C   UNL     1       5.468   5.743  17.349  0.00  0.00    +0.000 A 
ATOM      8  C   UNL     1       4.379   6.603  17.319  0.00  0.00    +0.000 A 
ATOM      9  C   UNL     1       3.467   6.578  18.383  0.00  0.00    +0.000 A 
ATOM     10  N   UNL     1       2.571   7.559  18.679  0.00  0.00    +0.000 NA
ATOM     11  O   UNL     1       6.511   5.717  16.472  0.00  0.00    +0.000 OA
ATOM     12  C   UNL     1       7.409   4.797  17.136  0.00  0.00    +0.000 C 
ATOM     13  O   UNL     1       6.849   4.213  18.327  0.00  0.00    +0.000 OA
ENDROOT
BRANCH   1  18
ATOM     14  C   UNL     1       0.280   9.912  22.285  0.00  0.00    +0.000 A 
ATOM     15  C   UNL     1      -0.086  10.959  21.462  0.00  0.00    +0.000 A 
ATOM     16  C   UNL     1       0.165  10.864  20.093  0.00  0.00    +0.000 A 
ATOM     17  C   UNL     1       0.770   9.718  19.555  0.00  0.00    +0.000 A 
ATOM     18  C   UNL     1       1.159   8.654  20.384  0.00  0.00    +0.000 A 
ATOM     19  C   UNL     1       0.864   8.770  21.761  0.00  0.00    +0.000 A 
BRANCH  14  20
ATOM     20  O   UNL     1       0.068   9.935  23.636  0.00  0.00    +0.000 OA
ATOM     21  H   UNL     1      -0.735   9.430  23.833  0.00  0.00    +0.000 HD
ENDBRANCH  14  20
ENDBRANCH   1  18
BRANCH   3  22
ATOM     22  O   UNL     1       1.481   4.453  19.496  0.00  0.00    +0.000 OA
ATOM     23  H   UNL     1       1.325   3.707  20.123  0.00  0.00    +0.000 HD
ENDBRANCH   3  22
TORSDOF 3
ENDMDL
MODEL 7
REMARK VINA RESULT:      -7.7      1.787      6.851
REMARK  Name = 
REMARK  3 active torsions:
REMARK  status: ('A' for Active; 'I' for Inactive)
REMARK    1  A    between atoms: O_1  and  C_2
REMARK    2  A    between atoms: C_6  and  C_7
REMARK    3  A    between atoms: C_9  and  O_10
REMARK                            x       y       z     vdW  Elec       q    Type
REMARK                         _______ _______ _______ _____ _____    ______ ____
ROOT
ATOM      1  C   UNL     1       5.059   4.881  15.984  0.00  0.00    +0.000 A 
ATOM      2  C   UNL     1       5.436   5.913  16.828  0.00  0.00    +0.000 A 
ATOM      3  C   UNL     1       4.542   6.265  17.795  0.00  0.00    +0.000 A 
ATOM      4  C   UNL     1       3.782   5.254  18.324  0.00  0.00    +0.000 A 
ATOM      5  C   UNL     1       3.568   5.216  19.703  0.00  0.00    +0.000 A 
ATOM      6  C   UNL     1       2.751   4.232  20.172  0.00  0.00    +0.000 A 
ATOM      7  C   UNL     1       2.077   3.406  19.307  0.00  0.00    +0.000 A 
ATOM      8  C   UNL     1       2.327   3.416  17.941  0.00  0.00    +0.000 A 
ATOM      9  C   UNL     1       3.333   4.255  17.443  0.00  0.00    +0.000 A 
ATOM     10  N   UNL     1       3.928   4.138  16.224  0.00  0.00    +0.000 NA
ATOM     11  O   UNL     1       1.232   2.571  19.974  0.00  0.00    +0.000 OA
ATOM     12  C   UNL     1       1.567   2.879  21.348  0.00  0.00    +0.000 C 
ATOM     13  O   UNL     1       2.515   3.954  21.477  0.00  0.00    +0.000 OA
ENDROOT
BRANCH   1  18
ATOM     14  C   UNL     1       6.191   3.417  12.691  0.00  0.00    +0.000 A 
ATOM     15  C   UNL     1       7.321   4.156  12.399  0.00  0.00    +0.000 A 
ATOM     16  C   UNL     1       7.751   5.122  13.308  0.00  0.00    +0.000 A 
ATOM     17  C   UNL     1       7.056   5.334  14.508  0.00  0.00    +0.000 A 
ATOM     18  C   UNL     1       5.900   4.598  14.809  0.00  0.00    +0.000 A 
ATOM     19  C   UNL     1       5.507   3.608  13.880  0.00  0.00    +0.000 A 
BRANCH  14  20
ATOM     20  O   UNL     1       5.708   2.455  11.846  0.00  0.00    +0.000 OA
ATOM     21  H   UNL     1       5.898   2.719  10.933  0.00  0.00    +0.000 HD
ENDBRANCH  14  20
ENDBRANCH   1  18
BRANCH   3  22
ATOM     22  O   UNL     1       3.728   7.342  17.319  0.00  0.00    +0.000 OA
ATOM     23  H   UNL     1       4.357   8.074  17.111  0.00  0.00    +0.000 HD
ENDBRANCH   3  22
TORSDOF 3
ENDMDL
MODEL 8
REMARK VINA RESULT:      -7.6      1.749      7.043
REMARK  Name = 
REMARK  3 active torsions:
REMARK  status: ('A' for Active; 'I' for Inactive)
REMARK    1  A    between atoms: O_1  and  C_2
REMARK    2  A    between atoms: C_6  and  C_7
REMARK    3  A    between atoms: C_9  and  O_10
REMARK                            x       y       z     vdW  Elec       q    Type
REMARK                         _______ _______ _______ _____ _____    ______ ____
ROOT
ATOM      1  C   UNL     1       4.902   4.936  15.946  0.00  0.00    +0.000 A 
ATOM      2  C   UNL     1       5.332   5.911  16.830  0.00  0.00    +0.000 A 
ATOM      3  C   UNL     1       4.493   6.208  17.863  0.00  0.00    +0.000 A 
ATOM      4  C   UNL     1       3.752   5.171  18.369  0.00  0.00    +0.000 A 
ATOM      5  C   UNL     1       3.611   5.049  19.752  0.00  0.00    +0.000 A 
ATOM      6  C   UNL     1       2.811   4.043  20.202  0.00  0.00    +0.000 A 
ATOM      7  C   UNL     1       2.085   3.275  19.324  0.00  0.00    +0.000 A 
ATOM      8  C   UNL     1       2.263   3.369  17.951  0.00  0.00    +0.000 A 
ATOM      9  C   UNL     1       3.249   4.231  17.453  0.00  0.00    +0.000 A 
ATOM     10  N   UNL     1       3.779   4.186  16.199  0.00  0.00    +0.000 NA
ATOM     11  O   UNL     1       1.269   2.406  19.983  0.00  0.00    +0.000 OA
ATOM     12  C   UNL     1       1.677   2.627  21.354  0.00  0.00    +0.000 C 
ATOM     13  O   UNL     1       2.641   3.687  21.498  0.00  0.00    +0.000 OA
ENDROOT
BRANCH   1  18
ATOM     14  C   UNL     1       7.713   5.147  13.430  0.00  0.00    +0.000 A 
ATOM     15  C   UNL     1       7.356   4.197  12.492  0.00  0.00    +0.000 A 
ATOM     16  C   UNL     1       6.158   3.501  12.656  0.00  0.00    +0.000 A 
ATOM     17  C   UNL     1       5.319   3.769  13.747  0.00  0.00    +0.000 A 
ATOM     18  C   UNL     1       5.678   4.721  14.713  0.00  0.00    +0.000 A 
ATOM     19  C   UNL     1       6.883   5.428  14.503  0.00  0.00    +0.000 A 
BRANCH  14  20
ATOM     20  O   UNL     1       8.872   5.866  13.338  0.00  0.00    +0.000 OA
ATOM     21  H   UNL     1       8.799   6.479  12.590  0.00  0.00    +0.000 HD
ENDBRANCH  14  20
ENDBRANCH   1  18
BRANCH   3  22
ATOM     22  O   UNL     1       3.665   7.317  17.498  0.00  0.00    +0.000 OA
ATOM     23  H   UNL     1       2.828   6.919  17.159  0.00  0.00    +0.000 HD
ENDBRANCH   3  22
TORSDOF 3
ENDMDL
MODEL 9
REMARK VINA RESULT:      -7.6      1.909      6.772
REMARK  Name = 
REMARK  3 active torsions:
REMARK  status: ('A' for Active; 'I' for Inactive)
REMARK    1  A    between atoms: O_1  and  C_2
REMARK    2  A    between atoms: C_6  and  C_7
REMARK    3  A    between atoms: C_9  and  O_10
REMARK                            x       y       z     vdW  Elec       q    Type
REMARK                         _______ _______ _______ _____ _____    ______ ____
ROOT
ATOM      1  C   UNL     1       6.356   5.021  15.735  0.00  0.00    +0.000 A 
ATOM      2  C   UNL     1       7.036   4.382  16.758  0.00  0.00    +0.000 A 
ATOM      3  C   UNL     1       6.784   4.823  18.023  0.00  0.00    +0.000 A 
ATOM      4  C   UNL     1       5.508   5.257  18.279  0.00  0.00    +0.000 A 
ATOM      5  C   UNL     1       4.896   4.893  19.478  0.00  0.00    +0.000 A 
ATOM      6  C   UNL     1       3.655   5.404  19.716  0.00  0.00    +0.000 A 
ATOM      7  C   UNL     1       3.103   6.332  18.867  0.00  0.00    +0.000 A 
ATOM      8  C   UNL     1       3.695   6.658  17.654  0.00  0.00    +0.000 A 
ATOM      9  C   UNL     1       4.857   5.979  17.264  0.00  0.00    +0.000 A 
ATOM     10  N   UNL     1       5.352   5.923  15.996  0.00  0.00    +0.000 NA
ATOM     11  O   UNL     1       1.914   6.796  19.344  0.00  0.00    +0.000 OA
ATOM     12  C   UNL     1       1.731   5.948  20.503  0.00  0.00    +0.000 C 
ATOM     13  O   UNL     1       2.850   5.079  20.755  0.00  0.00    +0.000 OA
ENDROOT
BRANCH   1  18
ATOM     14  C   UNL     1       6.373   3.392  12.326  0.00  0.00    +0.000 A 
ATOM     15  C   UNL     1       7.229   4.202  11.604  0.00  0.00    +0.000 A 
ATOM     16  C   UNL     1       7.847   5.275  12.246  0.00  0.00    +0.000 A 
ATOM     17  C   UNL     1       7.616   5.524  13.606  0.00  0.00    +0.000 A 
ATOM     18  C   UNL     1       6.738   4.717  14.346  0.00  0.00    +0.000 A 
ATOM     19  C   UNL     1       6.151   3.621  13.674  0.00  0.00    +0.000 A 
BRANCH  14  20
ATOM     20  O   UNL     1       5.729   2.324  11.764  0.00  0.00    +0.000 OA
ATOM     21  H   UNL     1       6.035   2.223  10.850  0.00  0.00    +0.000 HD
ENDBRANCH  14  20
ENDBRANCH   1  18
BRANCH   3  22
ATOM     22  O   UNL     1       7.758   5.808  18.385  0.00  0.00    +0.000 OA
ATOM     23  H   UNL     1       8.591   5.305  18.551  0.00  0.00    +0.000 HD
ENDBRANCH   3  22
TORSDOF 3
ENDMDL
