MODEL 1
REMARK VINA RESULT:      -7.7      0.000      0.000
REMARK  Name = 
REMARK  9 active torsions:
REMARK  status: ('A' for Active; 'I' for Inactive)
REMARK    1  A    between atoms: C_1  and  C_2
REMARK    2  A    between atoms: C_2  and  O_3
REMARK    3  A    between atoms: O_3  and  C_4
REMARK    4  A    between atoms: C_10  and  C_11
REMARK    5  A    between atoms: C_11  and  C_12
REMARK    6  A    between atoms: C_11  and  N_13
REMARK    7  A    between atoms: N_16  and  S_17
REMARK    8  A    between atoms: S_17  and  C_20
REMARK    9  A    between atoms: C_23  and  C_24
REMARK                            x       y       z     vdW  Elec       q    Type
REMARK                         _______ _______ _______ _____ _____    ______ ____
ROOT
ATOM      1  N   UNL     1       2.468   7.213  19.827  0.00  0.00    +0.000 N 
ATOM      2  C   UNL     1       2.706   6.032  19.189  0.00  0.00    +0.000 C 
ATOM      3  O   UNL     1       2.169   5.721  18.137  0.00  0.00    +0.000 OA
ATOM      4  N   UNL     1       3.637   5.230  19.826  0.00  0.00    +0.000 N 
ATOM      5  H   UNL     1       2.965   7.461  20.671  0.00  0.00    +0.000 HD
ATOM      6  H   UNL     1       4.165   5.553  20.623  0.00  0.00    +0.000 HD
ENDROOT
BRANCH   4   7
ATOM      7  S   UNL     1       4.159   3.763  19.222  0.00  0.00    +0.000 S 
ATOM      8  O   UNL     1       5.136   3.274  20.177  0.00  0.00    +0.000 OA
ATOM      9  O   UNL     1       3.006   2.966  18.873  0.00  0.00    +0.000 OA
BRANCH   7  10
ATOM     10  C   UNL     1       5.045   4.209  17.752  0.00  0.00    +0.000 A 
ATOM     11  C   UNL     1       4.460   3.980  16.504  0.00  0.00    +0.000 A 
ATOM     12  C   UNL     1       5.203   4.211  15.345  0.00  0.00    +0.000 A 
ATOM     13  C   UNL     1       6.522   4.680  15.428  0.00  0.00    +0.000 A 
ATOM     14  C   UNL     1       7.355   4.865  14.194  0.00  0.00    +0.000 C 
ATOM     15  C   UNL     1       7.077   4.950  16.686  0.00  0.00    +0.000 A 
ATOM     16  C   UNL     1       6.341   4.722  17.849  0.00  0.00    +0.000 A 
ENDBRANCH   7  10
ENDBRANCH   4   7
BRANCH   1  17
ATOM     17  C   UNL     1       1.630   8.227  19.218  0.00  0.00    +0.000 C 
ATOM     18  C   UNL     1       2.420   9.070  18.214  0.00  0.00    +0.000 C 
BRANCH  17  25
ATOM     19  C   UNL     1      -0.005  10.137  19.881  0.00  0.00    +0.000 A 
ATOM     20  C   UNL     1      -0.643  10.859  20.910  0.00  0.00    +0.000 A 
ATOM     21  C   UNL     1      -0.401  10.567  22.252  0.00  0.00    +0.000 A 
ATOM     22  C   UNL     1       0.484   9.555  22.579  0.00  0.00    +0.000 A 
ATOM     23  F   UNL     1       0.708   9.260  23.866  0.00  0.00    +0.000 F 
ATOM     24  C   UNL     1       1.136   8.837  21.586  0.00  0.00    +0.000 A 
ATOM     25  C   UNL     1       0.907   9.115  20.221  0.00  0.00    +0.000 A 
BRANCH  19  26
ATOM     26  O   UNL     1      -0.223  10.373  18.543  0.00  0.00    +0.000 OA
BRANCH  26  28
ATOM     27  C   UNL     1      -2.404   9.855  17.671  0.00  0.00    +0.000 C 
ATOM     28  C   UNL     1      -1.491  10.944  18.200  0.00  0.00    +0.000 C 
ENDBRANCH  26  28
ENDBRANCH  19  26
ENDBRANCH  17  25
ENDBRANCH   1  17
TORSDOF 6
ENDMDL
MODEL 2
REMARK VINA RESULT:      -7.6      3.341      8.361
REMARK  Name = 
REMARK  9 active torsions:
REMARK  status: ('A' for Active; 'I' for Inactive)
REMARK    1  A    between atoms: C_1  and  C_2
REMARK    2  A    between atoms: C_2  and  O_3
REMARK    3  A    between atoms: O_3  and  C_4
REMARK    4  A    between atoms: C_10  and  C_11
REMARK    5  A    between atoms: C_11  and  C_12
REMARK    6  A    between atoms: C_11  and  N_13
REMARK    7  A    between atoms: N_16  and  S_17
REMARK    8  A    between atoms: S_17  and  C_20
REMARK    9  A    between atoms: C_23  and  C_24
REMARK                            x       y       z     vdW  Elec       q    Type
REMARK                         _______ _______ _______ _____ _____    ______ ____
ROOT
ATOM      1  N   UNL     1       2.097   7.195  18.854  0.00  0.00    +0.000 N 
ATOM      2  C   UNL     1       1.947   8.519  18.564  0.00  0.00    +0.000 C 
ATOM      3  O   UNL     1       2.350   9.026  17.528  0.00  0.00    +0.000 OA
ATOM      4  N   UNL     1       1.267   9.231  19.537  0.00  0.00    +0.000 N 
ATOM      5  H   UNL     1       1.710   6.798  19.698  0.00  0.00    +0.000 HD
ATOM      6  H   UNL     1       0.831   8.777  20.325  0.00  0.00    +0.000 HD
ENDROOT
BRANCH   4   7
ATOM      7  S   UNL     1       0.891  10.852  19.401  0.00  0.00    +0.000 S 
ATOM      8  O   UNL     1       0.820  11.351  20.762  0.00  0.00    +0.000 OA
ATOM      9  O   UNL     1       1.780  11.459  18.439  0.00  0.00    +0.000 OA
BRANCH   7  10
ATOM     10  C   UNL     1      -0.765  10.844  18.763  0.00  0.00    +0.000 A 
ATOM     11  C   UNL     1      -1.070  10.038  17.663  0.00  0.00    +0.000 A 
ATOM     12  C   UNL     1      -2.335  10.123  17.080  0.00  0.00    +0.000 A 
ATOM     13  C   UNL     1      -3.298  11.000  17.599  0.00  0.00    +0.000 A 
ATOM     14  C   UNL     1      -4.637  11.154  16.939  0.00  0.00    +0.000 C 
ATOM     15  C   UNL     1      -2.992  11.766  18.731  0.00  0.00    +0.000 A 
ATOM     16  C   UNL     1      -1.729  11.686  19.320  0.00  0.00    +0.000 A 
ENDBRANCH   7  10
ENDBRANCH   4   7
BRANCH   1  17
ATOM     17  C   UNL     1       2.657   6.283  17.876  0.00  0.00    +0.000 C 
ATOM     18  C   UNL     1       1.780   5.041  17.710  0.00  0.00    +0.000 C 
BRANCH  17  25
ATOM     19  C   UNL     1       4.532   5.120  19.252  0.00  0.00    +0.000 A 
ATOM     20  C   UNL     1       5.898   4.789  19.368  0.00  0.00    +0.000 A 
ATOM     21  C   UNL     1       6.822   5.198  18.406  0.00  0.00    +0.000 A 
ATOM     22  C   UNL     1       6.393   5.944  17.324  0.00  0.00    +0.000 A 
ATOM     23  F   UNL     1       7.274   6.325  16.390  0.00  0.00    +0.000 F 
ATOM     24  C   UNL     1       5.056   6.295  17.192  0.00  0.00    +0.000 A 
ATOM     25  C   UNL     1       4.102   5.893  18.152  0.00  0.00    +0.000 A 
BRANCH  19  26
ATOM     26  O   UNL     1       3.578   4.727  20.161  0.00  0.00    +0.000 OA
BRANCH  26  28
ATOM     27  C   UNL     1       2.352   3.059  21.387  0.00  0.00    +0.000 C 
ATOM     28  C   UNL     1       3.417   3.314  20.339  0.00  0.00    +0.000 C 
ENDBRANCH  26  28
ENDBRANCH  19  26
ENDBRANCH  17  25
ENDBRANCH   1  17
TORSDOF 6
ENDMDL
MODEL 3
REMARK VINA RESULT:      -7.5      2.948      7.968
REMARK  Name = 
REMARK  9 active torsions:
REMARK  status: ('A' for Active; 'I' for Inactive)
REMARK    1  A    between atoms: C_1  and  C_2
REMARK    2  A    between atoms: C_2  and  O_3
REMARK    3  A    between atoms: O_3  and  C_4
REMARK    4  A    between atoms: C_10  and  C_11
REMARK    5  A    between atoms: C_11  and  C_12
REMARK    6  A    between atoms: C_11  and  N_13
REMARK    7  A    between atoms: N_16  and  S_17
REMARK    8  A    between atoms: S_17  and  C_20
REMARK    9  A    between atoms: C_23  and  C_24
REMARK                            x       y       z     vdW  Elec       q    Type
REMARK                         _______ _______ _______ _____ _____    ______ ____
ROOT
ATOM      1  N   UNL     1       2.507   7.107  19.272  0.00  0.00    +0.000 N 
ATOM      2  C   UNL     1       1.769   7.951  20.048  0.00  0.00    +0.000 C 
ATOM      3  O   UNL     1       1.596   7.778  21.246  0.00  0.00    +0.000 OA
ATOM      4  N   UNL     1       1.260   9.040  19.363  0.00  0.00    +0.000 N 
ATOM      5  H   UNL     1       2.671   7.303  18.296  0.00  0.00    +0.000 HD
ATOM      6  H   UNL     1       1.515   9.236  18.406  0.00  0.00    +0.000 HD
ENDROOT
BRANCH   4   7
ATOM      7  S   UNL     1       0.378  10.258  20.088  0.00  0.00    +0.000 S 
ATOM      8  O   UNL     1      -0.255   9.647  21.242  0.00  0.00    +0.000 OA
ATOM      9  O   UNL     1       1.222  11.419  20.239  0.00  0.00    +0.000 OA
BRANCH   7  10
ATOM     10  C   UNL     1      -0.905  10.600  18.912  0.00  0.00    +0.000 A 
ATOM     11  C   UNL     1      -1.866  11.570  19.210  0.00  0.00    +0.000 A 
ATOM     12  C   UNL     1      -2.948  11.753  18.347  0.00  0.00    +0.000 A 
ATOM     13  C   UNL     1      -3.065  10.981  17.182  0.00  0.00    +0.000 A 
ATOM     14  C   UNL     1      -4.258  11.117  16.282  0.00  0.00    +0.000 C 
ATOM     15  C   UNL     1      -2.068  10.046  16.873  0.00  0.00    +0.000 A 
ATOM     16  C   UNL     1      -0.984   9.857  17.731  0.00  0.00    +0.000 A 
ENDBRANCH   7  10
ENDBRANCH   4   7
BRANCH   1  17
ATOM     17  C   UNL     1       3.229   5.998  19.866  0.00  0.00    +0.000 C 
ATOM     18  C   UNL     1       4.652   5.904  19.313  0.00  0.00    +0.000 C 
BRANCH  17  25
ATOM     19  C   UNL     1       2.419   3.898  18.565  0.00  0.00    +0.000 A 
ATOM     20  C   UNL     1       1.764   2.650  18.601  0.00  0.00    +0.000 A 
ATOM     21  C   UNL     1       1.226   2.153  19.788  0.00  0.00    +0.000 A 
ATOM     22  C   UNL     1       1.333   2.899  20.948  0.00  0.00    +0.000 A 
ATOM     23  F   UNL     1       0.832   2.419  22.093  0.00  0.00    +0.000 F 
ATOM     24  C   UNL     1       1.961   4.137  20.937  0.00  0.00    +0.000 A 
ATOM     25  C   UNL     1       2.513   4.661  19.748  0.00  0.00    +0.000 A 
BRANCH  19  26
ATOM     26  O   UNL     1       2.982   4.424  17.425  0.00  0.00    +0.000 OA
BRANCH  26  28
ATOM     27  C   UNL     1       4.854   4.545  15.921  0.00  0.00    +0.000 C 
ATOM     28  C   UNL     1       4.023   3.650  16.818  0.00  0.00    +0.000 C 
ENDBRANCH  26  28
ENDBRANCH  19  26
ENDBRANCH  17  25
ENDBRANCH   1  17
TORSDOF 6
ENDMDL
MODEL 4
REMARK VINA RESULT:      -7.4      3.235      8.400
REMARK  Name = 
REMARK  9 active torsions:
REMARK  status: ('A' for Active; 'I' for Inactive)
REMARK    1  A    between atoms: C_1  and  C_2
REMARK    2  A    between atoms: C_2  and  O_3
REMARK    3  A    between atoms: O_3  and  C_4
REMARK    4  A    between atoms: C_10  and  C_11
REMARK    5  A    between atoms: C_11  and  C_12
REMARK    6  A    between atoms: C_11  and  N_13
REMARK    7  A    between atoms: N_16  and  S_17
REMARK    8  A    between atoms: S_17  and  C_20
REMARK    9  A    between atoms: C_23  and  C_24
REMARK                            x       y       z     vdW  Elec       q    Type
REMARK                         _______ _______ _______ _____ _____    ______ ____
ROOT
ATOM      1  N   UNL     1       2.707   7.571  17.491  0.00  0.00    +0.000 N 
ATOM      2  C   UNL     1       2.178   8.175  18.594  0.00  0.00    +0.000 C 
ATOM      3  O   UNL     1       2.580   7.964  19.728  0.00  0.00    +0.000 OA
ATOM      4  N   UNL     1       1.165   9.074  18.308  0.00  0.00    +0.000 N 
ATOM      5  H   UNL     1       2.384   7.803  16.563  0.00  0.00    +0.000 HD
ATOM      6  H   UNL     1       0.931   9.332  17.360  0.00  0.00    +0.000 HD
ENDROOT
BRANCH   4   7
ATOM      7  S   UNL     1       0.395   9.996  19.467  0.00  0.00    +0.000 S 
ATOM      8  O   UNL     1      -0.005   9.063  20.504  0.00  0.00    +0.000 OA
ATOM      9  O   UNL     1       1.221  11.138  19.781  0.00  0.00    +0.000 OA
BRANCH   7  10
ATOM     10  C   UNL     1      -1.087  10.535  18.653  0.00  0.00    +0.000 A 
ATOM     11  C   UNL     1      -1.885  11.509  19.259  0.00  0.00    +0.000 A 
ATOM     12  C   UNL     1      -3.113  11.844  18.687  0.00  0.00    +0.000 A 
ATOM     13  C   UNL     1      -3.539  11.219  17.506  0.00  0.00    +0.000 A 
ATOM     14  C   UNL     1      -4.887  11.517  16.918  0.00  0.00    +0.000 C 
ATOM     15  C   UNL     1      -2.705  10.279  16.885  0.00  0.00    +0.000 A 
ATOM     16  C   UNL     1      -1.477   9.939  17.451  0.00  0.00    +0.000 A 
ENDBRANCH   7  10
ENDBRANCH   4   7
BRANCH   1  17
ATOM     17  C   UNL     1       3.870   6.713  17.604  0.00  0.00    +0.000 C 
ATOM     18  C   UNL     1       4.780   6.849  16.382  0.00  0.00    +0.000 C 
BRANCH  17  25
ATOM     19  C   UNL     1       4.486   4.248  18.154  0.00  0.00    +0.000 A 
ATOM     20  C   UNL     1       4.041   2.939  18.430  0.00  0.00    +0.000 A 
ATOM     21  C   UNL     1       2.681   2.629  18.446  0.00  0.00    +0.000 A 
ATOM     22  C   UNL     1       1.754   3.621  18.182  0.00  0.00    +0.000 A 
ATOM     23  F   UNL     1       0.447   3.331  18.212  0.00  0.00    +0.000 F 
ATOM     24  C   UNL     1       2.166   4.915  17.894  0.00  0.00    +0.000 A 
ATOM     25  C   UNL     1       3.536   5.253  17.872  0.00  0.00    +0.000 A 
BRANCH  19  26
ATOM     26  O   UNL     1       5.813   4.610  18.145  0.00  0.00    +0.000 OA
BRANCH  26  28
ATOM     27  C   UNL     1       7.654   5.851  19.069  0.00  0.00    +0.000 C 
ATOM     28  C   UNL     1       6.320   5.189  19.353  0.00  0.00    +0.000 C 
ENDBRANCH  26  28
ENDBRANCH  19  26
ENDBRANCH  17  25
ENDBRANCH   1  17
TORSDOF 6
ENDMDL
MODEL 5
REMARK VINA RESULT:      -7.4      2.824      3.567
REMARK  Name = 
REMARK  9 active torsions:
REMARK  status: ('A' for Active; 'I' for Inactive)
REMARK    1  A    between atoms: C_1  and  C_2
REMARK    2  A    between atoms: C_2  and  O_3
REMARK    3  A    between atoms: O_3  and  C_4
REMARK    4  A    between atoms: C_10  and  C_11
REMARK    5  A    between atoms: C_11  and  C_12
REMARK    6  A    between atoms: C_11  and  N_13
REMARK    7  A    between atoms: N_16  and  S_17
REMARK    8  A    between atoms: S_17  and  C_20
REMARK    9  A    between atoms: C_23  and  C_24
REMARK                            x       y       z     vdW  Elec       q    Type
REMARK                         _______ _______ _______ _____ _____    ______ ____
ROOT
ATOM      1  N   UNL     1       1.530   9.328  18.532  0.00  0.00    +0.000 N 
ATOM      2  C   UNL     1       1.897   8.133  19.078  0.00  0.00    +0.000 C 
ATOM      3  O   UNL     1       1.591   7.795  20.211  0.00  0.00    +0.000 OA
ATOM      4  N   UNL     1       2.622   7.325  18.220  0.00  0.00    +0.000 N 
ATOM      5  H   UNL     1       1.759   9.558  17.575  0.00  0.00    +0.000 HD
ATOM      6  H   UNL     1       2.759   7.563  17.248  0.00  0.00    +0.000 HD
ENDROOT
BRANCH   4   7
ATOM      7  S   UNL     1       3.137   5.787  18.615  0.00  0.00    +0.000 S 
ATOM      8  O   UNL     1       3.948   5.941  19.808  0.00  0.00    +0.000 OA
ATOM      9  O   UNL     1       1.999   4.897  18.607  0.00  0.00    +0.000 OA
BRANCH   7  10
ATOM     10  C   UNL     1       4.237   5.362  17.289  0.00  0.00    +0.000 A 
ATOM     11  C   UNL     1       4.751   6.375  16.475  0.00  0.00    +0.000 A 
ATOM     12  C   UNL     1       5.513   6.037  15.356  0.00  0.00    +0.000 A 
ATOM     13  C   UNL     1       5.774   4.692  15.056  0.00  0.00    +0.000 A 
ATOM     14  C   UNL     1       6.531   4.310  13.818  0.00  0.00    +0.000 C 
ATOM     15  C   UNL     1       5.291   3.690  15.909  0.00  0.00    +0.000 A 
ATOM     16  C   UNL     1       4.529   4.021  17.029  0.00  0.00    +0.000 A 
ENDBRANCH   7  10
ENDBRANCH   4   7
BRANCH   1  17
ATOM     17  C   UNL     1       0.646  10.227  19.246  0.00  0.00    +0.000 C 
ATOM     18  C   UNL     1      -0.699  10.366  18.532  0.00  0.00    +0.000 C 
BRANCH  17  25
ATOM     19  C   UNL     1       1.103  12.307  20.738  0.00  0.00    +0.000 A 
ATOM     20  C   UNL     1       1.756  13.547  20.891  0.00  0.00    +0.000 A 
ATOM     21  C   UNL     1       2.559  14.068  19.875  0.00  0.00    +0.000 A 
ATOM     22  C   UNL     1       2.712  13.358  18.698  0.00  0.00    +0.000 A 
ATOM     23  F   UNL     1       3.495  13.846  17.727  0.00  0.00    +0.000 F 
ATOM     24  C   UNL     1       2.070  12.141  18.517  0.00  0.00    +0.000 A 
ATOM     25  C   UNL     1       1.253  11.594  19.530  0.00  0.00    +0.000 A 
BRANCH  19  26
ATOM     26  O   UNL     1       0.316  11.742  21.714  0.00  0.00    +0.000 OA
BRANCH  26  28
ATOM     27  C   UNL     1      -1.197  12.996  23.101  0.00  0.00    +0.000 C 
ATOM     28  C   UNL     1      -1.028  12.228  21.805  0.00  0.00    +0.000 C 
ENDBRANCH  26  28
ENDBRANCH  19  26
ENDBRANCH  17  25
ENDBRANCH   1  17
TORSDOF 6
ENDMDL
MODEL 6
REMARK VINA RESULT:      -7.3      2.802      3.462
REMARK  Name = 
REMARK  9 active torsions:
REMARK  status: ('A' for Active; 'I' for Inactive)
REMARK    1  A    between atoms: C_1  and  C_2
REMARK    2  A    between atoms: C_2  and  O_3
REMARK    3  A    between atoms: O_3  and  C_4
REMARK    4  A    between atoms: C_10  and  C_11
REMARK    5  A    between atoms: C_11  and  C_12
REMARK    6  A    between atoms: C_11  and  N_13
REMARK    7  A    between atoms: N_16  and  S_17
REMARK    8  A    between atoms: S_17  and  C_20
REMARK    9  A    between atoms: C_23  and  C_24
REMARK                            x       y       z     vdW  Elec       q    Type
REMARK                         _______ _______ _______ _____ _____    ______ ____
ROOT
ATOM      1  N   UNL     1       1.489   9.356  18.694  0.00  0.00    +0.000 N 
ATOM      2  C   UNL     1       1.882   8.146  19.184  0.00  0.00    +0.000 C 
ATOM      3  O   UNL     1       1.597   7.755  20.306  0.00  0.00    +0.000 OA
ATOM      4  N   UNL     1       2.606   7.386  18.282  0.00  0.00    +0.000 N 
ATOM      5  H   UNL     1       1.699   9.630  17.746  0.00  0.00    +0.000 HD
ATOM      6  H   UNL     1       2.724   7.667  17.320  0.00  0.00    +0.000 HD
ENDROOT
BRANCH   4   7
ATOM      7  S   UNL     1       3.150   5.840  18.604  0.00  0.00    +0.000 S 
ATOM      8  O   UNL     1       4.058   5.973  19.728  0.00  0.00    +0.000 OA
ATOM      9  O   UNL     1       2.015   4.950  18.675  0.00  0.00    +0.000 OA
BRANCH   7  10
ATOM     10  C   UNL     1       4.135   5.441  17.184  0.00  0.00    +0.000 A 
ATOM     11  C   UNL     1       4.400   4.101  16.889  0.00  0.00    +0.000 A 
ATOM     12  C   UNL     1       5.277   3.787  15.850  0.00  0.00    +0.000 A 
ATOM     13  C   UNL     1       5.880   4.806  15.098  0.00  0.00    +0.000 A 
ATOM     14  C   UNL     1       6.878   4.485  14.025  0.00  0.00    +0.000 C 
ATOM     15  C   UNL     1       5.567   6.143  15.376  0.00  0.00    +0.000 A 
ATOM     16  C   UNL     1       4.691   6.465  16.413  0.00  0.00    +0.000 A 
ENDBRANCH   7  10
ENDBRANCH   4   7
BRANCH   1  17
ATOM     17  C   UNL     1       0.601  10.210  19.459  0.00  0.00    +0.000 C 
ATOM     18  C   UNL     1      -0.797  10.253  18.840  0.00  0.00    +0.000 C 
BRANCH  17  25
ATOM     19  C   UNL     1       0.993  12.355  20.875  0.00  0.00    +0.000 A 
ATOM     20  C   UNL     1       1.579  13.634  20.969  0.00  0.00    +0.000 A 
ATOM     21  C   UNL     1       2.312  14.169  19.909  0.00  0.00    +0.000 A 
ATOM     22  C   UNL     1       2.462  13.436  18.747  0.00  0.00    +0.000 A 
ATOM     23  F   UNL     1       3.179  13.938  17.734  0.00  0.00    +0.000 F 
ATOM     24  C   UNL     1       1.885  12.179  18.624  0.00  0.00    +0.000 A 
ATOM     25  C   UNL     1       1.138  11.617  19.682  0.00  0.00    +0.000 A 
BRANCH  19  26
ATOM     26  O   UNL     1       0.277  11.775  21.896  0.00  0.00    +0.000 OA
BRANCH  26  28
ATOM     27  C   UNL     1      -1.999  12.471  21.548  0.00  0.00    +0.000 C 
ATOM     28  C   UNL     1      -0.785  12.560  22.451  0.00  0.00    +0.000 C 
ENDBRANCH  26  28
ENDBRANCH  19  26
ENDBRANCH  17  25
ENDBRANCH   1  17
TORSDOF 6
ENDMDL
MODEL 7
REMARK VINA RESULT:      -7.3      2.865      8.510
REMARK  Name = 
REMARK  9 active torsions:
REMARK  status: ('A' for Active; 'I' for Inactive)
REMARK    1  A    between atoms: C_1  and  C_2
REMARK    2  A    between atoms: C_2  and  O_3
REMARK    3  A    between atoms: O_3  and  C_4
REMARK    4  A    between atoms: C_10  and  C_11
REMARK    5  A    between atoms: C_11  and  C_12
REMARK    6  A    between atoms: C_11  and  N_13
REMARK    7  A    between atoms: N_16  and  S_17
REMARK    8  A    between atoms: S_17  and  C_20
REMARK    9  A    between atoms: C_23  and  C_24
REMARK                            x       y       z     vdW  Elec       q    Type
REMARK                         _______ _______ _______ _____ _____    ______ ____
ROOT
ATOM      1  N   UNL     1       2.965   6.264  18.615  0.00  0.00    +0.000 N 
ATOM      2  C   UNL     1       2.579   7.443  18.050  0.00  0.00    +0.000 C 
ATOM      3  O   UNL     1       2.762   7.711  16.872  0.00  0.00    +0.000 OA
ATOM      4  N   UNL     1       1.931   8.297  18.925  0.00  0.00    +0.000 N 
ATOM      5  H   UNL     1       2.757   6.053  19.580  0.00  0.00    +0.000 HD
ATOM      6  H   UNL     1       1.675   8.012  19.859  0.00  0.00    +0.000 HD
ENDROOT
BRANCH   4   7
ATOM      7  S   UNL     1       1.298   9.775  18.475  0.00  0.00    +0.000 S 
ATOM      8  O   UNL     1       2.443  10.632  18.232  0.00  0.00    +0.000 OA
ATOM      9  O   UNL     1       0.304   9.564  17.448  0.00  0.00    +0.000 OA
BRANCH   7  10
ATOM     10  C   UNL     1       0.514  10.361  19.955  0.00  0.00    +0.000 A 
ATOM     11  C   UNL     1       0.472   9.534  21.080  0.00  0.00    +0.000 A 
ATOM     12  C   UNL     1      -0.252   9.938  22.203  0.00  0.00    +0.000 A 
ATOM     13  C   UNL     1      -0.923  11.170  22.208  0.00  0.00    +0.000 A 
ATOM     14  C   UNL     1      -1.763  11.586  23.380  0.00  0.00    +0.000 C 
ATOM     15  C   UNL     1      -0.831  12.008  21.089  0.00  0.00    +0.000 A 
ATOM     16  C   UNL     1      -0.109  11.611  19.964  0.00  0.00    +0.000 A 
ENDBRANCH   7  10
ENDBRANCH   4   7
BRANCH   1  17
ATOM     17  C   UNL     1       3.526   5.203  17.801  0.00  0.00    +0.000 C 
ATOM     18  C   UNL     1       2.874   3.856  18.120  0.00  0.00    +0.000 C 
BRANCH  17  25
ATOM     19  C   UNL     1       5.884   4.770  16.794  0.00  0.00    +0.000 A 
ATOM     20  C   UNL     1       7.280   4.755  16.985  0.00  0.00    +0.000 A 
ATOM     21  C   UNL     1       7.840   5.081  18.221  0.00  0.00    +0.000 A 
ATOM     22  C   UNL     1       7.012   5.419  19.275  0.00  0.00    +0.000 A 
ATOM     23  F   UNL     1       7.546   5.748  20.459  0.00  0.00    +0.000 F 
ATOM     24  C   UNL     1       5.633   5.429  19.117  0.00  0.00    +0.000 A 
ATOM     25  C   UNL     1       5.043   5.102  17.877  0.00  0.00    +0.000 A 
BRANCH  19  26
ATOM     26  O   UNL     1       5.282   4.475  15.592  0.00  0.00    +0.000 OA
BRANCH  26  28
ATOM     27  C   UNL     1       5.408   3.920  13.255  0.00  0.00    +0.000 C 
ATOM     28  C   UNL     1       6.120   3.883  14.592  0.00  0.00    +0.000 C 
ENDBRANCH  26  28
ENDBRANCH  19  26
ENDBRANCH  17  25
ENDBRANCH   1  17
TORSDOF 6
ENDMDL
MODEL 8
REMARK VINA RESULT:      -7.2      3.044      8.477
REMARK  Name = 
REMARK  9 active torsions:
REMARK  status: ('A' for Active; 'I' for Inactive)
REMARK    1  A    between atoms: C_1  and  C_2
REMARK    2  A    between atoms: C_2  and  O_3
REMARK    3  A    between atoms: O_3  and  C_4
REMARK    4  A    between atoms: C_10  and  C_11
REMARK    5  A    between atoms: C_11  and  C_12
REMARK    6  A    between atoms: C_11  and  N_13
REMARK    7  A    between atoms: N_16  and  S_17
REMARK    8  A    between atoms: S_17  and  C_20
REMARK    9  A    between atoms: C_23  and  C_24
REMARK                            x       y       z     vdW  Elec       q    Type
REMARK                         _______ _______ _______ _____ _____    ______ ____
ROOT
ATOM      1  N   UNL     1       2.452   7.530  17.999  0.00  0.00    +0.000 N 
ATOM      2  C   UNL     1       1.874   8.169  19.055  0.00  0.00    +0.000 C 
ATOM      3  O   UNL     1       2.155   7.924  20.219  0.00  0.00    +0.000 OA
ATOM      4  N   UNL     1       0.962   9.144  18.689  0.00  0.00    +0.000 N 
ATOM      5  H   UNL     1       2.234   7.789  17.048  0.00  0.00    +0.000 HD
ATOM      6  H   UNL     1       0.834   9.422  17.727  0.00  0.00    +0.000 HD
ENDROOT
BRANCH   4   7
ATOM      7  S   UNL     1       0.162  10.118  19.784  0.00  0.00    +0.000 S 
ATOM      8  O   UNL     1      -0.316   9.225  20.823  0.00  0.00    +0.000 OA
ATOM      9  O   UNL     1       1.005  11.244  20.110  0.00  0.00    +0.000 OA
BRANCH   7  10
ATOM     10  C   UNL     1      -1.261  10.676  18.882  0.00  0.00    +0.000 A 
ATOM     11  C   UNL     1      -2.105  11.628  19.458  0.00  0.00    +0.000 A 
ATOM     12  C   UNL     1      -3.291  11.977  18.810  0.00  0.00    +0.000 A 
ATOM     13  C   UNL     1      -3.629  11.386  17.583  0.00  0.00    +0.000 A 
ATOM     14  C   UNL     1      -4.933  11.697  16.910  0.00  0.00    +0.000 C 
ATOM     15  C   UNL     1      -2.748  10.468  16.996  0.00  0.00    +0.000 A 
ATOM     16  C   UNL     1      -1.560  10.115  17.639  0.00  0.00    +0.000 A 
ENDBRANCH   7  10
ENDBRANCH   4   7
BRANCH   1  17
ATOM     17  C   UNL     1       3.532   6.586  18.207  0.00  0.00    +0.000 C 
ATOM     18  C   UNL     1       4.755   6.946  17.361  0.00  0.00    +0.000 C 
BRANCH  17  25
ATOM     19  C   UNL     1       3.851   4.209  17.202  0.00  0.00    +0.000 A 
ATOM     20  C   UNL     1       3.398   2.876  17.120  0.00  0.00    +0.000 A 
ATOM     21  C   UNL     1       2.265   2.457  17.817  0.00  0.00    +0.000 A 
ATOM     22  C   UNL     1       1.572   3.364  18.598  0.00  0.00    +0.000 A 
ATOM     23  F   UNL     1       0.493   2.962  19.282  0.00  0.00    +0.000 F 
ATOM     24  C   UNL     1       1.990   4.685  18.687  0.00  0.00    +0.000 A 
ATOM     25  C   UNL     1       3.133   5.133  17.990  0.00  0.00    +0.000 A 
BRANCH  19  26
ATOM     26  O   UNL     1       4.972   4.668  16.550  0.00  0.00    +0.000 OA
BRANCH  26  28
ATOM     27  C   UNL     1       5.903   4.172  14.388  0.00  0.00    +0.000 C 
ATOM     28  C   UNL     1       5.721   3.693  15.815  0.00  0.00    +0.000 C 
ENDBRANCH  26  28
ENDBRANCH  19  26
ENDBRANCH  17  25
ENDBRANCH   1  17
TORSDOF 6
ENDMDL
MODEL 9
REMARK VINA RESULT:      -7.1      3.295      8.774
REMARK  Name = 
REMARK  9 active torsions:
REMARK  status: ('A' for Active; 'I' for Inactive)
REMARK    1  A    between atoms: C_1  and  C_2
REMARK    2  A    between atoms: C_2  and  O_3
REMARK    3  A    between atoms: O_3  and  C_4
REMARK    4  A    between atoms: C_10  and  C_11
REMARK    5  A    between atoms: C_11  and  C_12
REMARK    6  A    between atoms: C_11  and  N_13
REMARK    7  A    between atoms: N_16  and  S_17
REMARK    8  A    between atoms: S_17  and  C_20
REMARK    9  A    between atoms: C_23  and  C_24
REMARK                            x       y       z     vdW  Elec       q    Type
REMARK                         _______ _______ _______ _____ _____    ______ ____
ROOT
ATOM      1  N   UNL     1       2.206   7.479  18.832  0.00  0.00    +0.000 N 
ATOM      2  C   UNL     1       1.878   8.732  18.405  0.00  0.00    +0.000 C 
ATOM      3  O   UNL     1       2.119   9.137  17.278  0.00  0.00    +0.000 OA
ATOM      4  N   UNL     1       1.218   9.492  19.354  0.00  0.00    +0.000 N 
ATOM      5  H   UNL     1       1.950   7.157  19.754  0.00  0.00    +0.000 HD
ATOM      6  H   UNL     1       0.914   9.102  20.234  0.00  0.00    +0.000 HD
ENDROOT
BRANCH   4   7
ATOM      7  S   UNL     1       0.648  11.035  19.069  0.00  0.00    +0.000 S 
ATOM      8  O   UNL     1       1.817  11.894  19.097  0.00  0.00    +0.000 OA
ATOM      9  O   UNL     1      -0.219  11.006  17.914  0.00  0.00    +0.000 OA
BRANCH   7  10
ATOM     10  C   UNL     1      -0.303  11.403  20.521  0.00  0.00    +0.000 A 
ATOM     11  C   UNL     1      -0.177  10.586  21.647  0.00  0.00    +0.000 A 
ATOM     12  C   UNL     1      -1.013  10.795  22.744  0.00  0.00    +0.000 A 
ATOM     13  C   UNL     1      -1.966  11.823  22.724  0.00  0.00    +0.000 A 
ATOM     14  C   UNL     1      -2.920  12.014  23.867  0.00  0.00    +0.000 C 
ATOM     15  C   UNL     1      -2.048  12.664  21.606  0.00  0.00    +0.000 A 
ATOM     16  C   UNL     1      -1.214  12.461  20.506  0.00  0.00    +0.000 A 
ENDBRANCH   7  10
ENDBRANCH   4   7
BRANCH   1  17
ATOM     17  C   UNL     1       2.770   6.509  17.914  0.00  0.00    +0.000 C 
ATOM     18  C   UNL     1       1.886   5.265  17.809  0.00  0.00    +0.000 C 
BRANCH  17  25
ATOM     19  C   UNL     1       4.609   5.307  19.306  0.00  0.00    +0.000 A 
ATOM     20  C   UNL     1       5.973   4.989  19.460  0.00  0.00    +0.000 A 
ATOM     21  C   UNL     1       6.928   5.457  18.556  0.00  0.00    +0.000 A 
ATOM     22  C   UNL     1       6.529   6.248  17.495  0.00  0.00    +0.000 A 
ATOM     23  F   UNL     1       7.439   6.686  16.615  0.00  0.00    +0.000 F 
ATOM     24  C   UNL     1       5.193   6.586  17.327  0.00  0.00    +0.000 A 
ATOM     25  C   UNL     1       4.209   6.126  18.228  0.00  0.00    +0.000 A 
BRANCH  19  26
ATOM     26  O   UNL     1       3.626   4.857  20.157  0.00  0.00    +0.000 OA
BRANCH  26  28
ATOM     27  C   UNL     1       2.315   3.118  21.178  0.00  0.00    +0.000 C 
ATOM     28  C   UNL     1       3.463   3.436  20.242  0.00  0.00    +0.000 C 
ENDBRANCH  26  28
ENDBRANCH  19  26
ENDBRANCH  17  25
ENDBRANCH   1  17
TORSDOF 6
ENDMDL
