MODEL 1
REMARK VINA RESULT:      -6.2      0.000      0.000
REMARK  Name = 
REMARK  7 active torsions:
REMARK  status: ('A' for Active; 'I' for Inactive)
REMARK    1  A    between atoms: C_1  and  O_2
REMARK    2  A    between atoms: O_2  and  C_3
REMARK    3  A    between atoms: C_18  and  C_19
REMARK    4  A    between atoms: C_19  and  C_20
REMARK    5  A    between atoms: C_20  and  N_21
REMARK    6  A    between atoms: N_21  and  C_22
REMARK    7  A    between atoms: N_21  and  C_23
REMARK                            x       y       z     vdW  Elec       q    Type
REMARK                         _______ _______ _______ _____ _____    ______ ____
ROOT
ATOM      1  C   UNL     1       2.531   3.557  20.844  0.00  0.00    +0.000 A 
ATOM      2  C   UNL     1       3.185   2.405  20.418  0.00  0.00    +0.000 A 
ATOM      3  C   UNL     1       3.921   2.463  19.267  0.00  0.00    +0.000 A 
ATOM      4 CL   UNL     1       4.767   1.060  18.723  0.00  0.00    +0.000 Cl
ATOM      5  C   UNL     1       3.995   3.644  18.530  0.00  0.00    +0.000 A 
ATOM      6  C   UNL     1       3.334   4.842  18.876  0.00  0.00    +0.000 A 
ATOM      7  C   UNL     1       2.581   4.766  20.075  0.00  0.00    +0.000 A 
ATOM      8  S   UNL     1       1.663   6.133  20.749  0.00  0.00    +0.000 S 
ATOM      9  C   UNL     1       1.898   7.467  19.619  0.00  0.00    +0.000 A 
ATOM     10  C   UNL     1       1.206   8.644  19.994  0.00  0.00    +0.000 A 
ATOM     11  C   UNL     1       1.263   9.799  19.229  0.00  0.00    +0.000 A 
ATOM     12  C   UNL     1       2.017   9.786  18.073  0.00  0.00    +0.000 A 
ATOM     13  C   UNL     1       2.705   8.623  17.694  0.00  0.00    +0.000 A 
ATOM     14  C   UNL     1       2.678   7.421  18.452  0.00  0.00    +0.000 A 
ATOM     15  C   UNL     1       3.422   6.142  18.039  0.00  0.00    +0.000 C 
ATOM     16  C   UNL     1       4.159   6.226  16.889  0.00  0.00    +0.000 C 
ENDROOT
BRANCH   1  18
ATOM     17  C   UNL     1       1.092   2.350  22.310  0.00  0.00    +0.000 C 
ATOM     18  O   UNL     1       1.781   3.559  22.004  0.00  0.00    +0.000 OA
ENDBRANCH   1  18
BRANCH  16  19
ATOM     19  C   UNL     1       4.945   5.169  16.164  0.00  0.00    +0.000 C 
BRANCH  19  20
ATOM     20  C   UNL     1       6.210   5.538  15.370  0.00  0.00    +0.000 C 
BRANCH  20  21
ATOM     21  N   UNL     1       7.366   5.660  16.291  0.00  0.00    +0.000 NA
ATOM     22  C   UNL     1       7.381   6.928  17.030  0.00  0.00    +0.000 C 
ATOM     23  C   UNL     1       7.412   4.542  17.231  0.00  0.00    +0.000 C 
ENDBRANCH  20  21
ENDBRANCH  19  20
ENDBRANCH  16  19
TORSDOF 4
ENDMDL
MODEL 2
REMARK VINA RESULT:      -6.2      7.745     10.333
REMARK  Name = 
REMARK  7 active torsions:
REMARK  status: ('A' for Active; 'I' for Inactive)
REMARK    1  A    between atoms: C_1  and  O_2
REMARK    2  A    between atoms: O_2  and  C_3
REMARK    3  A    between atoms: C_18  and  C_19
REMARK    4  A    between atoms: C_19  and  C_20
REMARK    5  A    between atoms: C_20  and  N_21
REMARK    6  A    between atoms: N_21  and  C_22
REMARK    7  A    between atoms: N_21  and  C_23
REMARK                            x       y       z     vdW  Elec       q    Type
REMARK                         _______ _______ _______ _____ _____    ______ ____
ROOT
ATOM      1  C   UNL     1      -3.319  10.597  16.652  0.00  0.00    +0.000 A 
ATOM      2  C   UNL     1      -2.012  10.133  16.756  0.00  0.00    +0.000 A 
ATOM      3  C   UNL     1      -1.309  10.419  17.894  0.00  0.00    +0.000 A 
ATOM      4 CL   UNL     1       0.306   9.837  18.069  0.00  0.00    +0.000 Cl
ATOM      5  C   UNL     1      -1.885  11.177  18.913  0.00  0.00    +0.000 A 
ATOM      6  C   UNL     1      -3.191  11.712  18.867  0.00  0.00    +0.000 A 
ATOM      7  C   UNL     1      -3.907  11.400  17.684  0.00  0.00    +0.000 A 
ATOM      8  S   UNL     1      -5.575  11.935  17.374  0.00  0.00    +0.000 S 
ATOM      9  C   UNL     1      -6.040  12.886  18.785  0.00  0.00    +0.000 A 
ATOM     10  C   UNL     1      -7.349  13.418  18.693  0.00  0.00    +0.000 A 
ATOM     11  C   UNL     1      -7.892  14.198  19.703  0.00  0.00    +0.000 A 
ATOM     12  C   UNL     1      -7.125  14.457  20.820  0.00  0.00    +0.000 A 
ATOM     13  C   UNL     1      -5.826  13.934  20.918  0.00  0.00    +0.000 A 
ATOM     14  C   UNL     1      -5.233  13.126  19.910  0.00  0.00    +0.000 A 
ATOM     15  C   UNL     1      -3.810  12.557  20.007  0.00  0.00    +0.000 C 
ATOM     16  C   UNL     1      -3.129  12.849  21.158  0.00  0.00    +0.000 C 
ENDROOT
BRANCH   1  18
ATOM     17  C   UNL     1      -3.363  10.163  14.309  0.00  0.00    +0.000 C 
ATOM     18  O   UNL     1      -4.079  10.330  15.529  0.00  0.00    +0.000 OA
ENDBRANCH   1  18
BRANCH  16  19
ATOM     19  C   UNL     1      -1.716  12.521  21.557  0.00  0.00    +0.000 C 
BRANCH  19  20
ATOM     20  C   UNL     1      -1.434  11.539  22.706  0.00  0.00    +0.000 C 
BRANCH  20  21
ATOM     21  N   UNL     1      -0.585  10.424  22.220  0.00  0.00    +0.000 NA
ATOM     22  C   UNL     1       0.614  10.881  21.510  0.00  0.00    +0.000 C 
ATOM     23  C   UNL     1      -0.201   9.538  23.318  0.00  0.00    +0.000 C 
ENDBRANCH  20  21
ENDBRANCH  19  20
ENDBRANCH  16  19
TORSDOF 4
ENDMDL
MODEL 3
REMARK VINA RESULT:      -6.2      2.914      5.396
REMARK  Name = 
REMARK  7 active torsions:
REMARK  status: ('A' for Active; 'I' for Inactive)
REMARK    1  A    between atoms: C_1  and  O_2
REMARK    2  A    between atoms: O_2  and  C_3
REMARK    3  A    between atoms: C_18  and  C_19
REMARK    4  A    between atoms: C_19  and  C_20
REMARK    5  A    between atoms: C_20  and  N_21
REMARK    6  A    between atoms: N_21  and  C_22
REMARK    7  A    between atoms: N_21  and  C_23
REMARK                            x       y       z     vdW  Elec       q    Type
REMARK                         _______ _______ _______ _____ _____    ______ ____
ROOT
ATOM      1  C   UNL     1       2.518   4.271  20.426  0.00  0.00    +0.000 A 
ATOM      2  C   UNL     1       1.758   5.137  21.207  0.00  0.00    +0.000 A 
ATOM      3  C   UNL     1       1.627   6.435  20.798  0.00  0.00    +0.000 A 
ATOM      4 CL   UNL     1       0.670   7.530  21.728  0.00  0.00    +0.000 Cl
ATOM      5  C   UNL     1       2.259   6.883  19.639  0.00  0.00    +0.000 A 
ATOM      6  C   UNL     1       3.074   6.078  18.814  0.00  0.00    +0.000 A 
ATOM      7  C   UNL     1       3.193   4.733  19.248  0.00  0.00    +0.000 A 
ATOM      8  S   UNL     1       4.147   3.502  18.387  0.00  0.00    +0.000 S 
ATOM      9  C   UNL     1       4.854   4.333  17.001  0.00  0.00    +0.000 A 
ATOM     10  C   UNL     1       5.676   3.495  16.209  0.00  0.00    +0.000 A 
ATOM     11  C   UNL     1       6.325   3.967  15.078  0.00  0.00    +0.000 A 
ATOM     12  C   UNL     1       6.158   5.292  14.728  0.00  0.00    +0.000 A 
ATOM     13  C   UNL     1       5.345   6.128  15.509  0.00  0.00    +0.000 A 
ATOM     14  C   UNL     1       4.658   5.684  16.671  0.00  0.00    +0.000 A 
ATOM     15  C   UNL     1       3.774   6.596  17.534  0.00  0.00    +0.000 C 
ATOM     16  C   UNL     1       3.651   7.888  17.101  0.00  0.00    +0.000 C 
ENDROOT
BRANCH   1  18
ATOM     17  C   UNL     1       1.703   2.415  21.677  0.00  0.00    +0.000 C 
ATOM     18  O   UNL     1       2.678   2.947  20.785  0.00  0.00    +0.000 OA
ENDBRANCH   1  18
BRANCH  16  19
ATOM     19  C   UNL     1       2.932   9.054  17.726  0.00  0.00    +0.000 C 
BRANCH  19  20
ATOM     20  C   UNL     1       1.409   9.205  17.580  0.00  0.00    +0.000 C 
BRANCH  20  21
ATOM     21  N   UNL     1       0.885  10.090  18.649  0.00  0.00    +0.000 NA
ATOM     22  C   UNL     1       1.546  11.399  18.687  0.00  0.00    +0.000 C 
ATOM     23  C   UNL     1      -0.560  10.271  18.520  0.00  0.00    +0.000 C 
ENDBRANCH  20  21
ENDBRANCH  19  20
ENDBRANCH  16  19
TORSDOF 4
ENDMDL
MODEL 4
REMARK VINA RESULT:      -6.1      0.775      1.042
REMARK  Name = 
REMARK  7 active torsions:
REMARK  status: ('A' for Active; 'I' for Inactive)
REMARK    1  A    between atoms: C_1  and  O_2
REMARK    2  A    between atoms: O_2  and  C_3
REMARK    3  A    between atoms: C_18  and  C_19
REMARK    4  A    between atoms: C_19  and  C_20
REMARK    5  A    between atoms: C_20  and  N_21
REMARK    6  A    between atoms: N_21  and  C_22
REMARK    7  A    between atoms: N_21  and  C_23
REMARK                            x       y       z     vdW  Elec       q    Type
REMARK                         _______ _______ _______ _____ _____    ______ ____
ROOT
ATOM      1  C   UNL     1       2.226   3.793  20.197  0.00  0.00    +0.000 A 
ATOM      2  C   UNL     1       2.859   2.693  19.628  0.00  0.00    +0.000 A 
ATOM      3  C   UNL     1       3.637   2.891  18.520  0.00  0.00    +0.000 A 
ATOM      4 CL   UNL     1       4.459   1.553  17.803  0.00  0.00    +0.000 Cl
ATOM      5  C   UNL     1       3.770   4.163  17.965  0.00  0.00    +0.000 A 
ATOM      6  C   UNL     1       3.134   5.321  18.462  0.00  0.00    +0.000 A 
ATOM      7  C   UNL     1       2.338   5.098  19.614  0.00  0.00    +0.000 A 
ATOM      8  S   UNL     1       1.438   6.384  20.452  0.00  0.00    +0.000 S 
ATOM      9  C   UNL     1       1.752   7.859  19.535  0.00  0.00    +0.000 A 
ATOM     10  C   UNL     1       1.083   8.992  20.056  0.00  0.00    +0.000 A 
ATOM     11  C   UNL     1       1.201  10.243  19.469  0.00  0.00    +0.000 A 
ATOM     12  C   UNL     1       1.993  10.371  18.347  0.00  0.00    +0.000 A 
ATOM     13  C   UNL     1       2.659   9.252  17.824  0.00  0.00    +0.000 A 
ATOM     14  C   UNL     1       2.570   7.954  18.397  0.00  0.00    +0.000 A 
ATOM     15  C   UNL     1       3.290   6.723  17.826  0.00  0.00    +0.000 C 
ATOM     16  C   UNL     1       4.068   6.948  16.723  0.00  0.00    +0.000 C 
ENDROOT
BRANCH   1  18
ATOM     17  C   UNL     1       1.458   2.376  21.953  0.00  0.00    +0.000 C 
ATOM     18  O   UNL     1       1.436   3.653  21.322  0.00  0.00    +0.000 OA
ENDBRANCH   1  18
BRANCH  16  19
ATOM     19  C   UNL     1       4.847   5.980  15.875  0.00  0.00    +0.000 C 
BRANCH  19  20
ATOM     20  C   UNL     1       6.357   5.784  16.094  0.00  0.00    +0.000 C 
BRANCH  20  21
ATOM     21  N   UNL     1       6.726   6.204  17.468  0.00  0.00    +0.000 NA
ATOM     22  C   UNL     1       7.462   5.171  18.206  0.00  0.00    +0.000 C 
ATOM     23  C   UNL     1       7.501   7.443  17.450  0.00  0.00    +0.000 C 
ENDBRANCH  20  21
ENDBRANCH  19  20
ENDBRANCH  16  19
TORSDOF 4
ENDMDL
MODEL 5
REMARK VINA RESULT:      -5.9      7.349     10.759
REMARK  Name = 
REMARK  7 active torsions:
REMARK  status: ('A' for Active; 'I' for Inactive)
REMARK    1  A    between atoms: C_1  and  O_2
REMARK    2  A    between atoms: O_2  and  C_3
REMARK    3  A    between atoms: C_18  and  C_19
REMARK    4  A    between atoms: C_19  and  C_20
REMARK    5  A    between atoms: C_20  and  N_21
REMARK    6  A    between atoms: N_21  and  C_22
REMARK    7  A    between atoms: N_21  and  C_23
REMARK                            x       y       z     vdW  Elec       q    Type
REMARK                         _______ _______ _______ _____ _____    ______ ____
ROOT
ATOM      1  C   UNL     1      -0.615  10.851  18.736  0.00  0.00    +0.000 A 
ATOM      2  C   UNL     1      -1.135  10.319  17.561  0.00  0.00    +0.000 A 
ATOM      3  C   UNL     1      -2.441  10.583  17.250  0.00  0.00    +0.000 A 
ATOM      4 CL   UNL     1      -3.112   9.962  15.786  0.00  0.00    +0.000 Cl
ATOM      5  C   UNL     1      -3.234  11.348  18.104  0.00  0.00    +0.000 A 
ATOM      6  C   UNL     1      -2.790  11.892  19.329  0.00  0.00    +0.000 A 
ATOM      7  C   UNL     1      -1.433  11.615  19.632  0.00  0.00    +0.000 A 
ATOM      8  S   UNL     1      -0.616  12.192  21.103  0.00  0.00    +0.000 S 
ATOM      9  C   UNL     1      -1.838  13.089  22.006  0.00  0.00    +0.000 A 
ATOM     10  C   UNL     1      -1.358  13.603  23.234  0.00  0.00    +0.000 A 
ATOM     11  C   UNL     1      -2.172  14.334  24.087  0.00  0.00    +0.000 A 
ATOM     12  C   UNL     1      -3.483  14.554  23.717  0.00  0.00    +0.000 A 
ATOM     13  C   UNL     1      -3.966  14.046  22.502  0.00  0.00    +0.000 A 
ATOM     14  C   UNL     1      -3.165  13.299  21.596  0.00  0.00    +0.000 A 
ATOM     15  C   UNL     1      -3.689  12.734  20.267  0.00  0.00    +0.000 C 
ATOM     16  C   UNL     1      -4.995  13.018  19.974  0.00  0.00    +0.000 C 
ENDROOT
BRANCH   1  18
ATOM     17  C   UNL     1       1.442   9.748  18.253  0.00  0.00    +0.000 C 
ATOM     18  O   UNL     1       0.700  10.625  19.096  0.00  0.00    +0.000 OA
ENDBRANCH   1  18
BRANCH  16  19
ATOM     19  C   UNL     1      -5.845  12.576  18.813  0.00  0.00    +0.000 C 
BRANCH  19  20
ATOM     20  C   UNL     1      -7.166  11.826  19.049  0.00  0.00    +0.000 C 
BRANCH  20  21
ATOM     21  N   UNL     1      -6.973  10.775  20.078  0.00  0.00    +0.000 NA
ATOM     22  C   UNL     1      -7.914  10.889  21.198  0.00  0.00    +0.000 C 
ATOM     23  C   UNL     1      -7.064   9.440  19.491  0.00  0.00    +0.000 C 
ENDBRANCH  20  21
ENDBRANCH  19  20
ENDBRANCH  16  19
TORSDOF 4
ENDMDL
MODEL 6
REMARK VINA RESULT:      -5.9      0.897      1.278
REMARK  Name = 
REMARK  7 active torsions:
REMARK  status: ('A' for Active; 'I' for Inactive)
REMARK    1  A    between atoms: C_1  and  O_2
REMARK    2  A    between atoms: O_2  and  C_3
REMARK    3  A    between atoms: C_18  and  C_19
REMARK    4  A    between atoms: C_19  and  C_20
REMARK    5  A    between atoms: C_20  and  N_21
REMARK    6  A    between atoms: N_21  and  C_22
REMARK    7  A    between atoms: N_21  and  C_23
REMARK                            x       y       z     vdW  Elec       q    Type
REMARK                         _______ _______ _______ _____ _____    ______ ____
ROOT
ATOM      1  C   UNL     1       2.120   3.785  20.201  0.00  0.00    +0.000 A 
ATOM      2  C   UNL     1       2.772   2.677  19.670  0.00  0.00    +0.000 A 
ATOM      3  C   UNL     1       3.606   2.863  18.603  0.00  0.00    +0.000 A 
ATOM      4 CL   UNL     1       4.453   1.515  17.934  0.00  0.00    +0.000 Cl
ATOM      5  C   UNL     1       3.779   4.131  18.049  0.00  0.00    +0.000 A 
ATOM      6  C   UNL     1       3.127   5.296  18.507  0.00  0.00    +0.000 A 
ATOM      7  C   UNL     1       2.272   5.086  19.619  0.00  0.00    +0.000 A 
ATOM      8  S   UNL     1       1.342   6.384  20.403  0.00  0.00    +0.000 S 
ATOM      9  C   UNL     1       1.714   7.851  19.497  0.00  0.00    +0.000 A 
ATOM     10  C   UNL     1       1.028   8.992  19.978  0.00  0.00    +0.000 A 
ATOM     11  C   UNL     1       1.187  10.239  19.392  0.00  0.00    +0.000 A 
ATOM     12  C   UNL     1       2.036  10.355  18.310  0.00  0.00    +0.000 A 
ATOM     13  C   UNL     1       2.718   9.228  17.828  0.00  0.00    +0.000 A 
ATOM     14  C   UNL     1       2.589   7.934  18.402  0.00  0.00    +0.000 A 
ATOM     15  C   UNL     1       3.327   6.694  17.874  0.00  0.00    +0.000 C 
ATOM     16  C   UNL     1       4.162   6.907  16.810  0.00  0.00    +0.000 C 
ENDROOT
BRANCH   1  18
ATOM     17  C   UNL     1       1.391   2.454  22.039  0.00  0.00    +0.000 C 
ATOM     18  O   UNL     1       1.273   3.658  21.285  0.00  0.00    +0.000 OA
ENDBRANCH   1  18
BRANCH  16  19
ATOM     19  C   UNL     1       4.976   5.928  16.008  0.00  0.00    +0.000 C 
BRANCH  19  20
ATOM     20  C   UNL     1       6.501   5.849  16.181  0.00  0.00    +0.000 C 
BRANCH  20  21
ATOM     21  N   UNL     1       7.041   4.714  15.393  0.00  0.00    +0.000 NA
ATOM     22  C   UNL     1       6.142   3.555  15.365  0.00  0.00    +0.000 C 
ATOM     23  C   UNL     1       7.358   5.125  14.027  0.00  0.00    +0.000 C 
ENDBRANCH  20  21
ENDBRANCH  19  20
ENDBRANCH  16  19
TORSDOF 4
ENDMDL
MODEL 7
REMARK VINA RESULT:      -5.8      2.666      5.139
REMARK  Name = 
REMARK  7 active torsions:
REMARK  status: ('A' for Active; 'I' for Inactive)
REMARK    1  A    between atoms: C_1  and  O_2
REMARK    2  A    between atoms: O_2  and  C_3
REMARK    3  A    between atoms: C_18  and  C_19
REMARK    4  A    between atoms: C_19  and  C_20
REMARK    5  A    between atoms: C_20  and  N_21
REMARK    6  A    between atoms: N_21  and  C_22
REMARK    7  A    between atoms: N_21  and  C_23
REMARK                            x       y       z     vdW  Elec       q    Type
REMARK                         _______ _______ _______ _____ _____    ______ ____
ROOT
ATOM      1  C   UNL     1       0.961   8.751  20.269  0.00  0.00    +0.000 A 
ATOM      2  C   UNL     1       1.183   9.862  19.462  0.00  0.00    +0.000 A 
ATOM      3  C   UNL     1       2.032   9.734  18.398  0.00  0.00    +0.000 A 
ATOM      4 CL   UNL     1       2.310  11.084  17.360  0.00  0.00    +0.000 Cl
ATOM      5  C   UNL     1       2.676   8.524  18.145  0.00  0.00    +0.000 A 
ATOM      6  C   UNL     1       2.531   7.363  18.936  0.00  0.00    +0.000 A 
ATOM      7  C   UNL     1       1.641   7.512  20.030  0.00  0.00    +0.000 A 
ATOM      8  S   UNL     1       1.265   6.204  21.177  0.00  0.00    +0.000 S 
ATOM      9  C   UNL     1       2.225   4.820  20.651  0.00  0.00    +0.000 A 
ATOM     10  C   UNL     1       2.063   3.683  21.480  0.00  0.00    +0.000 A 
ATOM     11  C   UNL     1       2.739   2.498  21.231  0.00  0.00    +0.000 A 
ATOM     12  C   UNL     1       3.589   2.440  20.147  0.00  0.00    +0.000 A 
ATOM     13  C   UNL     1       3.755   3.563  19.322  0.00  0.00    +0.000 A 
ATOM     14  C   UNL     1       3.078   4.794  19.536  0.00  0.00    +0.000 A 
ATOM     15  C   UNL     1       3.261   6.030  18.642  0.00  0.00    +0.000 C 
ATOM     16  C   UNL     1       4.109   5.875  17.579  0.00  0.00    +0.000 C 
ENDROOT
BRANCH   1  18
ATOM     17  C   UNL     1       0.396   9.824  22.321  0.00  0.00    +0.000 C 
ATOM     18  O   UNL     1       0.106   8.820  21.352  0.00  0.00    +0.000 OA
ENDBRANCH   1  18
BRANCH  16  19
ATOM     19  C   UNL     1       4.569   6.876  16.554  0.00  0.00    +0.000 C 
BRANCH  19  20
ATOM     20  C   UNL     1       5.435   6.436  15.362  0.00  0.00    +0.000 C 
BRANCH  20  21
ATOM     21  N   UNL     1       5.766   4.995  15.483  0.00  0.00    +0.000 NA
ATOM     22  C   UNL     1       5.586   4.257  14.228  0.00  0.00    +0.000 C 
ATOM     23  C   UNL     1       7.130   4.807  15.974  0.00  0.00    +0.000 C 
ENDBRANCH  20  21
ENDBRANCH  19  20
ENDBRANCH  16  19
TORSDOF 4
ENDMDL
MODEL 8
REMARK VINA RESULT:      -5.7      9.626     11.845
REMARK  Name = 
REMARK  7 active torsions:
REMARK  status: ('A' for Active; 'I' for Inactive)
REMARK    1  A    between atoms: C_1  and  O_2
REMARK    2  A    between atoms: O_2  and  C_3
REMARK    3  A    between atoms: C_18  and  C_19
REMARK    4  A    between atoms: C_19  and  C_20
REMARK    5  A    between atoms: C_20  and  N_21
REMARK    6  A    between atoms: N_21  and  C_22
REMARK    7  A    between atoms: N_21  and  C_23
REMARK                            x       y       z     vdW  Elec       q    Type
REMARK                         _______ _______ _______ _____ _____    ______ ____
ROOT
ATOM      1  C   UNL     1      11.078  12.792  18.595  0.00  0.00    +0.000 A 
ATOM      2  C   UNL     1      10.544  11.529  18.361  0.00  0.00    +0.000 A 
ATOM      3  C   UNL     1       9.664  11.016  19.273  0.00  0.00    +0.000 A 
ATOM      4 CL   UNL     1       8.961   9.463  19.001  0.00  0.00    +0.000 Cl
ATOM      5  C   UNL     1       9.329  11.735  20.420  0.00  0.00    +0.000 A 
ATOM      6  C   UNL     1       9.854  13.004  20.746  0.00  0.00    +0.000 A 
ATOM      7  C   UNL     1      10.759  13.524  19.787  0.00  0.00    +0.000 A 
ATOM      8  S   UNL     1      11.554  15.108  19.942  0.00  0.00    +0.000 S 
ATOM      9  C   UNL     1      10.988  15.777  21.473  0.00  0.00    +0.000 A 
ATOM     10  C   UNL     1      11.550  17.042  21.770  0.00  0.00    +0.000 A 
ATOM     11  C   UNL     1      11.231  17.727  22.933  0.00  0.00    +0.000 A 
ATOM     12  C   UNL     1      10.343  17.146  23.816  0.00  0.00    +0.000 A 
ATOM     13  C   UNL     1       9.783  15.892  23.528  0.00  0.00    +0.000 A 
ATOM     14  C   UNL     1      10.078  15.160  22.347  0.00  0.00    +0.000 A 
ATOM     15  C   UNL     1       9.474  13.783  22.029  0.00  0.00    +0.000 C 
ATOM     16  C   UNL     1       8.590  13.294  22.952  0.00  0.00    +0.000 C 
ENDROOT
BRANCH   1  18
ATOM     17  C   UNL     1      11.556  13.392  16.339  0.00  0.00    +0.000 C 
ATOM     18  O   UNL     1      11.965  13.364  17.704  0.00  0.00    +0.000 OA
ENDBRANCH   1  18
BRANCH  16  19
ATOM     19  C   UNL     1       7.873  11.972  22.999  0.00  0.00    +0.000 C 
BRANCH  19  20
ATOM     20  C   UNL     1       6.425  11.883  23.507  0.00  0.00    +0.000 C 
BRANCH  20  21
ATOM     21  N   UNL     1       6.380  12.174  24.961  0.00  0.00    +0.000 NA
ATOM     22  C   UNL     1       5.705  13.439  25.273  0.00  0.00    +0.000 C 
ATOM     23  C   UNL     1       5.746  11.082  25.696  0.00  0.00    +0.000 C 
ENDBRANCH  20  21
ENDBRANCH  19  20
ENDBRANCH  16  19
TORSDOF 4
ENDMDL
MODEL 9
REMARK VINA RESULT:      -5.7      8.252     10.128
REMARK  Name = 
REMARK  7 active torsions:
REMARK  status: ('A' for Active; 'I' for Inactive)
REMARK    1  A    between atoms: C_1  and  O_2
REMARK    2  A    between atoms: O_2  and  C_3
REMARK    3  A    between atoms: C_18  and  C_19
REMARK    4  A    between atoms: C_19  and  C_20
REMARK    5  A    between atoms: C_20  and  N_21
REMARK    6  A    between atoms: N_21  and  C_22
REMARK    7  A    between atoms: N_21  and  C_23
REMARK                            x       y       z     vdW  Elec       q    Type
REMARK                         _______ _______ _______ _____ _____    ______ ____
ROOT
ATOM      1  C   UNL     1      -5.283  11.738  17.962  0.00  0.00    +0.000 A 
ATOM      2  C   UNL     1      -4.736  11.308  16.758  0.00  0.00    +0.000 A 
ATOM      3  C   UNL     1      -3.380  11.147  16.681  0.00  0.00    +0.000 A 
ATOM      4 CL   UNL     1      -2.668  10.589  15.210  0.00  0.00    +0.000 Cl
ATOM      5  C   UNL     1      -2.567  11.429  17.778  0.00  0.00    +0.000 A 
ATOM      6  C   UNL     1      -3.042  11.901  19.021  0.00  0.00    +0.000 A 
ATOM      7  C   UNL     1      -4.450  12.056  19.086  0.00  0.00    +0.000 A 
ATOM      8  S   UNL     1      -5.312  12.621  20.535  0.00  0.00    +0.000 S 
ATOM      9  C   UNL     1      -4.063  12.932  21.741  0.00  0.00    +0.000 A 
ATOM     10  C   UNL     1      -4.579  13.419  22.966  0.00  0.00    +0.000 A 
ATOM     11  C   UNL     1      -3.751  13.727  24.036  0.00  0.00    +0.000 A 
ATOM     12  C   UNL     1      -2.391  13.551  23.887  0.00  0.00    +0.000 A 
ATOM     13  C   UNL     1      -1.872  13.069  22.675  0.00  0.00    +0.000 A 
ATOM     14  C   UNL     1      -2.684  12.736  21.557  0.00  0.00    +0.000 A 
ATOM     15  C   UNL     1      -2.122  12.215  20.226  0.00  0.00    +0.000 C 
ATOM     16  C   UNL     1      -0.764  12.054  20.175  0.00  0.00    +0.000 C 
ENDROOT
BRANCH   1  18
ATOM     17  C   UNL     1      -7.233  12.950  17.322  0.00  0.00    +0.000 C 
ATOM     18  O   UNL     1      -6.647  11.910  18.101  0.00  0.00    +0.000 OA
ENDBRANCH   1  18
BRANCH  16  19
ATOM     19  C   UNL     1       0.119  11.637  19.031  0.00  0.00    +0.000 C 
BRANCH  19  20
ATOM     20  C   UNL     1       1.440  12.372  18.752  0.00  0.00    +0.000 C 
BRANCH  20  21
ATOM     21  N   UNL     1       1.527  13.591  19.592  0.00  0.00    +0.000 NA
ATOM     22  C   UNL     1       2.673  13.577  20.508  0.00  0.00    +0.000 C 
ATOM     23  C   UNL     1       1.570  14.797  18.767  0.00  0.00    +0.000 C 
ENDBRANCH  20  21
ENDBRANCH  19  20
ENDBRANCH  16  19
TORSDOF 4
ENDMDL
