MODEL 1
REMARK VINA RESULT:      -8.7      0.000      0.000
REMARK  Name = 
REMARK  6 active torsions:
REMARK  status: ('A' for Active; 'I' for Inactive)
REMARK    1  A    between atoms: C_2  and  C_3
REMARK    2  A    between atoms: C_8  and  O_9
REMARK    3  A    between atoms: O_9  and  C_10
REMARK    4  A    between atoms: C_12  and  O_13
REMARK    5  A    between atoms: O_13  and  C_14
REMARK    6  A    between atoms: C_14  and  C_15
REMARK                            x       y       z     vdW  Elec       q    Type
REMARK                         _______ _______ _______ _____ _____    ______ ____
ROOT
ATOM      1  C   UNL     1       3.835   3.866  19.505  0.00  0.00    +0.000 A 
ATOM      2  C   UNL     1       3.258   5.012  20.060  0.00  0.00    +0.000 A 
ATOM      3  C   UNL     1       1.878   5.136  20.192  0.00  0.00    +0.000 A 
ATOM      4  C   UNL     1       1.055   4.085  19.798  0.00  0.00    +0.000 A 
ATOM      5  C   UNL     1       1.622   2.894  19.331  0.00  0.00    +0.000 A 
ATOM      6  C   UNL     1       3.011   2.775  19.203  0.00  0.00    +0.000 A 
ATOM      7 CL   UNL     1       3.655   1.260  18.684  0.00  0.00    +0.000 Cl
ENDROOT
BRANCH   1   8
ATOM      8  O   UNL     1       5.196   3.774  19.279  0.00  0.00    +0.000 OA
BRANCH   8  14
ATOM      9  C   UNL     1       6.240   4.638  15.808  0.00  0.00    +0.000 A 
ATOM     10  C   UNL     1       6.907   5.836  16.064  0.00  0.00    +0.000 A 
ATOM     11  C   UNL     1       6.998   6.309  17.373  0.00  0.00    +0.000 A 
ATOM     12 CL   UNL     1       7.831   7.783  17.681  0.00  0.00    +0.000 Cl
ATOM     13  C   UNL     1       6.424   5.605  18.432  0.00  0.00    +0.000 A 
ATOM     14  C   UNL     1       5.740   4.414  18.181  0.00  0.00    +0.000 A 
ATOM     15  C   UNL     1       5.673   3.919  16.867  0.00  0.00    +0.000 A 
BRANCH   9  17
ATOM     16  N   UNL     1       6.049   3.753  13.377  0.00  0.00    +0.000 NA
ATOM     17  C   UNL     1       6.138   4.146  14.461  0.00  0.00    +0.000 C 
ENDBRANCH   9  17
ENDBRANCH   8  14
ENDBRANCH   1   8
BRANCH   3  18
ATOM     18  O   UNL     1       1.464   6.354  20.650  0.00  0.00    +0.000 OA
BRANCH  18  19
ATOM     19  C   UNL     1       2.157   7.484  20.108  0.00  0.00    +0.000 C 
BRANCH  19  20
ATOM     20  C   UNL     1       1.289   8.699  20.105  0.00  0.00    +0.000 A 
ATOM     21  N   UNL     1       1.028   9.359  18.959  0.00  0.00    +0.000 NA
ATOM     22  N   UNL     1       0.226  10.366  19.349  0.00  0.00    +0.000 N 
ATOM     23  C   UNL     1      -0.068  10.368  20.683  0.00  0.00    +0.000 A 
ATOM     24  C   UNL     1      -0.854  11.199  21.478  0.00  0.00    +0.000 A 
ATOM     25  C   UNL     1      -0.914  10.855  22.827  0.00  0.00    +0.000 A 
ATOM     26  C   UNL     1      -0.213   9.742  23.278  0.00  0.00    +0.000 A 
ATOM     27  N   UNL     1       0.556   8.929  22.517  0.00  0.00    +0.000 NA
ATOM     28  C   UNL     1       0.614   9.279  21.206  0.00  0.00    +0.000 A 
ATOM     29  H   UNL     1      -0.102  11.014  18.642  0.00  0.00    +0.000 HD
ENDBRANCH  19  20
ENDBRANCH  18  19
ENDBRANCH   3  18
TORSDOF 6
ENDMDL
MODEL 2
REMARK VINA RESULT:      -8.7      1.688      2.116
REMARK  Name = 
REMARK  6 active torsions:
REMARK  status: ('A' for Active; 'I' for Inactive)
REMARK    1  A    between atoms: C_2  and  C_3
REMARK    2  A    between atoms: C_8  and  O_9
REMARK    3  A    between atoms: O_9  and  C_10
REMARK    4  A    between atoms: C_12  and  O_13
REMARK    5  A    between atoms: O_13  and  C_14
REMARK    6  A    between atoms: C_14  and  C_15
REMARK                            x       y       z     vdW  Elec       q    Type
REMARK                         _______ _______ _______ _____ _____    ______ ____
ROOT
ATOM      1  C   UNL     1       3.837   3.768  19.480  0.00  0.00    +0.000 A 
ATOM      2  C   UNL     1       3.252   4.908  20.039  0.00  0.00    +0.000 A 
ATOM      3  C   UNL     1       1.874   5.007  20.204  0.00  0.00    +0.000 A 
ATOM      4  C   UNL     1       1.061   3.938  19.839  0.00  0.00    +0.000 A 
ATOM      5  C   UNL     1       1.639   2.754  19.368  0.00  0.00    +0.000 A 
ATOM      6  C   UNL     1       3.026   2.659  19.206  0.00  0.00    +0.000 A 
ATOM      7 CL   UNL     1       3.685   1.153  18.683  0.00  0.00    +0.000 Cl
ENDROOT
BRANCH   1   8
ATOM      8  O   UNL     1       5.193   3.700  19.221  0.00  0.00    +0.000 OA
BRANCH   8  14
ATOM      9  C   UNL     1       6.918   6.446  17.386  0.00  0.00    +0.000 A 
ATOM     10  C   UNL     1       6.748   5.987  16.080  0.00  0.00    +0.000 A 
ATOM     11  C   UNL     1       6.061   4.795  15.852  0.00  0.00    +0.000 A 
ATOM     12 CL   UNL     1       5.848   4.240  14.236  0.00  0.00    +0.000 Cl
ATOM     13  C   UNL     1       5.547   4.048  16.912  0.00  0.00    +0.000 A 
ATOM     14  C   UNL     1       5.728   4.493  18.223  0.00  0.00    +0.000 A 
ATOM     15  C   UNL     1       6.393   5.710  18.454  0.00  0.00    +0.000 A 
BRANCH   9  17
ATOM     16  N   UNL     1       8.197   8.657  17.833  0.00  0.00    +0.000 NA
ATOM     17  C   UNL     1       7.628   7.672  17.630  0.00  0.00    +0.000 C 
ENDBRANCH   9  17
ENDBRANCH   8  14
ENDBRANCH   1   8
BRANCH   3  18
ATOM     18  O   UNL     1       1.449   6.221  20.663  0.00  0.00    +0.000 OA
BRANCH  18  19
ATOM     19  C   UNL     1       2.215   7.348  20.225  0.00  0.00    +0.000 C 
BRANCH  19  20
ATOM     20  C   UNL     1       1.371   8.577  20.146  0.00  0.00    +0.000 A 
ATOM     21  N   UNL     1       1.165   9.200  18.969  0.00  0.00    +0.000 NA
ATOM     22  N   UNL     1       0.368  10.235  19.293  0.00  0.00    +0.000 N 
ATOM     23  C   UNL     1       0.025  10.290  20.614  0.00  0.00    +0.000 A 
ATOM     24  C   UNL     1      -0.773  11.163  21.349  0.00  0.00    +0.000 A 
ATOM     25  C   UNL     1      -0.889  10.868  22.706  0.00  0.00    +0.000 A 
ATOM     26  C   UNL     1      -0.226   9.760  23.222  0.00  0.00    +0.000 A 
ATOM     27  N   UNL     1       0.554   8.907  22.520  0.00  0.00    +0.000 NA
ATOM     28  C   UNL     1       0.667   9.209  21.200  0.00  0.00    +0.000 A 
ATOM     29  H   UNL     1       0.079  10.863  18.552  0.00  0.00    +0.000 HD
ENDBRANCH  19  20
ENDBRANCH  18  19
ENDBRANCH   3  18
TORSDOF 6
ENDMDL
MODEL 3
REMARK VINA RESULT:      -8.5      0.870      1.209
REMARK  Name = 
REMARK  6 active torsions:
REMARK  status: ('A' for Active; 'I' for Inactive)
REMARK    1  A    between atoms: C_2  and  C_3
REMARK    2  A    between atoms: C_8  and  O_9
REMARK    3  A    between atoms: O_9  and  C_10
REMARK    4  A    between atoms: C_12  and  O_13
REMARK    5  A    between atoms: O_13  and  C_14
REMARK    6  A    between atoms: C_14  and  C_15
REMARK                            x       y       z     vdW  Elec       q    Type
REMARK                         _______ _______ _______ _____ _____    ______ ____
ROOT
ATOM      1  C   UNL     1       3.827   3.669  19.442  0.00  0.00    +0.000 A 
ATOM      2  C   UNL     1       3.171   4.775  19.989  0.00  0.00    +0.000 A 
ATOM      3  C   UNL     1       1.784   4.818  20.089  0.00  0.00    +0.000 A 
ATOM      4  C   UNL     1       1.032   3.725  19.668  0.00  0.00    +0.000 A 
ATOM      5  C   UNL     1       1.678   2.572  19.207  0.00  0.00    +0.000 A 
ATOM      6  C   UNL     1       3.075   2.534  19.112  0.00  0.00    +0.000 A 
ATOM      7 CL   UNL     1       3.817   1.064  18.599  0.00  0.00    +0.000 Cl
ENDROOT
BRANCH   1   8
ATOM      8  O   UNL     1       5.196   3.657  19.248  0.00  0.00    +0.000 OA
BRANCH   8  14
ATOM      9  C   UNL     1       6.203   4.575  15.780  0.00  0.00    +0.000 A 
ATOM     10  C   UNL     1       6.864   5.773  16.046  0.00  0.00    +0.000 A 
ATOM     11  C   UNL     1       6.964   6.229  17.361  0.00  0.00    +0.000 A 
ATOM     12 CL   UNL     1       7.790   7.705  17.681  0.00  0.00    +0.000 Cl
ATOM     13  C   UNL     1       6.404   5.507  18.415  0.00  0.00    +0.000 A 
ATOM     14  C   UNL     1       5.725   4.316  18.154  0.00  0.00    +0.000 A 
ATOM     15  C   UNL     1       5.651   3.838  16.834  0.00  0.00    +0.000 A 
BRANCH   9  17
ATOM     16  N   UNL     1       6.004   3.726  13.337  0.00  0.00    +0.000 NA
ATOM     17  C   UNL     1       6.092   4.100  14.427  0.00  0.00    +0.000 C 
ENDBRANCH   9  17
ENDBRANCH   8  14
ENDBRANCH   1   8
BRANCH   3  18
ATOM     18  O   UNL     1       1.289   6.006  20.544  0.00  0.00    +0.000 OA
BRANCH  18  19
ATOM     19  C   UNL     1       2.210   7.102  20.533  0.00  0.00    +0.000 C 
BRANCH  19  20
ATOM     20  C   UNL     1       1.736   8.198  19.637  0.00  0.00    +0.000 A 
ATOM     21  N   UNL     1       2.078   8.221  18.333  0.00  0.00    +0.000 NA
ATOM     22  N   UNL     1       1.469   9.326  17.866  0.00  0.00    +0.000 N 
ATOM     23  C   UNL     1       0.726   9.997  18.796  0.00  0.00    +0.000 A 
ATOM     24  C   UNL     1      -0.057  11.147  18.732  0.00  0.00    +0.000 A 
ATOM     25  C   UNL     1      -0.681  11.512  19.924  0.00  0.00    +0.000 A 
ATOM     26  C   UNL     1      -0.491  10.733  21.060  0.00  0.00    +0.000 A 
ATOM     27  N   UNL     1       0.269   9.617  21.135  0.00  0.00    +0.000 NA
ATOM     28  C   UNL     1       0.879   9.275  19.971  0.00  0.00    +0.000 A 
ATOM     29  H   UNL     1       1.589   9.559  16.887  0.00  0.00    +0.000 HD
ENDBRANCH  19  20
ENDBRANCH  18  19
ENDBRANCH   3  18
TORSDOF 6
ENDMDL
MODEL 4
REMARK VINA RESULT:      -8.4      1.891      2.430
REMARK  Name = 
REMARK  6 active torsions:
REMARK  status: ('A' for Active; 'I' for Inactive)
REMARK    1  A    between atoms: C_2  and  C_3
REMARK    2  A    between atoms: C_8  and  O_9
REMARK    3  A    between atoms: O_9  and  C_10
REMARK    4  A    between atoms: C_12  and  O_13
REMARK    5  A    between atoms: O_13  and  C_14
REMARK    6  A    between atoms: C_14  and  C_15
REMARK                            x       y       z     vdW  Elec       q    Type
REMARK                         _______ _______ _______ _____ _____    ______ ____
ROOT
ATOM      1  C   UNL     1       3.801   3.667  19.471  0.00  0.00    +0.000 A 
ATOM      2  C   UNL     1       3.170   4.769  20.056  0.00  0.00    +0.000 A 
ATOM      3  C   UNL     1       1.785   4.829  20.179  0.00  0.00    +0.000 A 
ATOM      4  C   UNL     1       1.011   3.757  19.746  0.00  0.00    +0.000 A 
ATOM      5  C   UNL     1       1.633   2.606  19.247  0.00  0.00    +0.000 A 
ATOM      6  C   UNL     1       3.026   2.551  19.127  0.00  0.00    +0.000 A 
ATOM      7 CL   UNL     1       3.739   1.083  18.568  0.00  0.00    +0.000 Cl
ENDROOT
BRANCH   1   8
ATOM      8  O   UNL     1       5.165   3.641  19.255  0.00  0.00    +0.000 OA
BRANCH   8  14
ATOM      9  C   UNL     1       6.885   6.375  17.396  0.00  0.00    +0.000 A 
ATOM     10  C   UNL     1       6.726   5.898  16.095  0.00  0.00    +0.000 A 
ATOM     11  C   UNL     1       6.048   4.699  15.877  0.00  0.00    +0.000 A 
ATOM     12 CL   UNL     1       5.848   4.123  14.267  0.00  0.00    +0.000 Cl
ATOM     13  C   UNL     1       5.531   3.962  16.944  0.00  0.00    +0.000 A 
ATOM     14  C   UNL     1       5.702   4.425  18.250  0.00  0.00    +0.000 A 
ATOM     15  C   UNL     1       6.357   5.648  18.470  0.00  0.00    +0.000 A 
BRANCH   9  17
ATOM     16  N   UNL     1       8.148   8.599  17.824  0.00  0.00    +0.000 NA
ATOM     17  C   UNL     1       7.586   7.608  17.629  0.00  0.00    +0.000 C 
ENDBRANCH   9  17
ENDBRANCH   8  14
ENDBRANCH   1   8
BRANCH   3  18
ATOM     18  O   UNL     1       1.315   6.013  20.671  0.00  0.00    +0.000 OA
BRANCH  18  19
ATOM     19  C   UNL     1       2.231   7.112  20.611  0.00  0.00    +0.000 C 
BRANCH  19  20
ATOM     20  C   UNL     1       1.739   8.176  19.686  0.00  0.00    +0.000 A 
ATOM     21  N   UNL     1       2.076   8.168  18.381  0.00  0.00    +0.000 NA
ATOM     22  N   UNL     1       1.451   9.250  17.886  0.00  0.00    +0.000 N 
ATOM     23  C   UNL     1       0.702   9.937  18.799  0.00  0.00    +0.000 A 
ATOM     24  C   UNL     1      -0.097  11.074  18.706  0.00  0.00    +0.000 A 
ATOM     25  C   UNL     1      -0.722  11.464  19.889  0.00  0.00    +0.000 A 
ATOM     26  C   UNL     1      -0.518  10.720  21.046  0.00  0.00    +0.000 A 
ATOM     27  N   UNL     1       0.257   9.616  21.150  0.00  0.00    +0.000 NA
ATOM     28  C   UNL     1       0.869   9.250  19.993  0.00  0.00    +0.000 A 
ATOM     29  H   UNL     1       1.565   9.457  16.900  0.00  0.00    +0.000 HD
ENDBRANCH  19  20
ENDBRANCH  18  19
ENDBRANCH   3  18
TORSDOF 6
ENDMDL
MODEL 5
REMARK VINA RESULT:      -8.4      0.740      1.628
REMARK  Name = 
REMARK  6 active torsions:
REMARK  status: ('A' for Active; 'I' for Inactive)
REMARK    1  A    between atoms: C_2  and  C_3
REMARK    2  A    between atoms: C_8  and  O_9
REMARK    3  A    between atoms: O_9  and  C_10
REMARK    4  A    between atoms: C_12  and  O_13
REMARK    5  A    between atoms: O_13  and  C_14
REMARK    6  A    between atoms: C_14  and  C_15
REMARK                            x       y       z     vdW  Elec       q    Type
REMARK                         _______ _______ _______ _____ _____    ______ ____
ROOT
ATOM      1  C   UNL     1       3.899   3.873  19.464  0.00  0.00    +0.000 A 
ATOM      2  C   UNL     1       3.389   4.974  20.159  0.00  0.00    +0.000 A 
ATOM      3  C   UNL     1       2.021   5.143  20.344  0.00  0.00    +0.000 A 
ATOM      4  C   UNL     1       1.140   4.182  19.858  0.00  0.00    +0.000 A 
ATOM      5  C   UNL     1       1.638   3.027  19.245  0.00  0.00    +0.000 A 
ATOM      6  C   UNL     1       3.016   2.861  19.065  0.00  0.00    +0.000 A 
ATOM      7 CL   UNL     1       3.575   1.388  18.361  0.00  0.00    +0.000 Cl
ENDROOT
BRANCH   1   8
ATOM      8  O   UNL     1       5.248   3.746  19.191  0.00  0.00    +0.000 OA
BRANCH   8  14
ATOM      9  C   UNL     1       6.275   4.639  15.722  0.00  0.00    +0.000 A 
ATOM     10  C   UNL     1       6.907   5.855  15.979  0.00  0.00    +0.000 A 
ATOM     11  C   UNL     1       6.981   6.331  17.288  0.00  0.00    +0.000 A 
ATOM     12 CL   UNL     1       7.771   7.828  17.598  0.00  0.00    +0.000 Cl
ATOM     13  C   UNL     1       6.425   5.611  18.346  0.00  0.00    +0.000 A 
ATOM     14  C   UNL     1       5.776   4.401  18.093  0.00  0.00    +0.000 A 
ATOM     15  C   UNL     1       5.727   3.904  16.780  0.00  0.00    +0.000 A 
BRANCH   9  17
ATOM     16  N   UNL     1       6.114   3.748  13.291  0.00  0.00    +0.000 NA
ATOM     17  C   UNL     1       6.190   4.144  14.374  0.00  0.00    +0.000 C 
ENDBRANCH   9  17
ENDBRANCH   8  14
ENDBRANCH   1   8
BRANCH   3  18
ATOM     18  O   UNL     1       1.676   6.319  20.947  0.00  0.00    +0.000 OA
BRANCH  18  19
ATOM     19  C   UNL     1       1.829   7.492  20.141  0.00  0.00    +0.000 C 
BRANCH  19  20
ATOM     20  C   UNL     1       1.129   8.662  20.753  0.00  0.00    +0.000 A 
ATOM     21  N   UNL     1       1.158   8.865  22.085  0.00  0.00    +0.000 NA
ATOM     22  N   UNL     1       0.442   9.992  22.249  0.00  0.00    +0.000 N 
ATOM     23  C   UNL     1      -0.019  10.542  21.086  0.00  0.00    +0.000 A 
ATOM     24  C   UNL     1      -0.766  11.684  20.809  0.00  0.00    +0.000 A 
ATOM     25  C   UNL     1      -1.028  11.915  19.460  0.00  0.00    +0.000 A 
ATOM     26  C   UNL     1      -0.543  11.024  18.509  0.00  0.00    +0.000 A 
ATOM     27  N   UNL     1       0.180   9.910  18.765  0.00  0.00    +0.000 NA
ATOM     28  C   UNL     1       0.422   9.689  20.083  0.00  0.00    +0.000 A 
ATOM     29  H   UNL     1       0.318  10.345  23.190  0.00  0.00    +0.000 HD
ENDBRANCH  19  20
ENDBRANCH  18  19
ENDBRANCH   3  18
TORSDOF 6
ENDMDL
MODEL 6
REMARK VINA RESULT:      -8.0      2.367      3.188
REMARK  Name = 
REMARK  6 active torsions:
REMARK  status: ('A' for Active; 'I' for Inactive)
REMARK    1  A    between atoms: C_2  and  C_3
REMARK    2  A    between atoms: C_8  and  O_9
REMARK    3  A    between atoms: O_9  and  C_10
REMARK    4  A    between atoms: C_12  and  O_13
REMARK    5  A    between atoms: O_13  and  C_14
REMARK    6  A    between atoms: C_14  and  C_15
REMARK                            x       y       z     vdW  Elec       q    Type
REMARK                         _______ _______ _______ _____ _____    ______ ____
ROOT
ATOM      1  C   UNL     1       2.687   5.463  19.086  0.00  0.00    +0.000 A 
ATOM      2  C   UNL     1       2.724   6.764  18.575  0.00  0.00    +0.000 A 
ATOM      3  C   UNL     1       2.139   7.827  19.256  0.00  0.00    +0.000 A 
ATOM      4  C   UNL     1       1.534   7.601  20.489  0.00  0.00    +0.000 A 
ATOM      5  C   UNL     1       1.573   6.324  21.060  0.00  0.00    +0.000 A 
ATOM      6  C   UNL     1       2.166   5.259  20.371  0.00  0.00    +0.000 A 
ATOM      7 CL   UNL     1       2.241   3.723  21.153  0.00  0.00    +0.000 Cl
ENDROOT
BRANCH   1   8
ATOM      8  O   UNL     1       3.177   4.386  18.373  0.00  0.00    +0.000 OA
BRANCH   8  14
ATOM      9  C   UNL     1       5.982   4.312  15.920  0.00  0.00    +0.000 A 
ATOM     10  C   UNL     1       7.022   4.720  16.754  0.00  0.00    +0.000 A 
ATOM     11  C   UNL     1       6.763   4.993  18.097  0.00  0.00    +0.000 A 
ATOM     12 CL   UNL     1       8.056   5.487  19.121  0.00  0.00    +0.000 Cl
ATOM     13  C   UNL     1       5.475   4.873  18.619  0.00  0.00    +0.000 A 
ATOM     14  C   UNL     1       4.426   4.481  17.785  0.00  0.00    +0.000 A 
ATOM     15  C   UNL     1       4.689   4.175  16.439  0.00  0.00    +0.000 A 
BRANCH   9  17
ATOM     16  N   UNL     1       6.449   3.800  13.421  0.00  0.00    +0.000 NA
ATOM     17  C   UNL     1       6.240   4.032  14.533  0.00  0.00    +0.000 C 
ENDBRANCH   9  17
ENDBRANCH   8  14
ENDBRANCH   1   8
BRANCH   3  18
ATOM     18  O   UNL     1       2.165   9.011  18.577  0.00  0.00    +0.000 OA
BRANCH  18  19
ATOM     19  C   UNL     1       1.058   9.242  17.698  0.00  0.00    +0.000 C 
BRANCH  19  20
ATOM     20  C   UNL     1       0.053  10.153  18.323  0.00  0.00    +0.000 A 
ATOM     21  N   UNL     1       0.389  10.948  19.358  0.00  0.00    +0.000 NA
ATOM     22  N   UNL     1      -0.750  11.609  19.634  0.00  0.00    +0.000 N 
ATOM     23  C   UNL     1      -1.793  11.302  18.808  0.00  0.00    +0.000 A 
ATOM     24  C   UNL     1      -3.108  11.755  18.735  0.00  0.00    +0.000 A 
ATOM     25  C   UNL     1      -3.879  11.194  17.718  0.00  0.00    +0.000 A 
ATOM     26  C   UNL     1      -3.307  10.252  16.869  0.00  0.00    +0.000 A 
ATOM     27  N   UNL     1      -2.033   9.802  16.932  0.00  0.00    +0.000 NA
ATOM     28  C   UNL     1      -1.294  10.348  17.931  0.00  0.00    +0.000 A 
ATOM     29  H   UNL     1      -0.741  12.275  20.397  0.00  0.00    +0.000 HD
ENDBRANCH  19  20
ENDBRANCH  18  19
ENDBRANCH   3  18
TORSDOF 6
ENDMDL
MODEL 7
REMARK VINA RESULT:      -8.0      2.065      2.492
REMARK  Name = 
REMARK  6 active torsions:
REMARK  status: ('A' for Active; 'I' for Inactive)
REMARK    1  A    between atoms: C_2  and  C_3
REMARK    2  A    between atoms: C_8  and  O_9
REMARK    3  A    between atoms: O_9  and  C_10
REMARK    4  A    between atoms: C_12  and  O_13
REMARK    5  A    between atoms: O_13  and  C_14
REMARK    6  A    between atoms: C_14  and  C_15
REMARK                            x       y       z     vdW  Elec       q    Type
REMARK                         _______ _______ _______ _____ _____    ______ ____
ROOT
ATOM      1  C   UNL     1       2.566   4.422  18.402  0.00  0.00    +0.000 A 
ATOM      2  C   UNL     1       2.637   5.774  18.751  0.00  0.00    +0.000 A 
ATOM      3  C   UNL     1       1.974   6.268  19.870  0.00  0.00    +0.000 A 
ATOM      4  C   UNL     1       1.255   5.396  20.682  0.00  0.00    +0.000 A 
ATOM      5  C   UNL     1       1.255   4.025  20.402  0.00  0.00    +0.000 A 
ATOM      6  C   UNL     1       1.925   3.533  19.275  0.00  0.00    +0.000 A 
ATOM      7 CL   UNL     1       1.943   1.827  19.017  0.00  0.00    +0.000 Cl
ENDROOT
BRANCH   1   8
ATOM      8  O   UNL     1       3.138   3.939  17.240  0.00  0.00    +0.000 OA
BRANCH   8  14
ATOM      9  C   UNL     1       6.754   4.736  17.661  0.00  0.00    +0.000 A 
ATOM     10  C   UNL     1       7.156   4.673  16.327  0.00  0.00    +0.000 A 
ATOM     11  C   UNL     1       6.218   4.382  15.336  0.00  0.00    +0.000 A 
ATOM     12 CL   UNL     1       6.721   4.316  13.692  0.00  0.00    +0.000 Cl
ATOM     13  C   UNL     1       4.882   4.144  15.661  0.00  0.00    +0.000 A 
ATOM     14  C   UNL     1       4.476   4.188  16.996  0.00  0.00    +0.000 A 
ATOM     15  C   UNL     1       5.412   4.512  17.993  0.00  0.00    +0.000 A 
BRANCH   9  17
ATOM     16  N   UNL     1       8.491   5.275  19.510  0.00  0.00    +0.000 NA
ATOM     17  C   UNL     1       7.716   5.031  18.688  0.00  0.00    +0.000 C 
ENDBRANCH   9  17
ENDBRANCH   8  14
ENDBRANCH   1   8
BRANCH   3  18
ATOM     18  O   UNL     1       2.051   7.624  20.015  0.00  0.00    +0.000 OA
BRANCH  18  19
ATOM     19  C   UNL     1       1.286   8.172  21.094  0.00  0.00    +0.000 C 
BRANCH  19  20
ATOM     20  C   UNL     1       0.553   9.401  20.666  0.00  0.00    +0.000 A 
ATOM     21  N   UNL     1       0.586   9.815  19.384  0.00  0.00    +0.000 NA
ATOM     22  N   UNL     1      -0.180  10.921  19.388  0.00  0.00    +0.000 N 
ATOM     23  C   UNL     1      -0.730  11.221  20.602  0.00  0.00    +0.000 A 
ATOM     24  C   UNL     1      -1.576  12.240  21.032  0.00  0.00    +0.000 A 
ATOM     25  C   UNL     1      -1.933  12.193  22.378  0.00  0.00    +0.000 A 
ATOM     26  C   UNL     1      -1.442  11.168  23.179  0.00  0.00    +0.000 A 
ATOM     27  N   UNL     1      -0.617  10.175  22.774  0.00  0.00    +0.000 NA
ATOM     28  C   UNL     1      -0.269  10.235  21.463  0.00  0.00    +0.000 A 
ATOM     29  H   UNL     1      -0.300  11.420  18.515  0.00  0.00    +0.000 HD
ENDBRANCH  19  20
ENDBRANCH  18  19
ENDBRANCH   3  18
TORSDOF 6
ENDMDL
MODEL 8
REMARK VINA RESULT:      -8.0      2.005      2.780
REMARK  Name = 
REMARK  6 active torsions:
REMARK  status: ('A' for Active; 'I' for Inactive)
REMARK    1  A    between atoms: C_2  and  C_3
REMARK    2  A    between atoms: C_8  and  O_9
REMARK    3  A    between atoms: O_9  and  C_10
REMARK    4  A    between atoms: C_12  and  O_13
REMARK    5  A    between atoms: O_13  and  C_14
REMARK    6  A    between atoms: C_14  and  C_15
REMARK                            x       y       z     vdW  Elec       q    Type
REMARK                         _______ _______ _______ _____ _____    ______ ____
ROOT
ATOM      1  C   UNL     1       2.706   3.951  18.441  0.00  0.00    +0.000 A 
ATOM      2  C   UNL     1       2.209   5.093  19.076  0.00  0.00    +0.000 A 
ATOM      3  C   UNL     1       1.608   5.020  20.329  0.00  0.00    +0.000 A 
ATOM      4  C   UNL     1       1.531   3.793  20.982  0.00  0.00    +0.000 A 
ATOM      5  C   UNL     1       2.111   2.658  20.403  0.00  0.00    +0.000 A 
ATOM      6  C   UNL     1       2.715   2.739  19.143  0.00  0.00    +0.000 A 
ATOM      7 CL   UNL     1       3.469   1.322  18.509  0.00  0.00    +0.000 Cl
ENDROOT
BRANCH   1   8
ATOM      8  O   UNL     1       3.215   3.997  17.156  0.00  0.00    +0.000 OA
BRANCH   8  14
ATOM      9  C   UNL     1       6.784   4.893  17.745  0.00  0.00    +0.000 A 
ATOM     10  C   UNL     1       7.236   4.899  16.426  0.00  0.00    +0.000 A 
ATOM     11  C   UNL     1       6.345   4.620  15.390  0.00  0.00    +0.000 A 
ATOM     12 CL   UNL     1       6.910   4.640  13.764  0.00  0.00    +0.000 Cl
ATOM     13  C   UNL     1       5.007   4.325  15.654  0.00  0.00    +0.000 A 
ATOM     14  C   UNL     1       4.552   4.299  16.973  0.00  0.00    +0.000 A 
ATOM     15  C   UNL     1       5.440   4.611  18.017  0.00  0.00    +0.000 A 
BRANCH   9  17
ATOM     16  N   UNL     1       8.432   5.410  19.679  0.00  0.00    +0.000 NA
ATOM     17  C   UNL     1       7.697   5.176  18.819  0.00  0.00    +0.000 C 
ENDBRANCH   9  17
ENDBRANCH   8  14
ENDBRANCH   1   8
BRANCH   3  18
ATOM     18  O   UNL     1       1.078   6.199  20.768  0.00  0.00    +0.000 OA
BRANCH  18  19
ATOM     19  C   UNL     1       1.842   7.370  20.461  0.00  0.00    +0.000 C 
BRANCH  19  20
ATOM     20  C   UNL     1       1.161   8.604  20.954  0.00  0.00    +0.000 A 
ATOM     21  N   UNL     1       1.170   8.922  22.264  0.00  0.00    +0.000 NA
ATOM     22  N   UNL     1       0.479  10.075  22.315  0.00  0.00    +0.000 N 
ATOM     23  C   UNL     1       0.055  10.532  21.099  0.00  0.00    +0.000 A 
ATOM     24  C   UNL     1      -0.658  11.664  20.709  0.00  0.00    +0.000 A 
ATOM     25  C   UNL     1      -0.889  11.782  19.340  0.00  0.00    +0.000 A 
ATOM     26  C   UNL     1      -0.409  10.800  18.480  0.00  0.00    +0.000 A 
ATOM     27  N   UNL     1       0.281   9.696  18.847  0.00  0.00    +0.000 NA
ATOM     28  C   UNL     1       0.493   9.586  20.184  0.00  0.00    +0.000 A 
ATOM     29  H   UNL     1       0.347  10.512  23.219  0.00  0.00    +0.000 HD
ENDBRANCH  19  20
ENDBRANCH  18  19
ENDBRANCH   3  18
TORSDOF 6
ENDMDL
MODEL 9
REMARK VINA RESULT:      -7.9      1.114      1.262
REMARK  Name = 
REMARK  6 active torsions:
REMARK  status: ('A' for Active; 'I' for Inactive)
REMARK    1  A    between atoms: C_2  and  C_3
REMARK    2  A    between atoms: C_8  and  O_9
REMARK    3  A    between atoms: O_9  and  C_10
REMARK    4  A    between atoms: C_12  and  O_13
REMARK    5  A    between atoms: O_13  and  C_14
REMARK    6  A    between atoms: C_14  and  C_15
REMARK                            x       y       z     vdW  Elec       q    Type
REMARK                         _______ _______ _______ _____ _____    ______ ____
ROOT
ATOM      1  C   UNL     1       4.493   3.963  19.667  0.00  0.00    +0.000 A 
ATOM      2  C   UNL     1       3.738   5.123  19.473  0.00  0.00    +0.000 A 
ATOM      3  C   UNL     1       2.381   5.163  19.776  0.00  0.00    +0.000 A 
ATOM      4  C   UNL     1       1.766   4.038  20.317  0.00  0.00    +0.000 A 
ATOM      5  C   UNL     1       2.528   2.900  20.608  0.00  0.00    +0.000 A 
ATOM      6  C   UNL     1       3.894   2.867  20.303  0.00  0.00    +0.000 A 
ATOM      7 CL   UNL     1       4.794   1.463  20.744  0.00  0.00    +0.000 Cl
ENDROOT
BRANCH   1   8
ATOM      8  O   UNL     1       5.817   3.882  19.278  0.00  0.00    +0.000 OA
BRANCH   8  14
ATOM      9  C   UNL     1       6.582   4.856  15.763  0.00  0.00    +0.000 A 
ATOM     10  C   UNL     1       7.128   6.118  15.992  0.00  0.00    +0.000 A 
ATOM     11  C   UNL     1       7.236   6.597  17.298  0.00  0.00    +0.000 A 
ATOM     12 CL   UNL     1       7.920   8.153  17.572  0.00  0.00    +0.000 Cl
ATOM     13  C   UNL     1       6.796   5.835  18.381  0.00  0.00    +0.000 A 
ATOM     14  C   UNL     1       6.232   4.578  18.157  0.00  0.00    +0.000 A 
ATOM     15  C   UNL     1       6.152   4.079  16.846  0.00  0.00    +0.000 A 
BRANCH   9  17
ATOM     16  N   UNL     1       6.363   3.952  13.342  0.00  0.00    +0.000 NA
ATOM     17  C   UNL     1       6.465   4.356  14.420  0.00  0.00    +0.000 C 
ENDBRANCH   9  17
ENDBRANCH   8  14
ENDBRANCH   1   8
BRANCH   3  18
ATOM     18  O   UNL     1       1.762   6.330  19.430  0.00  0.00    +0.000 OA
BRANCH  18  19
ATOM     19  C   UNL     1       2.599   7.310  18.807  0.00  0.00    +0.000 C 
BRANCH  19  20
ATOM     20  C   UNL     1       1.895   8.622  18.685  0.00  0.00    +0.000 A 
ATOM     21  N   UNL     1       1.914   9.311  17.527  0.00  0.00    +0.000 NA
ATOM     22  N   UNL     1       1.183  10.407  17.799  0.00  0.00    +0.000 N 
ATOM     23  C   UNL     1       0.668  10.442  19.063  0.00  0.00    +0.000 A 
ATOM     24  C   UNL     1      -0.137  11.361  19.733  0.00  0.00    +0.000 A 
ATOM     25  C   UNL     1      -0.466  11.023  21.044  0.00  0.00    +0.000 A 
ATOM     26  C   UNL     1       0.010   9.833  21.582  0.00  0.00    +0.000 A 
ATOM     27  N   UNL     1       0.795   8.934  20.944  0.00  0.00    +0.000 NA
ATOM     28  C   UNL     1       1.117   9.277  19.669  0.00  0.00    +0.000 A 
ATOM     29  H   UNL     1       1.060  11.092  17.062  0.00  0.00    +0.000 HD
ENDBRANCH  19  20
ENDBRANCH  18  19
ENDBRANCH   3  18
TORSDOF 6
ENDMDL
