MODEL 1
REMARK VINA RESULT:      -7.1      0.000      0.000
REMARK  Name = 
REMARK  6 active torsions:
REMARK  status: ('A' for Active; 'I' for Inactive)
REMARK    1  A    between atoms: C_1  and  N_2
REMARK    2  A    between atoms: N_4  and  C_5
REMARK    3  A    between atoms: C_5  and  C_6
REMARK    4  A    between atoms: N_8  and  C_9
REMARK    5  A    between atoms: C_9  and  C_10
REMARK    6  A    between atoms: C_10  and  O_12
REMARK                            x       y       z     vdW  Elec       q    Type
REMARK                         _______ _______ _______ _____ _____    ______ ____
ROOT
ATOM      1  C   UNL     1       3.398   7.757  17.566  0.00  0.00    +0.000 C 
ATOM      2  N   UNL     1       4.123   6.524  17.324  0.00  0.00    +0.000 N 
ATOM      3  C   UNL     1       5.363   6.412  16.851  0.00  0.00    +0.000 A 
ATOM      4  N   UNL     1       5.678   5.112  16.723  0.00  0.00    +0.000 N 
ATOM      5  C   UNL     1       4.627   4.361  17.236  0.00  0.00    +0.000 A 
ATOM      6  N   UNL     1       4.599   2.994  17.372  0.00  0.00    +0.000 NA
ATOM      7  C   UNL     1       3.451   2.591  17.960  0.00  0.00    +0.000 A 
ATOM      8  N   UNL     1       3.311   1.253  18.261  0.00  0.00    +0.000 N 
ATOM      9  N   UNL     1       2.408   3.375  18.318  0.00  0.00    +0.000 NA
ATOM     10  C   UNL     1       2.461   4.731  18.157  0.00  0.00    +0.000 A 
ATOM     11  O   UNL     1       1.523   5.506  18.501  0.00  0.00    +0.000 OA
ATOM     12  C   UNL     1       3.631   5.251  17.609  0.00  0.00    +0.000 A 
ATOM     13  H   UNL     1       3.853   0.637  17.678  0.00  0.00    +0.000 HD
ATOM     14  H   UNL     1       2.331   1.046  18.411  0.00  0.00    +0.000 HD
ENDROOT
BRANCH   4  15
ATOM     15  C   UNL     1       6.934   4.555  16.211  0.00  0.00    +0.000 C 
BRANCH  15  16
ATOM     16  C   UNL     1       7.056   4.643  14.679  0.00  0.00    +0.000 C 
ATOM     17  O   UNL     1       7.759   5.490  14.114  0.00  0.00    +0.000 OA
ATOM     18  N   UNL     1       6.367   3.715  13.936  0.00  0.00    +0.000 N 
ATOM     19  H   UNL     1       5.789   2.989  14.360  0.00  0.00    +0.000 HD
BRANCH  18  20
ATOM     20  C   UNL     1       6.434   3.757  12.482  0.00  0.00    +0.000 C 
BRANCH  20  21
ATOM     21  C   UNL     1       5.492   2.756  11.839  0.00  0.00    +0.000 C 
ATOM     22  O   UNL     1       4.341   3.020  11.511  0.00  0.00    +0.000 OA
BRANCH  21  23
ATOM     23  O   UNL     1       6.041   1.534  11.665  0.00  0.00    +0.000 OA
ATOM     24  H   UNL     1       6.782   1.501  11.028  0.00  0.00    +0.000 HD
ENDBRANCH  21  23
ENDBRANCH  20  21
ENDBRANCH  18  20
ENDBRANCH  15  16
ENDBRANCH   4  15
TORSDOF 5
ENDMDL
MODEL 2
REMARK VINA RESULT:      -6.8      3.707      6.373
REMARK  Name = 
REMARK  6 active torsions:
REMARK  status: ('A' for Active; 'I' for Inactive)
REMARK    1  A    between atoms: C_1  and  N_2
REMARK    2  A    between atoms: N_4  and  C_5
REMARK    3  A    between atoms: C_5  and  C_6
REMARK    4  A    between atoms: N_8  and  C_9
REMARK    5  A    between atoms: C_9  and  C_10
REMARK    6  A    between atoms: C_10  and  O_12
REMARK                            x       y       z     vdW  Elec       q    Type
REMARK                         _______ _______ _______ _____ _____    ______ ____
ROOT
ATOM      1  C   UNL     1       4.974   7.046  15.302  0.00  0.00    +0.000 C 
ATOM      2  N   UNL     1       5.172   6.034  16.325  0.00  0.00    +0.000 N 
ATOM      3  C   UNL     1       4.503   4.888  16.447  0.00  0.00    +0.000 A 
ATOM      4  N   UNL     1       4.937   4.232  17.537  0.00  0.00    +0.000 N 
ATOM      5  C   UNL     1       6.001   4.945  18.075  0.00  0.00    +0.000 A 
ATOM      6  N   UNL     1       6.777   4.560  19.142  0.00  0.00    +0.000 NA
ATOM      7  C   UNL     1       7.764   5.455  19.368  0.00  0.00    +0.000 A 
ATOM      8  N   UNL     1       8.694   5.162  20.344  0.00  0.00    +0.000 N 
ATOM      9  N   UNL     1       7.961   6.623  18.714  0.00  0.00    +0.000 NA
ATOM     10  C   UNL     1       7.163   6.984  17.666  0.00  0.00    +0.000 A 
ATOM     11  O   UNL     1       7.326   8.051  17.008  0.00  0.00    +0.000 OA
ATOM     12  C   UNL     1       6.149   6.097  17.317  0.00  0.00    +0.000 A 
ATOM     13  H   UNL     1       8.358   4.548  21.067  0.00  0.00    +0.000 HD
ATOM     14  H   UNL     1       9.175   6.013  20.610  0.00  0.00    +0.000 HD
ENDROOT
BRANCH   4  15
ATOM     15  C   UNL     1       4.446   2.948  18.046  0.00  0.00    +0.000 C 
BRANCH  15  16
ATOM     16  C   UNL     1       3.863   3.043  19.468  0.00  0.00    +0.000 C 
ATOM     17  O   UNL     1       4.187   2.266  20.375  0.00  0.00    +0.000 OA
ATOM     18  N   UNL     1       2.969   4.057  19.717  0.00  0.00    +0.000 N 
ATOM     19  H   UNL     1       2.686   4.730  19.005  0.00  0.00    +0.000 HD
BRANCH  18  20
ATOM     20  C   UNL     1       2.375   4.190  21.040  0.00  0.00    +0.000 C 
BRANCH  20  21
ATOM     21  C   UNL     1       1.328   3.123  21.303  0.00  0.00    +0.000 C 
ATOM     22  O   UNL     1       1.338   2.390  22.285  0.00  0.00    +0.000 OA
BRANCH  21  23
ATOM     23  O   UNL     1       0.378   3.051  20.345  0.00  0.00    +0.000 OA
ATOM     24  H   UNL     1       0.713   3.094  19.427  0.00  0.00    +0.000 HD
ENDBRANCH  21  23
ENDBRANCH  20  21
ENDBRANCH  18  20
ENDBRANCH  15  16
ENDBRANCH   4  15
TORSDOF 5
ENDMDL
MODEL 3
REMARK VINA RESULT:      -6.8      1.726      3.037
REMARK  Name = 
REMARK  6 active torsions:
REMARK  status: ('A' for Active; 'I' for Inactive)
REMARK    1  A    between atoms: C_1  and  N_2
REMARK    2  A    between atoms: N_4  and  C_5
REMARK    3  A    between atoms: C_5  and  C_6
REMARK    4  A    between atoms: N_8  and  C_9
REMARK    5  A    between atoms: C_9  and  C_10
REMARK    6  A    between atoms: C_10  and  O_12
REMARK                            x       y       z     vdW  Elec       q    Type
REMARK                         _______ _______ _______ _____ _____    ______ ____
ROOT
ATOM      1  C   UNL     1       3.522   1.481  18.342  0.00  0.00    +0.000 C 
ATOM      2  N   UNL     1       3.740   2.893  18.088  0.00  0.00    +0.000 N 
ATOM      3  C   UNL     1       4.412   3.421  17.066  0.00  0.00    +0.000 A 
ATOM      4  N   UNL     1       4.436   4.759  17.190  0.00  0.00    +0.000 N 
ATOM      5  C   UNL     1       3.654   5.105  18.285  0.00  0.00    +0.000 A 
ATOM      6  N   UNL     1       3.351   6.382  18.693  0.00  0.00    +0.000 NA
ATOM      7  C   UNL     1       2.520   6.363  19.759  0.00  0.00    +0.000 A 
ATOM      8  N   UNL     1       2.039   7.567  20.228  0.00  0.00    +0.000 N 
ATOM      9  N   UNL     1       2.078   5.268  20.419  0.00  0.00    +0.000 NA
ATOM     10  C   UNL     1       2.409   4.011  19.997  0.00  0.00    +0.000 A 
ATOM     11  O   UNL     1       1.998   2.960  20.565  0.00  0.00    +0.000 OA
ATOM     12  C   UNL     1       3.218   3.924  18.868  0.00  0.00    +0.000 A 
ATOM     13  H   UNL     1       2.631   8.357  20.030  0.00  0.00    +0.000 HD
ATOM     14  H   UNL     1       1.690   7.441  21.171  0.00  0.00    +0.000 HD
ENDROOT
BRANCH   4  15
ATOM     15  C   UNL     1       5.095   5.716  16.296  0.00  0.00    +0.000 C 
BRANCH  15  16
ATOM     16  C   UNL     1       6.067   5.050  15.305  0.00  0.00    +0.000 C 
ATOM     17  O   UNL     1       7.288   5.006  15.497  0.00  0.00    +0.000 OA
ATOM     18  N   UNL     1       5.524   4.467  14.185  0.00  0.00    +0.000 N 
ATOM     19  H   UNL     1       4.523   4.464  13.995  0.00  0.00    +0.000 HD
BRANCH  18  20
ATOM     20  C   UNL     1       6.396   3.832  13.206  0.00  0.00    +0.000 C 
BRANCH  20  21
ATOM     21  C   UNL     1       5.611   3.072  12.153  0.00  0.00    +0.000 C 
ATOM     22  O   UNL     1       4.525   3.440  11.718  0.00  0.00    +0.000 OA
BRANCH  21  23
ATOM     23  O   UNL     1       6.221   1.941  11.737  0.00  0.00    +0.000 OA
ATOM     24  H   UNL     1       6.226   1.211  12.389  0.00  0.00    +0.000 HD
ENDBRANCH  21  23
ENDBRANCH  20  21
ENDBRANCH  18  20
ENDBRANCH  15  16
ENDBRANCH   4  15
TORSDOF 5
ENDMDL
MODEL 4
REMARK VINA RESULT:      -6.8      1.872      2.169
REMARK  Name = 
REMARK  6 active torsions:
REMARK  status: ('A' for Active; 'I' for Inactive)
REMARK    1  A    between atoms: C_1  and  N_2
REMARK    2  A    between atoms: N_4  and  C_5
REMARK    3  A    between atoms: C_5  and  C_6
REMARK    4  A    between atoms: N_8  and  C_9
REMARK    5  A    between atoms: C_9  and  C_10
REMARK    6  A    between atoms: C_10  and  O_12
REMARK                            x       y       z     vdW  Elec       q    Type
REMARK                         _______ _______ _______ _____ _____    ______ ____
ROOT
ATOM      1  C   UNL     1       1.745   6.796  18.117  0.00  0.00    +0.000 C 
ATOM      2  N   UNL     1       3.064   6.205  18.249  0.00  0.00    +0.000 N 
ATOM      3  C   UNL     1       4.225   6.778  17.933  0.00  0.00    +0.000 A 
ATOM      4  N   UNL     1       5.227   5.910  18.153  0.00  0.00    +0.000 N 
ATOM      5  C   UNL     1       4.688   4.768  18.734  0.00  0.00    +0.000 A 
ATOM      6  N   UNL     1       5.395   3.683  19.195  0.00  0.00    +0.000 NA
ATOM      7  C   UNL     1       4.568   2.772  19.755  0.00  0.00    +0.000 A 
ATOM      8  N   UNL     1       5.134   1.668  20.357  0.00  0.00    +0.000 N 
ATOM      9  N   UNL     1       3.218   2.835  19.815  0.00  0.00    +0.000 NA
ATOM     10  C   UNL     1       2.544   3.922  19.335  0.00  0.00    +0.000 A 
ATOM     11  O   UNL     1       1.286   4.036  19.393  0.00  0.00    +0.000 OA
ATOM     12  C   UNL     1       3.313   4.944  18.787  0.00  0.00    +0.000 A 
ATOM     13  H   UNL     1       6.037   1.412  19.993  0.00  0.00    +0.000 HD
ATOM     14  H   UNL     1       4.427   0.949  20.463  0.00  0.00    +0.000 HD
ENDROOT
BRANCH   4  15
ATOM     15  C   UNL     1       6.656   6.131  17.909  0.00  0.00    +0.000 C 
BRANCH  15  16
ATOM     16  C   UNL     1       7.186   5.368  16.682  0.00  0.00    +0.000 C 
ATOM     17  O   UNL     1       8.023   4.460  16.772  0.00  0.00    +0.000 OA
ATOM     18  N   UNL     1       6.673   5.712  15.455  0.00  0.00    +0.000 N 
ATOM     19  H   UNL     1       5.970   6.442  15.336  0.00  0.00    +0.000 HD
BRANCH  18  20
ATOM     20  C   UNL     1       7.146   5.034  14.256  0.00  0.00    +0.000 C 
BRANCH  20  21
ATOM     21  C   UNL     1       6.281   3.840  13.898  0.00  0.00    +0.000 C 
ATOM     22  O   UNL     1       5.914   3.585  12.757  0.00  0.00    +0.000 OA
BRANCH  21  23
ATOM     23  O   UNL     1       5.943   3.080  14.963  0.00  0.00    +0.000 OA
ATOM     24  H   UNL     1       5.494   3.560  15.687  0.00  0.00    +0.000 HD
ENDBRANCH  21  23
ENDBRANCH  20  21
ENDBRANCH  18  20
ENDBRANCH  15  16
ENDBRANCH   4  15
TORSDOF 5
ENDMDL
MODEL 5
REMARK VINA RESULT:      -6.8      3.202      7.408
REMARK  Name = 
REMARK  6 active torsions:
REMARK  status: ('A' for Active; 'I' for Inactive)
REMARK    1  A    between atoms: C_1  and  N_2
REMARK    2  A    between atoms: N_4  and  C_5
REMARK    3  A    between atoms: C_5  and  C_6
REMARK    4  A    between atoms: N_8  and  C_9
REMARK    5  A    between atoms: C_9  and  C_10
REMARK    6  A    between atoms: C_10  and  O_12
REMARK                            x       y       z     vdW  Elec       q    Type
REMARK                         _______ _______ _______ _____ _____    ______ ____
ROOT
ATOM      1  C   UNL     1       4.966   4.322  15.107  0.00  0.00    +0.000 C 
ATOM      2  N   UNL     1       4.888   4.642  16.521  0.00  0.00    +0.000 N 
ATOM      3  C   UNL     1       3.777   4.768  17.246  0.00  0.00    +0.000 A 
ATOM      4  N   UNL     1       4.101   5.110  18.504  0.00  0.00    +0.000 N 
ATOM      5  C   UNL     1       5.487   5.100  18.611  0.00  0.00    +0.000 A 
ATOM      6  N   UNL     1       6.212   5.306  19.760  0.00  0.00    +0.000 NA
ATOM      7  C   UNL     1       7.536   5.170  19.525  0.00  0.00    +0.000 A 
ATOM      8  N   UNL     1       8.396   5.246  20.601  0.00  0.00    +0.000 N 
ATOM      9  N   UNL     1       8.125   4.937  18.330  0.00  0.00    +0.000 NA
ATOM     10  C   UNL     1       7.376   4.750  17.203  0.00  0.00    +0.000 A 
ATOM     11  O   UNL     1       7.881   4.503  16.070  0.00  0.00    +0.000 OA
ATOM     12  C   UNL     1       5.994   4.815  17.352  0.00  0.00    +0.000 A 
ATOM     13  H   UNL     1       8.047   5.787  21.375  0.00  0.00    +0.000 HD
ATOM     14  H   UNL     1       9.335   5.425  20.263  0.00  0.00    +0.000 HD
ENDROOT
BRANCH   4  15
ATOM     15  C   UNL     1       3.178   5.374  19.612  0.00  0.00    +0.000 C 
BRANCH  15  16
ATOM     16  C   UNL     1       2.548   6.778  19.554  0.00  0.00    +0.000 C 
ATOM     17  O   UNL     1       2.494   7.442  18.512  0.00  0.00    +0.000 OA
ATOM     18  N   UNL     1       2.010   7.276  20.717  0.00  0.00    +0.000 N 
ATOM     19  H   UNL     1       2.017   6.757  21.595  0.00  0.00    +0.000 HD
BRANCH  18  20
ATOM     20  C   UNL     1       1.412   8.604  20.727  0.00  0.00    +0.000 C 
BRANCH  20  21
ATOM     21  C   UNL     1       0.388   8.759  21.835  0.00  0.00    +0.000 C 
ATOM     22  O   UNL     1      -0.700   8.193  21.839  0.00  0.00    +0.000 OA
BRANCH  21  23
ATOM     23  O   UNL     1       0.785   9.588  22.825  0.00  0.00    +0.000 OA
ATOM     24  H   UNL     1       1.718   9.487  23.099  0.00  0.00    +0.000 HD
ENDBRANCH  21  23
ENDBRANCH  20  21
ENDBRANCH  18  20
ENDBRANCH  15  16
ENDBRANCH   4  15
TORSDOF 5
ENDMDL
MODEL 6
REMARK VINA RESULT:      -6.8      2.748      6.502
REMARK  Name = 
REMARK  6 active torsions:
REMARK  status: ('A' for Active; 'I' for Inactive)
REMARK    1  A    between atoms: C_1  and  N_2
REMARK    2  A    between atoms: N_4  and  C_5
REMARK    3  A    between atoms: C_5  and  C_6
REMARK    4  A    between atoms: N_8  and  C_9
REMARK    5  A    between atoms: C_9  and  C_10
REMARK    6  A    between atoms: C_10  and  O_12
REMARK                            x       y       z     vdW  Elec       q    Type
REMARK                         _______ _______ _______ _____ _____    ______ ____
ROOT
ATOM      1  C   UNL     1       5.094   4.398  14.599  0.00  0.00    +0.000 C 
ATOM      2  N   UNL     1       5.035   4.254  16.043  0.00  0.00    +0.000 N 
ATOM      3  C   UNL     1       4.129   3.566  16.735  0.00  0.00    +0.000 A 
ATOM      4  N   UNL     1       4.376   3.699  18.050  0.00  0.00    +0.000 N 
ATOM      5  C   UNL     1       5.555   4.420  18.197  0.00  0.00    +0.000 A 
ATOM      6  N   UNL     1       6.196   4.690  19.382  0.00  0.00    +0.000 NA
ATOM      7  C   UNL     1       7.348   5.363  19.164  0.00  0.00    +0.000 A 
ATOM      8  N   UNL     1       8.162   5.622  20.247  0.00  0.00    +0.000 N 
ATOM      9  N   UNL     1       7.815   5.799  17.972  0.00  0.00    +0.000 NA
ATOM     10  C   UNL     1       7.147   5.526  16.812  0.00  0.00    +0.000 A 
ATOM     11  O   UNL     1       7.559   5.890  15.674  0.00  0.00    +0.000 OA
ATOM     12  C   UNL     1       5.973   4.786  16.927  0.00  0.00    +0.000 A 
ATOM     13  H   UNL     1       7.678   5.669  21.128  0.00  0.00    +0.000 HD
ATOM     14  H   UNL     1       8.810   6.362  20.005  0.00  0.00    +0.000 HD
ENDROOT
BRANCH   4  15
ATOM     15  C   UNL     1       3.600   3.126  19.155  0.00  0.00    +0.000 C 
BRANCH  15  16
ATOM     16  C   UNL     1       2.512   4.076  19.688  0.00  0.00    +0.000 C 
ATOM     17  O   UNL     1       1.310   3.784  19.679  0.00  0.00    +0.000 OA
ATOM     18  N   UNL     1       2.925   5.278  20.211  0.00  0.00    +0.000 N 
ATOM     19  H   UNL     1       3.906   5.553  20.253  0.00  0.00    +0.000 HD
BRANCH  18  20
ATOM     20  C   UNL     1       1.940   6.223  20.718  0.00  0.00    +0.000 C 
BRANCH  20  21
ATOM     21  C   UNL     1       1.965   7.535  19.957  0.00  0.00    +0.000 C 
ATOM     22  O   UNL     1       1.455   8.570  20.371  0.00  0.00    +0.000 OA
BRANCH  21  23
ATOM     23  O   UNL     1       2.601   7.457  18.768  0.00  0.00    +0.000 OA
ATOM     24  H   UNL     1       3.430   7.973  18.708  0.00  0.00    +0.000 HD
ENDBRANCH  21  23
ENDBRANCH  20  21
ENDBRANCH  18  20
ENDBRANCH  15  16
ENDBRANCH   4  15
TORSDOF 5
ENDMDL
MODEL 7
REMARK VINA RESULT:      -6.8      1.871      2.627
REMARK  Name = 
REMARK  6 active torsions:
REMARK  status: ('A' for Active; 'I' for Inactive)
REMARK    1  A    between atoms: C_1  and  N_2
REMARK    2  A    between atoms: N_4  and  C_5
REMARK    3  A    between atoms: C_5  and  C_6
REMARK    4  A    between atoms: N_8  and  C_9
REMARK    5  A    between atoms: C_9  and  C_10
REMARK    6  A    between atoms: C_10  and  O_12
REMARK                            x       y       z     vdW  Elec       q    Type
REMARK                         _______ _______ _______ _____ _____    ______ ____
ROOT
ATOM      1  C   UNL     1       1.458   6.343  20.540  0.00  0.00    +0.000 C 
ATOM      2  N   UNL     1       2.538   5.752  19.771  0.00  0.00    +0.000 N 
ATOM      3  C   UNL     1       3.608   6.384  19.290  0.00  0.00    +0.000 A 
ATOM      4  N   UNL     1       4.365   5.516  18.597  0.00  0.00    +0.000 N 
ATOM      5  C   UNL     1       3.805   4.252  18.730  0.00  0.00    +0.000 A 
ATOM      6  N   UNL     1       4.331   3.078  18.246  0.00  0.00    +0.000 NA
ATOM      7  C   UNL     1       3.563   2.023  18.602  0.00  0.00    +0.000 A 
ATOM      8  N   UNL     1       4.010   0.759  18.279  0.00  0.00    +0.000 N 
ATOM      9  N   UNL     1       2.392   2.068  19.276  0.00  0.00    +0.000 NA
ATOM     10  C   UNL     1       1.888   3.253  19.733  0.00  0.00    +0.000 A 
ATOM     11  O   UNL     1       0.812   3.340  20.390  0.00  0.00    +0.000 OA
ATOM     12  C   UNL     1       2.637   4.395  19.465  0.00  0.00    +0.000 A 
ATOM     13  H   UNL     1       4.621   0.725  17.480  0.00  0.00    +0.000 HD
ATOM     14  H   UNL     1       3.233   0.110  18.328  0.00  0.00    +0.000 HD
ENDROOT
BRANCH   4  15
ATOM     15  C   UNL     1       5.612   5.809  17.883  0.00  0.00    +0.000 C 
BRANCH  15  16
ATOM     16  C   UNL     1       5.466   5.735  16.352  0.00  0.00    +0.000 C 
ATOM     17  O   UNL     1       5.129   6.708  15.667  0.00  0.00    +0.000 OA
ATOM     18  N   UNL     1       5.755   4.534  15.749  0.00  0.00    +0.000 N 
ATOM     19  H   UNL     1       6.053   3.711  16.272  0.00  0.00    +0.000 HD
BRANCH  18  20
ATOM     20  C   UNL     1       5.623   4.400  14.305  0.00  0.00    +0.000 C 
BRANCH  20  21
ATOM     21  C   UNL     1       6.933   4.662  13.586  0.00  0.00    +0.000 C 
ATOM     22  O   UNL     1       7.852   5.315  14.066  0.00  0.00    +0.000 OA
BRANCH  21  23
ATOM     23  O   UNL     1       6.993   4.107  12.355  0.00  0.00    +0.000 OA
ATOM     24  H   UNL     1       6.646   4.667  11.633  0.00  0.00    +0.000 HD
ENDBRANCH  21  23
ENDBRANCH  20  21
ENDBRANCH  18  20
ENDBRANCH  15  16
ENDBRANCH   4  15
TORSDOF 5
ENDMDL
MODEL 8
REMARK VINA RESULT:      -6.8      3.201      4.507
REMARK  Name = 
REMARK  6 active torsions:
REMARK  status: ('A' for Active; 'I' for Inactive)
REMARK    1  A    between atoms: C_1  and  N_2
REMARK    2  A    between atoms: N_4  and  C_5
REMARK    3  A    between atoms: C_5  and  C_6
REMARK    4  A    between atoms: N_8  and  C_9
REMARK    5  A    between atoms: C_9  and  C_10
REMARK    6  A    between atoms: C_10  and  O_12
REMARK                            x       y       z     vdW  Elec       q    Type
REMARK                         _______ _______ _______ _____ _____    ______ ____
ROOT
ATOM      1  C   UNL     1       1.541   6.221  20.816  0.00  0.00    +0.000 C 
ATOM      2  N   UNL     1       2.283   5.649  19.707  0.00  0.00    +0.000 N 
ATOM      3  C   UNL     1       2.919   6.320  18.747  0.00  0.00    +0.000 A 
ATOM      4  N   UNL     1       3.454   5.450  17.873  0.00  0.00    +0.000 N 
ATOM      5  C   UNL     1       3.237   4.165  18.355  0.00  0.00    +0.000 A 
ATOM      6  N   UNL     1       3.708   3.001  17.798  0.00  0.00    +0.000 NA
ATOM      7  C   UNL     1       3.364   1.932  18.550  0.00  0.00    +0.000 A 
ATOM      8  N   UNL     1       3.849   0.695  18.180  0.00  0.00    +0.000 N 
ATOM      9  N   UNL     1       2.598   1.942  19.665  0.00  0.00    +0.000 NA
ATOM     10  C   UNL     1       2.132   3.116  20.187  0.00  0.00    +0.000 A 
ATOM     11  O   UNL     1       1.437   3.177  21.241  0.00  0.00    +0.000 OA
ATOM     12  C   UNL     1       2.483   4.283  19.513  0.00  0.00    +0.000 A 
ATOM     13  H   UNL     1       4.061   0.608  17.200  0.00  0.00    +0.000 HD
ATOM     14  H   UNL     1       3.294  -0.026  18.626  0.00  0.00    +0.000 HD
ENDROOT
BRANCH   4  15
ATOM     15  C   UNL     1       4.210   5.773  16.659  0.00  0.00    +0.000 C 
BRANCH  15  16
ATOM     16  C   UNL     1       5.735   5.742  16.869  0.00  0.00    +0.000 C 
ATOM     17  O   UNL     1       6.517   6.400  16.172  0.00  0.00    +0.000 OA
ATOM     18  N   UNL     1       6.215   4.963  17.895  0.00  0.00    +0.000 N 
ATOM     19  H   UNL     1       5.606   4.418  18.504  0.00  0.00    +0.000 HD
BRANCH  18  20
ATOM     20  C   UNL     1       7.649   4.884  18.133  0.00  0.00    +0.000 C 
BRANCH  20  21
ATOM     21  C   UNL     1       8.113   5.901  19.159  0.00  0.00    +0.000 C 
ATOM     22  O   UNL     1       8.364   7.070  18.891  0.00  0.00    +0.000 OA
BRANCH  21  23
ATOM     23  O   UNL     1       8.231   5.394  20.406  0.00  0.00    +0.000 OA
ATOM     24  H   UNL     1       8.815   4.613  20.480  0.00  0.00    +0.000 HD
ENDBRANCH  21  23
ENDBRANCH  20  21
ENDBRANCH  18  20
ENDBRANCH  15  16
ENDBRANCH   4  15
TORSDOF 5
ENDMDL
MODEL 9
REMARK VINA RESULT:      -6.7      3.228      4.715
REMARK  Name = 
REMARK  6 active torsions:
REMARK  status: ('A' for Active; 'I' for Inactive)
REMARK    1  A    between atoms: C_1  and  N_2
REMARK    2  A    between atoms: N_4  and  C_5
REMARK    3  A    between atoms: C_5  and  C_6
REMARK    4  A    between atoms: N_8  and  C_9
REMARK    5  A    between atoms: C_9  and  C_10
REMARK    6  A    between atoms: C_10  and  O_12
REMARK                            x       y       z     vdW  Elec       q    Type
REMARK                         _______ _______ _______ _____ _____    ______ ____
ROOT
ATOM      1  C   UNL     1       0.952   5.513  20.409  0.00  0.00    +0.000 C 
ATOM      2  N   UNL     1       1.993   4.819  19.674  0.00  0.00    +0.000 N 
ATOM      3  C   UNL     1       2.444   5.124  18.457  0.00  0.00    +0.000 A 
ATOM      4  N   UNL     1       3.380   4.233  18.091  0.00  0.00    +0.000 N 
ATOM      5  C   UNL     1       3.610   3.382  19.165  0.00  0.00    +0.000 A 
ATOM      6  N   UNL     1       4.559   2.390  19.224  0.00  0.00    +0.000 NA
ATOM      7  C   UNL     1       4.555   1.790  20.435  0.00  0.00    +0.000 A 
ATOM      8  N   UNL     1       5.520   0.838  20.690  0.00  0.00    +0.000 N 
ATOM      9  N   UNL     1       3.705   2.040  21.457  0.00  0.00    +0.000 NA
ATOM     10  C   UNL     1       2.762   3.024  21.363  0.00  0.00    +0.000 A 
ATOM     11  O   UNL     1       1.966   3.312  22.301  0.00  0.00    +0.000 OA
ATOM     12  C   UNL     1       2.724   3.741  20.170  0.00  0.00    +0.000 A 
ATOM     13  H   UNL     1       5.875   0.376  19.869  0.00  0.00    +0.000 HD
ATOM     14  H   UNL     1       5.230   0.276  21.482  0.00  0.00    +0.000 HD
ENDROOT
BRANCH   4  15
ATOM     15  C   UNL     1       4.106   4.189  16.817  0.00  0.00    +0.000 C 
BRANCH  15  16
ATOM     16  C   UNL     1       5.512   4.812  16.900  0.00  0.00    +0.000 C 
ATOM     17  O   UNL     1       5.839   5.808  16.244  0.00  0.00    +0.000 OA
ATOM     18  N   UNL     1       6.408   4.232  17.766  0.00  0.00    +0.000 N 
ATOM     19  H   UNL     1       6.176   3.421  18.338  0.00  0.00    +0.000 HD
BRANCH  18  20
ATOM     20  C   UNL     1       7.757   4.770  17.877  0.00  0.00    +0.000 C 
BRANCH  20  21
ATOM     21  C   UNL     1       7.848   5.870  18.918  0.00  0.00    +0.000 C 
ATOM     22  O   UNL     1       8.044   7.048  18.645  0.00  0.00    +0.000 OA
BRANCH  21  23
ATOM     23  O   UNL     1       7.695   5.427  20.185  0.00  0.00    +0.000 OA
ATOM     24  H   UNL     1       6.979   5.860  20.691  0.00  0.00    +0.000 HD
ENDBRANCH  21  23
ENDBRANCH  20  21
ENDBRANCH  18  20
ENDBRANCH  15  16
ENDBRANCH   4  15
TORSDOF 5
ENDMDL
