MODEL 1
REMARK VINA RESULT:      -8.5      0.000      0.000
REMARK  Name = 
REMARK  4 active torsions:
REMARK  status: ('A' for Active; 'I' for Inactive)
REMARK    1  A    between atoms: C_1  and  C_2
REMARK    2  A    between atoms: C_2  and  C_3
REMARK    3  A    between atoms: C_9  and  C_10
REMARK    4  A    between atoms: C_15  and  C_16
REMARK                            x       y       z     vdW  Elec       q    Type
REMARK                         _______ _______ _______ _____ _____    ______ ____
ROOT
ATOM      1  C   UNL     1       4.140   6.004  17.873  0.00  0.00    +0.000 A 
ATOM      2  C   UNL     1       3.826   4.965  18.767  0.00  0.00    +0.000 A 
ATOM      3  C   UNL     1       2.917   5.156  19.820  0.00  0.00    +0.000 A 
ATOM      4  C   UNL     1       2.354   6.426  19.977  0.00  0.00    +0.000 A 
ATOM      5  N   UNL     1       1.505   6.921  20.926  0.00  0.00    +0.000 NA
ATOM      6  C   UNL     1       1.295   8.171  20.542  0.00  0.00    +0.000 A 
ATOM      7  O   UNL     1       1.961   8.531  19.396  0.00  0.00    +0.000 OA
ATOM      8  C   UNL     1       2.650   7.408  19.051  0.00  0.00    +0.000 A 
ATOM      9  C   UNL     1       3.507   7.254  17.971  0.00  0.00    +0.000 A 
ENDROOT
BRANCH   1  16
ATOM     10  C   UNL     1       6.538   5.149  17.311  0.00  0.00    +0.000 C 
ATOM     11  O   UNL     1       7.367   4.673  16.257  0.00  0.00    +0.000 OA
ATOM     12  C   UNL     1       7.125   5.065  14.989  0.00  0.00    +0.000 C 
ATOM     13  O   UNL     1       7.908   4.792  14.082  0.00  0.00    +0.000 OA
ATOM     14  N   UNL     1       5.972   5.767  14.743  0.00  0.00    +0.000 N 
ATOM     15  N   UNL     1       4.991   6.079  15.625  0.00  0.00    +0.000 NA
ATOM     16  C   UNL     1       5.218   5.782  16.868  0.00  0.00    +0.000 C 
ATOM     17  H   UNL     1       5.791   5.988  13.769  0.00  0.00    +0.000 HD
BRANCH  10  19
ATOM     18  C   UNL     1       7.622   7.452  17.710  0.00  0.00    +0.000 C 
ATOM     19  C   UNL     1       7.377   6.044  18.238  0.00  0.00    +0.000 C 
ENDBRANCH  10  19
ENDBRANCH   1  16
BRANCH   6  20
ATOM     20  C   UNL     1       0.394   9.159  21.117  0.00  0.00    +0.000 A 
ATOM     21  C   UNL     1      -0.075  10.213  20.317  0.00  0.00    +0.000 A 
ATOM     22  C   UNL     1      -0.833  11.245  20.873  0.00  0.00    +0.000 A 
ATOM     23  C   UNL     1      -1.134  11.230  22.233  0.00  0.00    +0.000 A 
ATOM     24  C   UNL     1      -0.714  10.167  23.030  0.00  0.00    +0.000 A 
ATOM     25  C   UNL     1       0.038   9.131  22.472  0.00  0.00    +0.000 A 
ENDBRANCH   6  20
TORSDOF 3
ENDMDL
MODEL 2
REMARK VINA RESULT:      -8.4      3.270      4.215
REMARK  Name = 
REMARK  4 active torsions:
REMARK  status: ('A' for Active; 'I' for Inactive)
REMARK    1  A    between atoms: C_1  and  C_2
REMARK    2  A    between atoms: C_2  and  C_3
REMARK    3  A    between atoms: C_9  and  C_10
REMARK    4  A    between atoms: C_15  and  C_16
REMARK                            x       y       z     vdW  Elec       q    Type
REMARK                         _______ _______ _______ _____ _____    ______ ____
ROOT
ATOM      1  C   UNL     1       2.617   5.996  19.194  0.00  0.00    +0.000 A 
ATOM      2  C   UNL     1       2.779   6.792  18.046  0.00  0.00    +0.000 A 
ATOM      3  C   UNL     1       2.340   8.125  18.015  0.00  0.00    +0.000 A 
ATOM      4  C   UNL     1       1.704   8.634  19.151  0.00  0.00    +0.000 A 
ATOM      5  N   UNL     1       1.126   9.848  19.390  0.00  0.00    +0.000 NA
ATOM      6  C   UNL     1       0.716   9.762  20.646  0.00  0.00    +0.000 A 
ATOM      7  O   UNL     1       0.986   8.559  21.249  0.00  0.00    +0.000 OA
ATOM      8  C   UNL     1       1.606   7.836  20.276  0.00  0.00    +0.000 A 
ATOM      9  C   UNL     1       2.062   6.529  20.369  0.00  0.00    +0.000 A 
ENDROOT
BRANCH   1  16
ATOM     10  C   UNL     1       1.882   3.528  18.784  0.00  0.00    +0.000 C 
ATOM     11  O   UNL     1       2.354   2.240  18.407  0.00  0.00    +0.000 OA
ATOM     12  C   UNL     1       3.635   1.899  18.657  0.00  0.00    +0.000 C 
ATOM     13  O   UNL     1       4.030   0.749  18.480  0.00  0.00    +0.000 OA
ATOM     14  N   UNL     1       4.485   2.879  19.103  0.00  0.00    +0.000 N 
ATOM     15  N   UNL     1       4.209   4.194  19.279  0.00  0.00    +0.000 NA
ATOM     16  C   UNL     1       2.971   4.550  19.117  0.00  0.00    +0.000 C 
ATOM     17  H   UNL     1       5.455   2.602  19.218  0.00  0.00    +0.000 HD
BRANCH  10  19
ATOM     18  C   UNL     1       1.380   2.985  21.251  0.00  0.00    +0.000 C 
ATOM     19  C   UNL     1       0.823   3.366  19.886  0.00  0.00    +0.000 C 
ENDBRANCH  10  19
ENDBRANCH   1  16
BRANCH   6  20
ATOM     20  C   UNL     1       0.112  10.793  21.477  0.00  0.00    +0.000 A 
ATOM     21  C   UNL     1      -0.747  10.421  22.523  0.00  0.00    +0.000 A 
ATOM     22  C   UNL     1      -1.441  11.388  23.252  0.00  0.00    +0.000 A 
ATOM     23  C   UNL     1      -1.278  12.737  22.946  0.00  0.00    +0.000 A 
ATOM     24  C   UNL     1      -0.394  13.124  21.941  0.00  0.00    +0.000 A 
ATOM     25  C   UNL     1       0.306  12.157  21.216  0.00  0.00    +0.000 A 
ENDBRANCH   6  20
TORSDOF 3
ENDMDL
MODEL 3
REMARK VINA RESULT:      -8.2      3.225      4.115
REMARK  Name = 
REMARK  4 active torsions:
REMARK  status: ('A' for Active; 'I' for Inactive)
REMARK    1  A    between atoms: C_1  and  C_2
REMARK    2  A    between atoms: C_2  and  C_3
REMARK    3  A    between atoms: C_9  and  C_10
REMARK    4  A    between atoms: C_15  and  C_16
REMARK                            x       y       z     vdW  Elec       q    Type
REMARK                         _______ _______ _______ _____ _____    ______ ____
ROOT
ATOM      1  C   UNL     1       2.632   6.164  19.108  0.00  0.00    +0.000 A 
ATOM      2  C   UNL     1       2.877   6.959  17.974  0.00  0.00    +0.000 A 
ATOM      3  C   UNL     1       2.458   8.298  17.916  0.00  0.00    +0.000 A 
ATOM      4  C   UNL     1       1.758   8.814  19.010  0.00  0.00    +0.000 A 
ATOM      5  N   UNL     1       1.181  10.035  19.214  0.00  0.00    +0.000 NA
ATOM      6  C   UNL     1       0.691   9.954  20.441  0.00  0.00    +0.000 A 
ATOM      7  O   UNL     1       0.907   8.747  21.058  0.00  0.00    +0.000 OA
ATOM      8  C   UNL     1       1.578   8.016  20.125  0.00  0.00    +0.000 A 
ATOM      9  C   UNL     1       2.011   6.704  20.246  0.00  0.00    +0.000 A 
ENDROOT
BRANCH   1  16
ATOM     10  C   UNL     1       1.850   3.687  18.883  0.00  0.00    +0.000 C 
ATOM     11  O   UNL     1       2.274   2.381  18.509  0.00  0.00    +0.000 OA
ATOM     12  C   UNL     1       3.574   2.042  18.629  0.00  0.00    +0.000 C 
ATOM     13  O   UNL     1       3.944   0.883  18.457  0.00  0.00    +0.000 OA
ATOM     14  N   UNL     1       4.471   3.033  18.938  0.00  0.00    +0.000 N 
ATOM     15  N   UNL     1       4.219   4.356  19.089  0.00  0.00    +0.000 NA
ATOM     16  C   UNL     1       2.972   4.714  19.052  0.00  0.00    +0.000 C 
ATOM     17  H   UNL     1       5.447   2.754  18.956  0.00  0.00    +0.000 HD
BRANCH  10  19
ATOM     18  C   UNL     1       1.597   3.094  21.377  0.00  0.00    +0.000 C 
ATOM     19  C   UNL     1       0.919   3.577  20.101  0.00  0.00    +0.000 C 
ENDBRANCH  10  19
ENDBRANCH   1  16
BRANCH   6  20
ATOM     20  C   UNL     1       0.048  10.992  21.234  0.00  0.00    +0.000 A 
ATOM     21  C   UNL     1       0.353  12.339  20.984  0.00  0.00    +0.000 A 
ATOM     22  C   UNL     1      -0.146  13.347  21.811  0.00  0.00    +0.000 A 
ATOM     23  C   UNL     1      -0.960  13.017  22.892  0.00  0.00    +0.000 A 
ATOM     24  C   UNL     1      -1.308  11.689  23.125  0.00  0.00    +0.000 A 
ATOM     25  C   UNL     1      -0.815  10.681  22.293  0.00  0.00    +0.000 A 
ENDBRANCH   6  20
TORSDOF 3
ENDMDL
MODEL 4
REMARK VINA RESULT:      -8.0      0.792      1.298
REMARK  Name = 
REMARK  4 active torsions:
REMARK  status: ('A' for Active; 'I' for Inactive)
REMARK    1  A    between atoms: C_1  and  C_2
REMARK    2  A    between atoms: C_2  and  C_3
REMARK    3  A    between atoms: C_9  and  C_10
REMARK    4  A    between atoms: C_15  and  C_16
REMARK                            x       y       z     vdW  Elec       q    Type
REMARK                         _______ _______ _______ _____ _____    ______ ____
ROOT
ATOM      1  C   UNL     1       3.588   6.270  18.126  0.00  0.00    +0.000 A 
ATOM      2  C   UNL     1       3.251   5.301  19.089  0.00  0.00    +0.000 A 
ATOM      3  C   UNL     1       2.390   5.601  20.156  0.00  0.00    +0.000 A 
ATOM      4  C   UNL     1       1.899   6.906  20.256  0.00  0.00    +0.000 A 
ATOM      5  N   UNL     1       1.109   7.500  21.200  0.00  0.00    +0.000 NA
ATOM      6  C   UNL     1       0.953   8.735  20.750  0.00  0.00    +0.000 A 
ATOM      7  O   UNL     1       1.596   8.993  19.565  0.00  0.00    +0.000 OA
ATOM      8  C   UNL     1       2.214   7.817  19.265  0.00  0.00    +0.000 A 
ATOM      9  C   UNL     1       3.025   7.556  18.170  0.00  0.00    +0.000 A 
ENDROOT
BRANCH   1  16
ATOM     10  C   UNL     1       5.528   4.724  17.325  0.00  0.00    +0.000 C 
ATOM     11  O   UNL     1       6.240   4.280  16.175  0.00  0.00    +0.000 OA
ATOM     12  C   UNL     1       6.329   5.083  15.095  0.00  0.00    +0.000 C 
ATOM     13  O   UNL     1       7.057   4.793  14.148  0.00  0.00    +0.000 OA
ATOM     14  N   UNL     1       5.573   6.228  15.081  0.00  0.00    +0.000 N 
ATOM     15  N   UNL     1       4.682   6.640  16.016  0.00  0.00    +0.000 NA
ATOM     16  C   UNL     1       4.618   5.933  17.102  0.00  0.00    +0.000 C 
ATOM     17  H   UNL     1       5.615   6.774  14.226  0.00  0.00    +0.000 HD
BRANCH  10  19
ATOM     18  C   UNL     1       7.377   6.154  18.407  0.00  0.00    +0.000 C 
ATOM     19  C   UNL     1       6.520   4.897  18.486  0.00  0.00    +0.000 C 
ENDBRANCH  10  19
ENDBRANCH   1  16
BRANCH   6  20
ATOM     20  C   UNL     1       0.125   9.802  21.294  0.00  0.00    +0.000 A 
ATOM     21  C   UNL     1      -0.240   9.770  22.649  0.00  0.00    +0.000 A 
ATOM     22  C   UNL     1      -1.137  10.706  23.166  0.00  0.00    +0.000 A 
ATOM     23  C   UNL     1      -1.673  11.687  22.335  0.00  0.00    +0.000 A 
ATOM     24  C   UNL     1      -1.285  11.758  20.999  0.00  0.00    +0.000 A 
ATOM     25  C   UNL     1      -0.382  10.827  20.483  0.00  0.00    +0.000 A 
ENDBRANCH   6  20
TORSDOF 3
ENDMDL
MODEL 5
REMARK VINA RESULT:      -7.8      2.623      3.548
REMARK  Name = 
REMARK  4 active torsions:
REMARK  status: ('A' for Active; 'I' for Inactive)
REMARK    1  A    between atoms: C_1  and  C_2
REMARK    2  A    between atoms: C_2  and  C_3
REMARK    3  A    between atoms: C_9  and  C_10
REMARK    4  A    between atoms: C_15  and  C_16
REMARK                            x       y       z     vdW  Elec       q    Type
REMARK                         _______ _______ _______ _____ _____    ______ ____
ROOT
ATOM      1  C   UNL     1       2.567   6.679  18.868  0.00  0.00    +0.000 A 
ATOM      2  C   UNL     1       2.714   7.563  17.784  0.00  0.00    +0.000 A 
ATOM      3  C   UNL     1       2.250   8.887  17.854  0.00  0.00    +0.000 A 
ATOM      4  C   UNL     1       1.606   9.296  19.024  0.00  0.00    +0.000 A 
ATOM      5  N   UNL     1       1.005  10.478  19.355  0.00  0.00    +0.000 NA
ATOM      6  C   UNL     1       0.598  10.289  20.600  0.00  0.00    +0.000 A 
ATOM      7  O   UNL     1       0.890   9.048  21.110  0.00  0.00    +0.000 OA
ATOM      8  C   UNL     1       1.523   8.413  20.085  0.00  0.00    +0.000 A 
ATOM      9  C   UNL     1       2.003   7.112  20.079  0.00  0.00    +0.000 A 
ENDROOT
BRANCH   1  16
ATOM     10  C   UNL     1       4.156   4.692  19.434  0.00  0.00    +0.000 C 
ATOM     11  O   UNL     1       4.250   3.272  19.464  0.00  0.00    +0.000 OA
ATOM     12  C   UNL     1       3.505   2.536  18.613  0.00  0.00    +0.000 C 
ATOM     13  O   UNL     1       3.672   1.323  18.512  0.00  0.00    +0.000 OA
ATOM     14  N   UNL     1       2.548   3.183  17.873  0.00  0.00    +0.000 N 
ATOM     15  N   UNL     1       2.208   4.494  17.929  0.00  0.00    +0.000 NA
ATOM     16  C   UNL     1       2.947   5.250  18.682  0.00  0.00    +0.000 C 
ATOM     17  H   UNL     1       1.963   2.589  17.294  0.00  0.00    +0.000 HD
BRANCH  10  19
ATOM     18  C   UNL     1       5.720   5.223  17.457  0.00  0.00    +0.000 C 
ATOM     19  C   UNL     1       5.502   5.268  18.964  0.00  0.00    +0.000 C 
ENDBRANCH  10  19
ENDBRANCH   1  16
BRANCH   6  20
ATOM     20  C   UNL     1      -0.025  11.243  21.507  0.00  0.00    +0.000 A 
ATOM     21  C   UNL     1      -0.976  10.792  22.435  0.00  0.00    +0.000 A 
ATOM     22  C   UNL     1      -1.683  11.700  23.227  0.00  0.00    +0.000 A 
ATOM     23  C   UNL     1      -1.440  13.066  23.102  0.00  0.00    +0.000 A 
ATOM     24  C   UNL     1      -0.467  13.524  22.217  0.00  0.00    +0.000 A 
ATOM     25  C   UNL     1       0.246  12.616  21.430  0.00  0.00    +0.000 A 
ENDBRANCH   6  20
TORSDOF 3
ENDMDL
MODEL 6
REMARK VINA RESULT:      -7.8      2.637      3.713
REMARK  Name = 
REMARK  4 active torsions:
REMARK  status: ('A' for Active; 'I' for Inactive)
REMARK    1  A    between atoms: C_1  and  C_2
REMARK    2  A    between atoms: C_2  and  C_3
REMARK    3  A    between atoms: C_9  and  C_10
REMARK    4  A    between atoms: C_15  and  C_16
REMARK                            x       y       z     vdW  Elec       q    Type
REMARK                         _______ _______ _______ _____ _____    ______ ____
ROOT
ATOM      1  C   UNL     1       2.705   6.693  19.239  0.00  0.00    +0.000 A 
ATOM      2  C   UNL     1       2.795   7.412  18.033  0.00  0.00    +0.000 A 
ATOM      3  C   UNL     1       2.139   8.641  17.866  0.00  0.00    +0.000 A 
ATOM      4  C   UNL     1       1.361   9.119  18.924  0.00  0.00    +0.000 A 
ATOM      5  N   UNL     1       0.571  10.230  19.029  0.00  0.00    +0.000 NA
ATOM      6  C   UNL     1       0.110  10.174  20.269  0.00  0.00    +0.000 A 
ATOM      7  O   UNL     1       0.546   9.088  20.987  0.00  0.00    +0.000 OA
ATOM      8  C   UNL     1       1.335   8.409  20.109  0.00  0.00    +0.000 A 
ATOM      9  C   UNL     1       2.000   7.213  20.337  0.00  0.00    +0.000 A 
ENDROOT
BRANCH   1  16
ATOM     10  C   UNL     1       4.818   5.168  19.176  0.00  0.00    +0.000 C 
ATOM     11  O   UNL     1       5.331   3.902  19.576  0.00  0.00    +0.000 OA
ATOM     12  C   UNL     1       4.488   2.861  19.733  0.00  0.00    +0.000 C 
ATOM     13  O   UNL     1       4.915   1.725  19.932  0.00  0.00    +0.000 OA
ATOM     14  N   UNL     1       3.140   3.111  19.675  0.00  0.00    +0.000 N 
ATOM     15  N   UNL     1       2.529   4.312  19.530  0.00  0.00    +0.000 NA
ATOM     16  C   UNL     1       3.303   5.329  19.306  0.00  0.00    +0.000 C 
ATOM     17  H   UNL     1       2.537   2.316  19.862  0.00  0.00    +0.000 HD
BRANCH  10  19
ATOM     18  C   UNL     1       4.769   4.669  16.649  0.00  0.00    +0.000 C 
ATOM     19  C   UNL     1       5.362   5.503  17.777  0.00  0.00    +0.000 C 
ENDBRANCH  10  19
ENDBRANCH   1  16
BRANCH   6  20
ATOM     20  C   UNL     1      -0.707  11.147  20.979  0.00  0.00    +0.000 A 
ATOM     21  C   UNL     1      -0.737  11.130  22.382  0.00  0.00    +0.000 A 
ATOM     22  C   UNL     1      -1.609  11.963  23.085  0.00  0.00    +0.000 A 
ATOM     23  C   UNL     1      -2.456  12.825  22.392  0.00  0.00    +0.000 A 
ATOM     24  C   UNL     1      -2.405  12.885  21.001  0.00  0.00    +0.000 A 
ATOM     25  C   UNL     1      -1.527  12.057  20.298  0.00  0.00    +0.000 A 
ENDBRANCH   6  20
TORSDOF 3
ENDMDL
MODEL 7
REMARK VINA RESULT:      -7.7      2.631      3.431
REMARK  Name = 
REMARK  4 active torsions:
REMARK  status: ('A' for Active; 'I' for Inactive)
REMARK    1  A    between atoms: C_1  and  C_2
REMARK    2  A    between atoms: C_2  and  C_3
REMARK    3  A    between atoms: C_9  and  C_10
REMARK    4  A    between atoms: C_15  and  C_16
REMARK                            x       y       z     vdW  Elec       q    Type
REMARK                         _______ _______ _______ _____ _____    ______ ____
ROOT
ATOM      1  C   UNL     1       2.623   6.645  18.796  0.00  0.00    +0.000 A 
ATOM      2  C   UNL     1       2.827   7.523  17.716  0.00  0.00    +0.000 A 
ATOM      3  C   UNL     1       2.366   8.848  17.756  0.00  0.00    +0.000 A 
ATOM      4  C   UNL     1       1.665   9.265  18.891  0.00  0.00    +0.000 A 
ATOM      5  N   UNL     1       1.053  10.451  19.185  0.00  0.00    +0.000 NA
ATOM      6  C   UNL     1       0.584  10.270  20.410  0.00  0.00    +0.000 A 
ATOM      7  O   UNL     1       0.846   9.031  20.940  0.00  0.00    +0.000 OA
ATOM      8  C   UNL     1       1.526   8.388  19.951  0.00  0.00    +0.000 A 
ATOM      9  C   UNL     1       2.001   7.085  19.975  0.00  0.00    +0.000 A 
ENDROOT
BRANCH   1  16
ATOM     10  C   UNL     1       4.120   4.633  19.510  0.00  0.00    +0.000 C 
ATOM     11  O   UNL     1       4.196   3.212  19.533  0.00  0.00    +0.000 OA
ATOM     12  C   UNL     1       3.541   2.494  18.597  0.00  0.00    +0.000 C 
ATOM     13  O   UNL     1       3.706   1.280  18.501  0.00  0.00    +0.000 OA
ATOM     14  N   UNL     1       2.678   3.160  17.764  0.00  0.00    +0.000 N 
ATOM     15  N   UNL     1       2.348   4.474  17.797  0.00  0.00    +0.000 NA
ATOM     16  C   UNL     1       3.007   5.213  18.636  0.00  0.00    +0.000 C 
ATOM     17  H   UNL     1       2.155   2.579  17.117  0.00  0.00    +0.000 HD
BRANCH  10  19
ATOM     18  C   UNL     1       6.015   4.913  17.787  0.00  0.00    +0.000 C 
ATOM     19  C   UNL     1       5.515   5.199  19.198  0.00  0.00    +0.000 C 
ENDBRANCH  10  19
ENDBRANCH   1  16
BRANCH   6  20
ATOM     20  C   UNL     1      -0.080  11.230  21.280  0.00  0.00    +0.000 A 
ATOM     21  C   UNL     1       0.235  12.594  21.169  0.00  0.00    +0.000 A 
ATOM     22  C   UNL     1      -0.286  13.520  22.074  0.00  0.00    +0.000 A 
ATOM     23  C   UNL     1      -1.132  13.092  23.095  0.00  0.00    +0.000 A 
ATOM     24  C   UNL     1      -1.488  11.749  23.190  0.00  0.00    +0.000 A 
ATOM     25  C   UNL     1      -0.973  10.823  22.280  0.00  0.00    +0.000 A 
ENDBRANCH   6  20
TORSDOF 3
ENDMDL
MODEL 8
REMARK VINA RESULT:      -7.7      1.808      2.691
REMARK  Name = 
REMARK  4 active torsions:
REMARK  status: ('A' for Active; 'I' for Inactive)
REMARK    1  A    between atoms: C_1  and  C_2
REMARK    2  A    between atoms: C_2  and  C_3
REMARK    3  A    between atoms: C_9  and  C_10
REMARK    4  A    between atoms: C_15  and  C_16
REMARK                            x       y       z     vdW  Elec       q    Type
REMARK                         _______ _______ _______ _____ _____    ______ ____
ROOT
ATOM      1  C   UNL     1       3.447   6.026  19.215  0.00  0.00    +0.000 A 
ATOM      2  C   UNL     1       2.782   5.329  20.241  0.00  0.00    +0.000 A 
ATOM      3  C   UNL     1       1.716   5.911  20.945  0.00  0.00    +0.000 A 
ATOM      4  C   UNL     1       1.353   7.221  20.621  0.00  0.00    +0.000 A 
ATOM      5  N   UNL     1       0.417   8.055  21.165  0.00  0.00    +0.000 NA
ATOM      6  C   UNL     1       0.505   9.152  20.429  0.00  0.00    +0.000 A 
ATOM      7  O   UNL     1       1.449   9.093  19.434  0.00  0.00    +0.000 OA
ATOM      8  C   UNL     1       1.998   7.855  19.576  0.00  0.00    +0.000 A 
ATOM      9  C   UNL     1       3.026   7.307  18.823  0.00  0.00    +0.000 A 
ENDROOT
BRANCH   1  16
ATOM     10  C   UNL     1       4.636   5.009  17.129  0.00  0.00    +0.000 C 
ATOM     11  O   UNL     1       5.909   4.748  16.549  0.00  0.00    +0.000 OA
ATOM     12  C   UNL     1       6.980   4.561  17.349  0.00  0.00    +0.000 C 
ATOM     13  O   UNL     1       8.057   4.188  16.887  0.00  0.00    +0.000 OA
ATOM     14  N   UNL     1       6.832   4.810  18.690  0.00  0.00    +0.000 N 
ATOM     15  N   UNL     1       5.734   5.286  19.324  0.00  0.00    +0.000 NA
ATOM     16  C   UNL     1       4.661   5.412  18.605  0.00  0.00    +0.000 C 
ATOM     17  H   UNL     1       7.675   4.722  19.249  0.00  0.00    +0.000 HD
BRANCH  10  19
ATOM     18  C   UNL     1       3.752   2.696  17.839  0.00  0.00    +0.000 C 
ATOM     19  C   UNL     1       3.700   3.829  16.823  0.00  0.00    +0.000 C 
ENDBRANCH  10  19
ENDBRANCH   1  16
BRANCH   6  20
ATOM     20  C   UNL     1      -0.319  10.351  20.484  0.00  0.00    +0.000 A 
ATOM     21  C   UNL     1      -0.489  11.017  21.707  0.00  0.00    +0.000 A 
ATOM     22  C   UNL     1      -1.374  12.090  21.816  0.00  0.00    +0.000 A 
ATOM     23  C   UNL     1      -2.094  12.512  20.701  0.00  0.00    +0.000 A 
ATOM     24  C   UNL     1      -1.902  11.890  19.469  0.00  0.00    +0.000 A 
ATOM     25  C   UNL     1      -1.010  10.821  19.358  0.00  0.00    +0.000 A 
ENDBRANCH   6  20
TORSDOF 3
ENDMDL
MODEL 9
REMARK VINA RESULT:      -7.7      2.642      3.598
REMARK  Name = 
REMARK  4 active torsions:
REMARK  status: ('A' for Active; 'I' for Inactive)
REMARK    1  A    between atoms: C_1  and  C_2
REMARK    2  A    between atoms: C_2  and  C_3
REMARK    3  A    between atoms: C_9  and  C_10
REMARK    4  A    between atoms: C_15  and  C_16
REMARK                            x       y       z     vdW  Elec       q    Type
REMARK                         _______ _______ _______ _____ _____    ______ ____
ROOT
ATOM      1  C   UNL     1       2.715   6.707  19.201  0.00  0.00    +0.000 A 
ATOM      2  C   UNL     1       2.797   7.409  17.985  0.00  0.00    +0.000 A 
ATOM      3  C   UNL     1       2.141   8.637  17.806  0.00  0.00    +0.000 A 
ATOM      4  C   UNL     1       1.372   9.131  18.863  0.00  0.00    +0.000 A 
ATOM      5  N   UNL     1       0.585  10.244  18.960  0.00  0.00    +0.000 NA
ATOM      6  C   UNL     1       0.134  10.205  20.204  0.00  0.00    +0.000 A 
ATOM      7  O   UNL     1       0.573   9.128  20.934  0.00  0.00    +0.000 OA
ATOM      8  C   UNL     1       1.355   8.436  20.059  0.00  0.00    +0.000 A 
ATOM      9  C   UNL     1       2.020   7.242  20.297  0.00  0.00    +0.000 A 
ENDROOT
BRANCH   1  16
ATOM     10  C   UNL     1       4.828   5.179  19.160  0.00  0.00    +0.000 C 
ATOM     11  O   UNL     1       5.337   3.917  19.573  0.00  0.00    +0.000 OA
ATOM     12  C   UNL     1       4.492   2.877  19.734  0.00  0.00    +0.000 C 
ATOM     13  O   UNL     1       4.917   1.743  19.944  0.00  0.00    +0.000 OA
ATOM     14  N   UNL     1       3.145   3.127  19.666  0.00  0.00    +0.000 N 
ATOM     15  N   UNL     1       2.536   4.328  19.509  0.00  0.00    +0.000 NA
ATOM     16  C   UNL     1       3.312   5.343  19.281  0.00  0.00    +0.000 C 
ATOM     17  H   UNL     1       2.540   2.335  19.856  0.00  0.00    +0.000 HD
BRANCH  10  19
ATOM     18  C   UNL     1       4.806   4.649  16.640  0.00  0.00    +0.000 C 
ATOM     19  C   UNL     1       5.379   5.504  17.762  0.00  0.00    +0.000 C 
ENDBRANCH  10  19
ENDBRANCH   1  16
BRANCH   6  20
ATOM     20  C   UNL     1      -0.677  11.188  20.908  0.00  0.00    +0.000 A 
ATOM     21  C   UNL     1      -1.527  12.032  20.177  0.00  0.00    +0.000 A 
ATOM     22  C   UNL     1      -2.216  13.069  20.808  0.00  0.00    +0.000 A 
ATOM     23  C   UNL     1      -2.067  13.267  22.179  0.00  0.00    +0.000 A 
ATOM     24  C   UNL     1      -1.261  12.410  22.925  0.00  0.00    +0.000 A 
ATOM     25  C   UNL     1      -0.577  11.368  22.294  0.00  0.00    +0.000 A 
ENDBRANCH   6  20
TORSDOF 3
ENDMDL
