MODEL 1
REMARK VINA RESULT:      -8.0      0.000      0.000
REMARK  Name = 
REMARK  7 active torsions:
REMARK  status: ('A' for Active; 'I' for Inactive)
REMARK    1  A    between atoms: C_1  and  O_2
REMARK    2  A    between atoms: O_2  and  C_3
REMARK    3  A    between atoms: C_6  and  N_7
REMARK    4  A    between atoms: C_14  and  O_15
REMARK    5  A    between atoms: O_15  and  C_16
REMARK    6  A    between atoms: C_20  and  C_22
REMARK    7  A    between atoms: C_31  and  C_32
REMARK                            x       y       z     vdW  Elec       q    Type
REMARK                         _______ _______ _______ _____ _____    ______ ____
ROOT
ATOM      1  N   UNL     1       3.847   4.110  16.707  0.00  0.00    +0.000 N 
ATOM      2  C   UNL     1       3.062   2.876  16.634  0.00  0.00    +0.000 C 
ATOM      3  C   UNL     1       3.135   2.150  17.974  0.00  0.00    +0.000 C 
ATOM      4  C   UNL     1       2.835   3.079  19.121  0.00  0.00    +0.000 A 
ATOM      5  N   UNL     1       2.468   2.509  20.291  0.00  0.00    +0.000 NA
ATOM      6  C   UNL     1       2.275   3.340  21.328  0.00  0.00    +0.000 A 
ATOM      7  N   UNL     1       2.429   4.670  21.315  0.00  0.00    +0.000 NA
ATOM      8  C   UNL     1       2.808   5.184  20.135  0.00  0.00    +0.000 A 
ATOM      9  C   UNL     1       3.012   4.445  18.986  0.00  0.00    +0.000 A 
ATOM     10  C   UNL     1       3.392   5.098  17.692  0.00  0.00    +0.000 C 
ENDROOT
BRANCH   1  14
ATOM     11  C   UNL     1       7.239   4.780  14.383  0.00  0.00    +0.000 A 
ATOM     12  N   UNL     1       7.188   5.285  15.633  0.00  0.00    +0.000 NA
ATOM     13  C   UNL     1       6.058   5.070  16.345  0.00  0.00    +0.000 A 
ATOM     14  C   UNL     1       4.937   4.368  15.904  0.00  0.00    +0.000 A 
ATOM     15  C   UNL     1       5.023   3.913  14.588  0.00  0.00    +0.000 A 
ATOM     16  C   UNL     1       6.177   4.116  13.801  0.00  0.00    +0.000 A 
BRANCH  16  17
ATOM     17  C   UNL     1       6.200   3.587  12.401  0.00  0.00    +0.000 C 
ATOM     18  F   UNL     1       6.762   4.382  11.457  0.00  0.00    +0.000 F 
ATOM     19  F   UNL     1       6.861   2.394  12.322  0.00  0.00    +0.000 F 
ATOM     20  F   UNL     1       4.938   3.319  11.946  0.00  0.00    +0.000 F 
ENDBRANCH  16  17
BRANCH  11  22
ATOM     21  C   UNL     1       8.539   6.108  12.947  0.00  0.00    +0.000 C 
ATOM     22  O   UNL     1       8.419   4.896  13.689  0.00  0.00    +0.000 OA
ENDBRANCH  11  22
ENDBRANCH   1  14
BRANCH   8  23
ATOM     23  O   UNL     1       2.992   6.547  20.031  0.00  0.00    +0.000 OA
BRANCH  23  24
ATOM     24  C   UNL     1       1.799   7.275  19.753  0.00  0.00    +0.000 C 
ATOM     25  C   UNL     1       1.465   8.090  21.004  0.00  0.00    +0.000 C 
ATOM     26  C   UNL     1       0.712   9.281  20.457  0.00  0.00    +0.000 C 
ATOM     27  N   UNL     1       1.358   9.548  19.188  0.00  0.00    +0.000 N 
ATOM     28  C   UNL     1       1.508  10.768  18.542  0.00  0.00    +0.000 C 
ATOM     29  O   UNL     1       2.263  10.887  17.579  0.00  0.00    +0.000 OA
ATOM     30  C   UNL     1       2.010   8.348  18.678  0.00  0.00    +0.000 C 
BRANCH  28  31
ATOM     31  C   UNL     1       0.765  11.916  19.041  0.00  0.00    +0.000 A 
ATOM     32  C   UNL     1      -0.569  12.264  18.714  0.00  0.00    +0.000 A 
ATOM     33  N   UNL     1      -0.987  13.374  19.332  0.00  0.00    +0.000 NA
ATOM     34  N   UNL     1       0.061  13.724  20.090  0.00  0.00    +0.000 N 
ATOM     35  C   UNL     1       1.122  12.877  19.970  0.00  0.00    +0.000 A 
ATOM     36  H   UNL     1      -0.021  14.551  20.673  0.00  0.00    +0.000 HD
ENDBRANCH  28  31
ENDBRANCH  23  24
ENDBRANCH   8  23
TORSDOF 6
ENDMDL
MODEL 2
REMARK VINA RESULT:      -8.0      6.855     10.549
REMARK  Name = 
REMARK  7 active torsions:
REMARK  status: ('A' for Active; 'I' for Inactive)
REMARK    1  A    between atoms: C_1  and  O_2
REMARK    2  A    between atoms: O_2  and  C_3
REMARK    3  A    between atoms: C_6  and  N_7
REMARK    4  A    between atoms: C_14  and  O_15
REMARK    5  A    between atoms: O_15  and  C_16
REMARK    6  A    between atoms: C_20  and  C_22
REMARK    7  A    between atoms: C_31  and  C_32
REMARK                            x       y       z     vdW  Elec       q    Type
REMARK                         _______ _______ _______ _____ _____    ______ ____
ROOT
ATOM      1  N   UNL     1      -5.406  12.631  19.455  0.00  0.00    +0.000 N 
ATOM      2  C   UNL     1      -6.863  12.632  19.602  0.00  0.00    +0.000 C 
ATOM      3  C   UNL     1      -7.241  11.941  20.909  0.00  0.00    +0.000 C 
ATOM      4  C   UNL     1      -6.442  12.480  22.067  0.00  0.00    +0.000 A 
ATOM      5  N   UNL     1      -6.939  12.267  23.306  0.00  0.00    +0.000 NA
ATOM      6  C   UNL     1      -6.184  12.684  24.335  0.00  0.00    +0.000 A 
ATOM      7  N   UNL     1      -4.984  13.271  24.248  0.00  0.00    +0.000 NA
ATOM      8  C   UNL     1      -4.528  13.447  22.998  0.00  0.00    +0.000 A 
ATOM      9  C   UNL     1      -5.218  13.090  21.855  0.00  0.00    +0.000 A 
ATOM     10  C   UNL     1      -4.661  13.358  20.490  0.00  0.00    +0.000 C 
ENDROOT
BRANCH   1  14
ATOM     11  C   UNL     1      -3.382  10.930  16.236  0.00  0.00    +0.000 A 
ATOM     12  N   UNL     1      -4.609  11.456  16.038  0.00  0.00    +0.000 NA
ATOM     13  C   UNL     1      -5.245  11.974  17.114  0.00  0.00    +0.000 A 
ATOM     14  C   UNL     1      -4.745  12.015  18.415  0.00  0.00    +0.000 A 
ATOM     15  C   UNL     1      -3.497  11.411  18.573  0.00  0.00    +0.000 A 
ATOM     16  C   UNL     1      -2.794  10.853  17.484  0.00  0.00    +0.000 A 
BRANCH  16  17
ATOM     17  C   UNL     1      -1.454  10.233  17.729  0.00  0.00    +0.000 C 
ATOM     18  F   UNL     1      -0.385  11.068  17.727  0.00  0.00    +0.000 F 
ATOM     19  F   UNL     1      -1.411   9.578  18.927  0.00  0.00    +0.000 F 
ATOM     20  F   UNL     1      -1.168   9.275  16.795  0.00  0.00    +0.000 F 
ENDBRANCH  16  17
BRANCH  11  22
ATOM     21  C   UNL     1      -3.504  10.064  14.056  0.00  0.00    +0.000 C 
ATOM     22  O   UNL     1      -2.680  10.500  15.136  0.00  0.00    +0.000 OA
ENDBRANCH  11  22
ENDBRANCH   1  14
BRANCH   8  23
ATOM     23  O   UNL     1      -3.299  14.043  22.815  0.00  0.00    +0.000 OA
BRANCH  23  24
ATOM     24  C   UNL     1      -2.202  13.271  23.297  0.00  0.00    +0.000 C 
ATOM     25  C   UNL     1      -2.634  11.805  23.272  0.00  0.00    +0.000 C 
ATOM     26  C   UNL     1      -1.333  11.057  23.092  0.00  0.00    +0.000 C 
ATOM     27  N   UNL     1      -0.550  11.922  22.232  0.00  0.00    +0.000 N 
ATOM     28  C   UNL     1       0.415  11.561  21.302  0.00  0.00    +0.000 C 
ATOM     29  O   UNL     1       0.846  12.375  20.487  0.00  0.00    +0.000 OA
ATOM     30  C   UNL     1      -1.004  13.303  22.340  0.00  0.00    +0.000 C 
BRANCH  28  31
ATOM     31  C   UNL     1       0.895  10.187  21.295  0.00  0.00    +0.000 A 
ATOM     32  C   UNL     1       1.131   9.383  20.152  0.00  0.00    +0.000 A 
ATOM     33  N   UNL     1       1.576   8.159  20.456  0.00  0.00    +0.000 NA
ATOM     34  N   UNL     1       1.667   8.182  21.793  0.00  0.00    +0.000 N 
ATOM     35  C   UNL     1       1.293   9.373  22.340  0.00  0.00    +0.000 A 
ATOM     36  H   UNL     1       1.999   7.349  22.268  0.00  0.00    +0.000 HD
ENDBRANCH  28  31
ENDBRANCH  23  24
ENDBRANCH   8  23
TORSDOF 6
ENDMDL
MODEL 3
REMARK VINA RESULT:      -7.9      5.851     10.308
REMARK  Name = 
REMARK  7 active torsions:
REMARK  status: ('A' for Active; 'I' for Inactive)
REMARK    1  A    between atoms: C_1  and  O_2
REMARK    2  A    between atoms: O_2  and  C_3
REMARK    3  A    between atoms: C_6  and  N_7
REMARK    4  A    between atoms: C_14  and  O_15
REMARK    5  A    between atoms: O_15  and  C_16
REMARK    6  A    between atoms: C_20  and  C_22
REMARK    7  A    between atoms: C_31  and  C_32
REMARK                            x       y       z     vdW  Elec       q    Type
REMARK                         _______ _______ _______ _____ _____    ______ ____
ROOT
ATOM      1  N   UNL     1      -1.402  11.732  19.791  0.00  0.00    +0.000 N 
ATOM      2  C   UNL     1      -1.772  12.563  20.939  0.00  0.00    +0.000 C 
ATOM      3  C   UNL     1      -1.881  11.690  22.184  0.00  0.00    +0.000 C 
ATOM      4  C   UNL     1      -0.669  10.809  22.346  0.00  0.00    +0.000 A 
ATOM      5  N   UNL     1      -0.442  10.301  23.578  0.00  0.00    +0.000 NA
ATOM      6  C   UNL     1       0.596   9.458  23.697  0.00  0.00    +0.000 A 
ATOM      7  N   UNL     1       1.411   9.063  22.711  0.00  0.00    +0.000 NA
ATOM      8  C   UNL     1       1.135   9.584  21.505  0.00  0.00    +0.000 A 
ATOM      9  C   UNL     1       0.116  10.483  21.254  0.00  0.00    +0.000 A 
ATOM     10  C   UNL     1      -0.103  11.055  19.887  0.00  0.00    +0.000 C 
ENDROOT
BRANCH   1  14
ATOM     11  C   UNL     1      -3.762  11.112  16.415  0.00  0.00    +0.000 A 
ATOM     12  N   UNL     1      -2.434  10.887  16.339  0.00  0.00    +0.000 NA
ATOM     13  C   UNL     1      -1.698  11.127  17.449  0.00  0.00    +0.000 A 
ATOM     14  C   UNL     1      -2.190  11.586  18.671  0.00  0.00    +0.000 A 
ATOM     15  C   UNL     1      -3.560  11.851  18.677  0.00  0.00    +0.000 A 
ATOM     16  C   UNL     1      -4.371  11.622  17.545  0.00  0.00    +0.000 A 
BRANCH  16  17
ATOM     17  C   UNL     1      -5.835  11.919  17.631  0.00  0.00    +0.000 C 
ATOM     18  F   UNL     1      -6.387  12.582  16.585  0.00  0.00    +0.000 F 
ATOM     19  F   UNL     1      -6.574  10.780  17.781  0.00  0.00    +0.000 F 
ATOM     20  F   UNL     1      -6.128  12.674  18.734  0.00  0.00    +0.000 F 
ENDBRANCH  16  17
BRANCH  11  22
ATOM     21  C   UNL     1      -3.810  10.144  14.275  0.00  0.00    +0.000 C 
ATOM     22  O   UNL     1      -4.535  10.770  15.332  0.00  0.00    +0.000 OA
ENDBRANCH  11  22
ENDBRANCH   1  14
BRANCH   8  23
ATOM     23  O   UNL     1       1.923   9.230  20.431  0.00  0.00    +0.000 OA
BRANCH  23  24
ATOM     24  C   UNL     1       1.481   8.061  19.746  0.00  0.00    +0.000 C 
ATOM     25  C   UNL     1       2.501   7.770  18.644  0.00  0.00    +0.000 C 
ATOM     26  C   UNL     1       2.403   6.273  18.462  0.00  0.00    +0.000 C 
ATOM     27  N   UNL     1       2.151   5.775  19.799  0.00  0.00    +0.000 N 
ATOM     28  C   UNL     1       2.524   4.554  20.345  0.00  0.00    +0.000 C 
ATOM     29  O   UNL     1       2.437   4.346  21.553  0.00  0.00    +0.000 OA
ATOM     30  C   UNL     1       1.546   6.810  20.629  0.00  0.00    +0.000 C 
BRANCH  28  31
ATOM     31  C   UNL     1       3.042   3.524  19.456  0.00  0.00    +0.000 A 
ATOM     32  C   UNL     1       2.278   2.618  18.680  0.00  0.00    +0.000 A 
ATOM     33  N   UNL     1       3.032   1.785  17.954  0.00  0.00    +0.000 NA
ATOM     34  N   UNL     1       4.284   2.176  18.228  0.00  0.00    +0.000 N 
ATOM     35  C   UNL     1       4.345   3.221  19.100  0.00  0.00    +0.000 A 
ATOM     36  H   UNL     1       5.050   1.688  17.777  0.00  0.00    +0.000 HD
ENDBRANCH  28  31
ENDBRANCH  23  24
ENDBRANCH   8  23
TORSDOF 6
ENDMDL
MODEL 4
REMARK VINA RESULT:      -7.9      5.251      7.844
REMARK  Name = 
REMARK  7 active torsions:
REMARK  status: ('A' for Active; 'I' for Inactive)
REMARK    1  A    between atoms: C_1  and  O_2
REMARK    2  A    between atoms: O_2  and  C_3
REMARK    3  A    between atoms: C_6  and  N_7
REMARK    4  A    between atoms: C_14  and  O_15
REMARK    5  A    between atoms: O_15  and  C_16
REMARK    6  A    between atoms: C_20  and  C_22
REMARK    7  A    between atoms: C_31  and  C_32
REMARK                            x       y       z     vdW  Elec       q    Type
REMARK                         _______ _______ _______ _____ _____    ______ ____
ROOT
ATOM      1  N   UNL     1       3.221   5.704  19.323  0.00  0.00    +0.000 N 
ATOM      2  C   UNL     1       2.771   4.390  18.860  0.00  0.00    +0.000 C 
ATOM      3  C   UNL     1       3.258   4.161  17.433  0.00  0.00    +0.000 C 
ATOM      4  C   UNL     1       4.729   4.461  17.299  0.00  0.00    +0.000 A 
ATOM      5  N   UNL     1       5.368   3.928  16.233  0.00  0.00    +0.000 NA
ATOM      6  C   UNL     1       6.659   4.261  16.081  0.00  0.00    +0.000 A 
ATOM      7  N   UNL     1       7.363   5.082  16.870  0.00  0.00    +0.000 NA
ATOM      8  C   UNL     1       6.679   5.597  17.905  0.00  0.00    +0.000 A 
ATOM      9  C   UNL     1       5.358   5.312  18.190  0.00  0.00    +0.000 A 
ATOM     10  C   UNL     1       4.675   5.893  19.391  0.00  0.00    +0.000 C 
ENDROOT
BRANCH   1  14
ATOM     11  C   UNL     1       0.738   8.799  20.591  0.00  0.00    +0.000 A 
ATOM     12  N   UNL     1       0.820   7.677  21.334  0.00  0.00    +0.000 NA
ATOM     13  C   UNL     1       1.616   6.683  20.874  0.00  0.00    +0.000 A 
ATOM     14  C   UNL     1       2.363   6.715  19.697  0.00  0.00    +0.000 A 
ATOM     15  C   UNL     1       2.199   7.877  18.942  0.00  0.00    +0.000 A 
ATOM     16  C   UNL     1       1.378   8.940  19.375  0.00  0.00    +0.000 A 
BRANCH  16  17
ATOM     17  C   UNL     1       1.262  10.161  18.516  0.00  0.00    +0.000 C 
ATOM     18  F   UNL     1       1.594  11.345  19.089  0.00  0.00    +0.000 F 
ATOM     19  F   UNL     1       2.032  10.064  17.392  0.00  0.00    +0.000 F 
ATOM     20  F   UNL     1      -0.015  10.327  18.054  0.00  0.00    +0.000 F 
ENDBRANCH  16  17
BRANCH  11  22
ATOM     21  C   UNL     1       0.102   9.984  22.517  0.00  0.00    +0.000 C 
ATOM     22  O   UNL     1       0.021   9.856  21.098  0.00  0.00    +0.000 OA
ENDBRANCH  11  22
ENDBRANCH   1  14
BRANCH   8  23
ATOM     23  O   UNL     1       7.326   6.454  18.769  0.00  0.00    +0.000 OA
BRANCH  23  24
ATOM     24  C   UNL     1       8.163   7.409  18.122  0.00  0.00    +0.000 C 
ATOM     25  C   UNL     1       7.245   8.413  17.422  0.00  0.00    +0.000 C 
ATOM     26  C   UNL     1       8.068   9.681  17.393  0.00  0.00    +0.000 C 
ATOM     27  N   UNL     1       8.806   9.646  18.640  0.00  0.00    +0.000 N 
ATOM     28  C   UNL     1       9.241  10.715  19.410  0.00  0.00    +0.000 C 
ATOM     29  O   UNL     1       9.664  10.545  20.552  0.00  0.00    +0.000 OA
ATOM     30  C   UNL     1       8.937   8.276  19.123  0.00  0.00    +0.000 C 
BRANCH  28  31
ATOM     31  C   UNL     1       9.167  12.055  18.845  0.00  0.00    +0.000 A 
ATOM     32  C   UNL     1       8.493  13.169  19.403  0.00  0.00    +0.000 A 
ATOM     33  N   UNL     1       8.604  14.275  18.659  0.00  0.00    +0.000 NA
ATOM     34  N   UNL     1       9.382  13.889  17.638  0.00  0.00    +0.000 N 
ATOM     35  C   UNL     1       9.763  12.583  17.713  0.00  0.00    +0.000 A 
ATOM     36  H   UNL     1       9.621  14.574  16.929  0.00  0.00    +0.000 HD
ENDBRANCH  28  31
ENDBRANCH  23  24
ENDBRANCH   8  23
TORSDOF 6
ENDMDL
MODEL 5
REMARK VINA RESULT:      -7.8      1.158      1.559
REMARK  Name = 
REMARK  7 active torsions:
REMARK  status: ('A' for Active; 'I' for Inactive)
REMARK    1  A    between atoms: C_1  and  O_2
REMARK    2  A    between atoms: O_2  and  C_3
REMARK    3  A    between atoms: C_6  and  N_7
REMARK    4  A    between atoms: C_14  and  O_15
REMARK    5  A    between atoms: O_15  and  C_16
REMARK    6  A    between atoms: C_20  and  C_22
REMARK    7  A    between atoms: C_31  and  C_32
REMARK                            x       y       z     vdW  Elec       q    Type
REMARK                         _______ _______ _______ _____ _____    ______ ____
ROOT
ATOM      1  N   UNL     1       4.236   3.863  16.844  0.00  0.00    +0.000 N 
ATOM      2  C   UNL     1       4.114   2.548  17.477  0.00  0.00    +0.000 C 
ATOM      3  C   UNL     1       4.233   2.701  18.990  0.00  0.00    +0.000 C 
ATOM      4  C   UNL     1       3.328   3.789  19.506  0.00  0.00    +0.000 A 
ATOM      5  N   UNL     1       3.027   3.762  20.823  0.00  0.00    +0.000 NA
ATOM      6  C   UNL     1       2.281   4.777  21.289  0.00  0.00    +0.000 A 
ATOM      7  N   UNL     1       1.827   5.816  20.578  0.00  0.00    +0.000 NA
ATOM      8  C   UNL     1       2.165   5.804  19.278  0.00  0.00    +0.000 A 
ATOM      9  C   UNL     1       2.902   4.806  18.669  0.00  0.00    +0.000 A 
ATOM     10  C   UNL     1       3.202   4.841  17.202  0.00  0.00    +0.000 C 
ENDROOT
BRANCH   1  14
ATOM     11  C   UNL     1       7.363   4.740  14.235  0.00  0.00    +0.000 A 
ATOM     12  N   UNL     1       7.409   5.212  15.498  0.00  0.00    +0.000 NA
ATOM     13  C   UNL     1       6.361   4.929  16.306  0.00  0.00    +0.000 A 
ATOM     14  C   UNL     1       5.233   4.189  15.951  0.00  0.00    +0.000 A 
ATOM     15  C   UNL     1       5.214   3.771  14.620  0.00  0.00    +0.000 A 
ATOM     16  C   UNL     1       6.279   4.044  13.735  0.00  0.00    +0.000 A 
BRANCH  16  17
ATOM     17  C   UNL     1       6.193   3.552  12.324  0.00  0.00    +0.000 C 
ATOM     18  F   UNL     1       6.819   4.295  11.378  0.00  0.00    +0.000 F 
ATOM     19  F   UNL     1       6.697   2.288  12.198  0.00  0.00    +0.000 F 
ATOM     20  F   UNL     1       4.894   3.453  11.908  0.00  0.00    +0.000 F 
ENDBRANCH  16  17
BRANCH  11  22
ATOM     21  C   UNL     1       8.541   6.221  12.843  0.00  0.00    +0.000 C 
ATOM     22  O   UNL     1       8.466   4.927  13.437  0.00  0.00    +0.000 OA
ENDBRANCH  11  22
ENDBRANCH   1  14
BRANCH   8  23
ATOM     23  O   UNL     1       1.740   6.837  18.471  0.00  0.00    +0.000 OA
BRANCH  23  24
ATOM     24  C   UNL     1       2.170   8.126  18.901  0.00  0.00    +0.000 C 
ATOM     25  C   UNL     1       2.130   9.047  17.680  0.00  0.00    +0.000 C 
ATOM     26  C   UNL     1       1.893  10.414  18.280  0.00  0.00    +0.000 C 
ATOM     27  N   UNL     1       1.025  10.153  19.410  0.00  0.00    +0.000 N 
ATOM     28  C   UNL     1       0.056  10.983  19.958  0.00  0.00    +0.000 C 
ATOM     29  O   UNL     1      -0.756  10.556  20.776  0.00  0.00    +0.000 OA
ATOM     30  C   UNL     1       1.175   8.777  19.869  0.00  0.00    +0.000 C 
BRANCH  28  31
ATOM     31  C   UNL     1       0.005  12.373  19.527  0.00  0.00    +0.000 A 
ATOM     32  C   UNL     1       0.812  13.433  20.007  0.00  0.00    +0.000 A 
ATOM     33  N   UNL     1       0.542  14.604  19.419  0.00  0.00    +0.000 NA
ATOM     34  N   UNL     1      -0.412  14.295  18.530  0.00  0.00    +0.000 N 
ATOM     35  C   UNL     1      -0.752  12.976  18.539  0.00  0.00    +0.000 A 
ATOM     36  H   UNL     1      -0.781  15.036  17.943  0.00  0.00    +0.000 HD
ENDBRANCH  28  31
ENDBRANCH  23  24
ENDBRANCH   8  23
TORSDOF 6
ENDMDL
MODEL 6
REMARK VINA RESULT:      -7.8      5.682      8.204
REMARK  Name = 
REMARK  7 active torsions:
REMARK  status: ('A' for Active; 'I' for Inactive)
REMARK    1  A    between atoms: C_1  and  O_2
REMARK    2  A    between atoms: O_2  and  C_3
REMARK    3  A    between atoms: C_6  and  N_7
REMARK    4  A    between atoms: C_14  and  O_15
REMARK    5  A    between atoms: O_15  and  C_16
REMARK    6  A    between atoms: C_20  and  C_22
REMARK    7  A    between atoms: C_31  and  C_32
REMARK                            x       y       z     vdW  Elec       q    Type
REMARK                         _______ _______ _______ _____ _____    ______ ____
ROOT
ATOM      1  N   UNL     1       3.106   6.269  18.925  0.00  0.00    +0.000 N 
ATOM      2  C   UNL     1       2.541   4.975  18.536  0.00  0.00    +0.000 C 
ATOM      3  C   UNL     1       3.159   4.529  17.215  0.00  0.00    +0.000 C 
ATOM      4  C   UNL     1       4.662   4.632  17.247  0.00  0.00    +0.000 A 
ATOM      5  N   UNL     1       5.345   3.908  16.332  0.00  0.00    +0.000 NA
ATOM      6  C   UNL     1       6.678   4.064  16.320  0.00  0.00    +0.000 A 
ATOM      7  N   UNL     1       7.388   4.877  17.112  0.00  0.00    +0.000 NA
ATOM      8  C   UNL     1       6.662   5.584  17.992  0.00  0.00    +0.000 A 
ATOM      9  C   UNL     1       5.290   5.496  18.127  0.00  0.00    +0.000 A 
ATOM     10  C   UNL     1       4.554   6.287  19.165  0.00  0.00    +0.000 C 
ENDROOT
BRANCH   1  14
ATOM     11  C   UNL     1       0.699   9.648  19.303  0.00  0.00    +0.000 A 
ATOM     12  N   UNL     1       1.237   9.356  18.102  0.00  0.00    +0.000 NA
ATOM     13  C   UNL     1       2.035   8.266  18.026  0.00  0.00    +0.000 A 
ATOM     14  C   UNL     1       2.353   7.413  19.082  0.00  0.00    +0.000 A 
ATOM     15  C   UNL     1       1.813   7.792  20.311  0.00  0.00    +0.000 A 
ATOM     16  C   UNL     1       0.978   8.921  20.445  0.00  0.00    +0.000 A 
BRANCH  16  17
ATOM     17  C   UNL     1       0.425   9.258  21.795  0.00  0.00    +0.000 C 
ATOM     18  F   UNL     1      -0.769   8.704  22.121  0.00  0.00    +0.000 F 
ATOM     19  F   UNL     1       1.284   8.903  22.796  0.00  0.00    +0.000 F 
ATOM     20  F   UNL     1       0.253  10.607  21.942  0.00  0.00    +0.000 F 
ENDBRANCH  16  17
BRANCH  11  22
ATOM     21  C   UNL     1      -1.402  10.462  18.638  0.00  0.00    +0.000 C 
ATOM     22  O   UNL     1      -0.199  10.686  19.372  0.00  0.00    +0.000 OA
ENDBRANCH  11  22
ENDBRANCH   1  14
BRANCH   8  23
ATOM     23  O   UNL     1       7.311   6.450  18.847  0.00  0.00    +0.000 OA
BRANCH  23  24
ATOM     24  C   UNL     1       8.191   7.361  18.194  0.00  0.00    +0.000 C 
ATOM     25  C   UNL     1       7.322   8.333  17.393  0.00  0.00    +0.000 C 
ATOM     26  C   UNL     1       8.160   9.590  17.339  0.00  0.00    +0.000 C 
ATOM     27  N   UNL     1       8.832   9.617  18.622  0.00  0.00    +0.000 N 
ATOM     28  C   UNL     1       9.239  10.723  19.355  0.00  0.00    +0.000 C 
ATOM     29  O   UNL     1       9.601  10.612  20.524  0.00  0.00    +0.000 OA
ATOM     30  C   UNL     1       8.922   8.275  19.184  0.00  0.00    +0.000 C 
BRANCH  28  31
ATOM     31  C   UNL     1       9.210  12.031  18.714  0.00  0.00    +0.000 A 
ATOM     32  C   UNL     1       8.325  13.095  19.013  0.00  0.00    +0.000 A 
ATOM     33  N   UNL     1       8.539  14.180  18.262  0.00  0.00    +0.000 NA
ATOM     34  N   UNL     1       9.588  13.835  17.504  0.00  0.00    +0.000 N 
ATOM     35  C   UNL     1      10.040  12.573  17.749  0.00  0.00    +0.000 A 
ATOM     36  H   UNL     1       9.950  14.515  16.843  0.00  0.00    +0.000 HD
ENDBRANCH  28  31
ENDBRANCH  23  24
ENDBRANCH   8  23
TORSDOF 6
ENDMDL
MODEL 7
REMARK VINA RESULT:      -7.5      6.296     10.651
REMARK  Name = 
REMARK  7 active torsions:
REMARK  status: ('A' for Active; 'I' for Inactive)
REMARK    1  A    between atoms: C_1  and  O_2
REMARK    2  A    between atoms: O_2  and  C_3
REMARK    3  A    between atoms: C_6  and  N_7
REMARK    4  A    between atoms: C_14  and  O_15
REMARK    5  A    between atoms: O_15  and  C_16
REMARK    6  A    between atoms: C_20  and  C_22
REMARK    7  A    between atoms: C_31  and  C_32
REMARK                            x       y       z     vdW  Elec       q    Type
REMARK                         _______ _______ _______ _____ _____    ______ ____
ROOT
ATOM      1  N   UNL     1       0.608  12.830  18.755  0.00  0.00    +0.000 N 
ATOM      2  C   UNL     1      -0.642  13.593  18.747  0.00  0.00    +0.000 C 
ATOM      3  C   UNL     1      -0.469  14.858  19.582  0.00  0.00    +0.000 C 
ATOM      4  C   UNL     1       0.784  15.603  19.198  0.00  0.00    +0.000 A 
ATOM      5  N   UNL     1       0.852  16.907  19.549  0.00  0.00    +0.000 NA
ATOM      6  C   UNL     1       2.001  17.543  19.270  0.00  0.00    +0.000 A 
ATOM      7  N   UNL     1       3.084  17.004  18.697  0.00  0.00    +0.000 NA
ATOM      8  C   UNL     1       2.971  15.704  18.381  0.00  0.00    +0.000 A 
ATOM      9  C   UNL     1       1.836  14.944  18.588  0.00  0.00    +0.000 A 
ATOM     10  C   UNL     1       1.771  13.507  18.168  0.00  0.00    +0.000 C 
ENDROOT
BRANCH   1  14
ATOM     11  C   UNL     1       1.117   8.984  20.271  0.00  0.00    +0.000 A 
ATOM     12  N   UNL     1       1.514   9.251  19.010  0.00  0.00    +0.000 NA
ATOM     13  C   UNL     1       1.306  10.505  18.545  0.00  0.00    +0.000 A 
ATOM     14  C   UNL     1       0.717  11.551  19.254  0.00  0.00    +0.000 A 
ATOM     15  C   UNL     1       0.277  11.204  20.532  0.00  0.00    +0.000 A 
ATOM     16  C   UNL     1       0.466   9.910  21.062  0.00  0.00    +0.000 A 
BRANCH  16  17
ATOM     17  C   UNL     1      -0.022   9.617  22.447  0.00  0.00    +0.000 C 
ATOM     18  F   UNL     1      -0.909   8.600  22.579  0.00  0.00    +0.000 F 
ATOM     19  F   UNL     1       1.009   9.322  23.294  0.00  0.00    +0.000 F 
ATOM     20  F   UNL     1      -0.632  10.708  23.004  0.00  0.00    +0.000 F 
ENDBRANCH  16  17
BRANCH  11  22
ATOM     21  C   UNL     1       2.210   6.932  19.932  0.00  0.00    +0.000 C 
ATOM     22  O   UNL     1       1.419   7.750  20.793  0.00  0.00    +0.000 OA
ENDBRANCH  11  22
ENDBRANCH   1  14
BRANCH   8  23
ATOM     23  O   UNL     1       4.040  15.068  17.788  0.00  0.00    +0.000 OA
BRANCH  23  24
ATOM     24  C   UNL     1       5.309  15.461  18.304  0.00  0.00    +0.000 C 
ATOM     25  C   UNL     1       5.406  14.918  19.730  0.00  0.00    +0.000 C 
ATOM     26  C   UNL     1       6.892  14.731  19.935  0.00  0.00    +0.000 C 
ATOM     27  N   UNL     1       7.374  14.316  18.633  0.00  0.00    +0.000 N 
ATOM     28  C   UNL     1       8.449  13.488  18.340  0.00  0.00    +0.000 C 
ATOM     29  O   UNL     1       8.616  13.043  17.206  0.00  0.00    +0.000 OA
ATOM     30  C   UNL     1       6.470  14.767  17.581  0.00  0.00    +0.000 C 
BRANCH  28  31
ATOM     31  C   UNL     1       9.370  13.138  19.411  0.00  0.00    +0.000 A 
ATOM     32  C   UNL     1       9.297  11.995  20.246  0.00  0.00    +0.000 A 
ATOM     33  N   UNL     1      10.288  11.937  21.141  0.00  0.00    +0.000 NA
ATOM     34  N   UNL     1      11.027  13.020  20.863  0.00  0.00    +0.000 N 
ATOM     35  C   UNL     1      10.536  13.757  19.828  0.00  0.00    +0.000 A 
ATOM     36  H   UNL     1      11.860  13.190  21.417  0.00  0.00    +0.000 HD
ENDBRANCH  28  31
ENDBRANCH  23  24
ENDBRANCH   8  23
TORSDOF 6
ENDMDL
MODEL 8
REMARK VINA RESULT:      -7.5      3.995      7.576
REMARK  Name = 
REMARK  7 active torsions:
REMARK  status: ('A' for Active; 'I' for Inactive)
REMARK    1  A    between atoms: C_1  and  O_2
REMARK    2  A    between atoms: O_2  and  C_3
REMARK    3  A    between atoms: C_6  and  N_7
REMARK    4  A    between atoms: C_14  and  O_15
REMARK    5  A    between atoms: O_15  and  C_16
REMARK    6  A    between atoms: C_20  and  C_22
REMARK    7  A    between atoms: C_31  and  C_32
REMARK                            x       y       z     vdW  Elec       q    Type
REMARK                         _______ _______ _______ _____ _____    ______ ____
ROOT
ATOM      1  N   UNL     1       1.048   9.748  18.834  0.00  0.00    +0.000 N 
ATOM      2  C   UNL     1      -0.078   9.869  17.905  0.00  0.00    +0.000 C 
ATOM      3  C   UNL     1      -1.316  10.329  18.667  0.00  0.00    +0.000 C 
ATOM      4  C   UNL     1      -1.017  11.527  19.532  0.00  0.00    +0.000 A 
ATOM      5  N   UNL     1      -2.072  12.272  19.932  0.00  0.00    +0.000 NA
ATOM      6  C   UNL     1      -1.805  13.292  20.763  0.00  0.00    +0.000 A 
ATOM      7  N   UNL     1      -0.601  13.626  21.243  0.00  0.00    +0.000 NA
ATOM      8  C   UNL     1       0.411  12.846  20.828  0.00  0.00    +0.000 A 
ATOM      9  C   UNL     1       0.275  11.786  19.953  0.00  0.00    +0.000 A 
ATOM     10  C   UNL     1       1.461  10.988  19.501  0.00  0.00    +0.000 C 
ENDROOT
BRANCH   1  14
ATOM     11  C   UNL     1       2.900   6.085  19.546  0.00  0.00    +0.000 A 
ATOM     12  N   UNL     1       2.072   6.596  20.480  0.00  0.00    +0.000 NA
ATOM     13  C   UNL     1       1.512   7.801  20.224  0.00  0.00    +0.000 A 
ATOM     14  C   UNL     1       1.713   8.565  19.075  0.00  0.00    +0.000 A 
ATOM     15  C   UNL     1       2.617   8.015  18.167  0.00  0.00    +0.000 A 
ATOM     16  C   UNL     1       3.232   6.764  18.389  0.00  0.00    +0.000 A 
BRANCH  16  17
ATOM     17  C   UNL     1       4.182   6.232  17.362  0.00  0.00    +0.000 C 
ATOM     18  F   UNL     1       3.880   5.029  16.815  0.00  0.00    +0.000 F 
ATOM     19  F   UNL     1       4.325   7.092  16.311  0.00  0.00    +0.000 F 
ATOM     20  F   UNL     1       5.443   6.092  17.874  0.00  0.00    +0.000 F 
ENDBRANCH  16  17
BRANCH  11  22
ATOM     21  C   UNL     1       2.384   3.805  19.776  0.00  0.00    +0.000 C 
ATOM     22  O   UNL     1       3.389   4.816  19.743  0.00  0.00    +0.000 OA
ENDBRANCH  11  22
ENDBRANCH   1  14
BRANCH   8  23
ATOM     23  O   UNL     1       1.686  13.118  21.275  0.00  0.00    +0.000 OA
BRANCH  23  24
ATOM     24  C   UNL     1       2.189  14.386  20.864  0.00  0.00    +0.000 C 
ATOM     25  C   UNL     1       3.234  14.814  21.896  0.00  0.00    +0.000 C 
ATOM     26  C   UNL     1       4.168  15.699  21.103  0.00  0.00    +0.000 C 
ATOM     27  N   UNL     1       4.198  15.087  19.790  0.00  0.00    +0.000 N 
ATOM     28  C   UNL     1       5.238  15.077  18.870  0.00  0.00    +0.000 C 
ATOM     29  O   UNL     1       5.209  14.340  17.887  0.00  0.00    +0.000 OA
ATOM     30  C   UNL     1       2.992  14.300  19.561  0.00  0.00    +0.000 C 
BRANCH  28  31
ATOM     31  C   UNL     1       6.381  15.948  19.104  0.00  0.00    +0.000 A 
ATOM     32  C   UNL     1       6.444  17.341  18.854  0.00  0.00    +0.000 A 
ATOM     33  N   UNL     1       7.627  17.877  19.172  0.00  0.00    +0.000 NA
ATOM     34  N   UNL     1       8.318  16.841  19.665  0.00  0.00    +0.000 N 
ATOM     35  C   UNL     1       7.615  15.674  19.667  0.00  0.00    +0.000 A 
ATOM     36  H   UNL     1       9.265  17.005  19.990  0.00  0.00    +0.000 HD
ENDBRANCH  28  31
ENDBRANCH  23  24
ENDBRANCH   8  23
TORSDOF 6
ENDMDL
MODEL 9
REMARK VINA RESULT:      -7.5      5.709      8.298
REMARK  Name = 
REMARK  7 active torsions:
REMARK  status: ('A' for Active; 'I' for Inactive)
REMARK    1  A    between atoms: C_1  and  O_2
REMARK    2  A    between atoms: O_2  and  C_3
REMARK    3  A    between atoms: C_6  and  N_7
REMARK    4  A    between atoms: C_14  and  O_15
REMARK    5  A    between atoms: O_15  and  C_16
REMARK    6  A    between atoms: C_20  and  C_22
REMARK    7  A    between atoms: C_31  and  C_32
REMARK                            x       y       z     vdW  Elec       q    Type
REMARK                         _______ _______ _______ _____ _____    ______ ____
ROOT
ATOM      1  N   UNL     1       3.018   6.335  18.983  0.00  0.00    +0.000 N 
ATOM      2  C   UNL     1       2.437   5.054  18.576  0.00  0.00    +0.000 C 
ATOM      3  C   UNL     1       3.037   4.628  17.240  0.00  0.00    +0.000 C 
ATOM      4  C   UNL     1       4.542   4.716  17.259  0.00  0.00    +0.000 A 
ATOM      5  N   UNL     1       5.209   4.004  16.323  0.00  0.00    +0.000 NA
ATOM      6  C   UNL     1       6.543   4.147  16.300  0.00  0.00    +0.000 A 
ATOM      7  N   UNL     1       7.268   4.938  17.101  0.00  0.00    +0.000 NA
ATOM      8  C   UNL     1       6.558   5.635  18.002  0.00  0.00    +0.000 A 
ATOM      9  C   UNL     1       5.186   5.557  18.149  0.00  0.00    +0.000 A 
ATOM     10  C   UNL     1       4.468   6.335  19.210  0.00  0.00    +0.000 C 
ENDROOT
BRANCH   1  14
ATOM     11  C   UNL     1       0.656   9.737  19.436  0.00  0.00    +0.000 A 
ATOM     12  N   UNL     1       1.286   9.525  18.262  0.00  0.00    +0.000 NA
ATOM     13  C   UNL     1       2.066   8.424  18.164  0.00  0.00    +0.000 A 
ATOM     14  C   UNL     1       2.278   7.482  19.171  0.00  0.00    +0.000 A 
ATOM     15  C   UNL     1       1.645   7.778  20.379  0.00  0.00    +0.000 A 
ATOM     16  C   UNL     1       0.825   8.915  20.534  0.00  0.00    +0.000 A 
BRANCH  16  17
ATOM     17  C   UNL     1       0.168   9.159  21.857  0.00  0.00    +0.000 C 
ATOM     18  F   UNL     1       0.960   9.079  22.956  0.00  0.00    +0.000 F 
ATOM     19  F   UNL     1      -0.417  10.392  21.911  0.00  0.00    +0.000 F 
ATOM     20  F   UNL     1      -0.853   8.276  22.079  0.00  0.00    +0.000 F 
ENDBRANCH  16  17
BRANCH  11  22
ATOM     21  C   UNL     1       0.354  12.053  19.190  0.00  0.00    +0.000 C 
ATOM     22  O   UNL     1      -0.223  10.790  19.514  0.00  0.00    +0.000 OA
ENDBRANCH  11  22
ENDBRANCH   1  14
BRANCH   8  23
ATOM     23  O   UNL     1       7.223   6.477  18.867  0.00  0.00    +0.000 OA
BRANCH  23  24
ATOM     24  C   UNL     1       8.152   7.350  18.229  0.00  0.00    +0.000 C 
ATOM     25  C   UNL     1       7.339   8.360  17.417  0.00  0.00    +0.000 C 
ATOM     26  C   UNL     1       8.232   9.579  17.378  0.00  0.00    +0.000 C 
ATOM     27  N   UNL     1       8.885   9.574  18.671  0.00  0.00    +0.000 N 
ATOM     28  C   UNL     1       9.330  10.661  19.412  0.00  0.00    +0.000 C 
ATOM     29  O   UNL     1       9.669  10.532  20.587  0.00  0.00    +0.000 OA
ATOM     30  C   UNL     1       8.908   8.229  19.232  0.00  0.00    +0.000 C 
BRANCH  28  31
ATOM     31  C   UNL     1       9.367  11.969  18.775  0.00  0.00    +0.000 A 
ATOM     32  C   UNL     1      10.335  12.427  17.847  0.00  0.00    +0.000 A 
ATOM     33  N   UNL     1      10.108  13.676  17.427  0.00  0.00    +0.000 NA
ATOM     34  N   UNL     1       8.971  14.014  18.050  0.00  0.00    +0.000 N 
ATOM     35  C   UNL     1       8.478  13.026  18.848  0.00  0.00    +0.000 A 
ATOM     36  H   UNL     1       8.584  14.936  17.878  0.00  0.00    +0.000 HD
ENDBRANCH  28  31
ENDBRANCH  23  24
ENDBRANCH   8  23
TORSDOF 6
ENDMDL
