MODEL 1
REMARK VINA RESULT:      -7.6      0.000      0.000
REMARK  Name = 
REMARK  6 active torsions:
REMARK  status: ('A' for Active; 'I' for Inactive)
REMARK    1  A    between atoms: C_1  and  S_2
REMARK    2  A    between atoms: S_2  and  C_5
REMARK    3  A    between atoms: C_5  and  C_6
REMARK    4  A    between atoms: C_6  and  C_7
REMARK    5  A    between atoms: C_7  and  O_8
REMARK    6  A    between atoms: O_8  and  C_9
REMARK                            x       y       z     vdW  Elec       q    Type
REMARK                         _______ _______ _______ _____ _____    ______ ____
ROOT
ATOM      1  O   UNL     1       4.610   4.938  19.077  0.00  0.00    +0.000 OA
ENDROOT
BRANCH   1   2
ATOM      2  C   UNL     1       3.179   5.170  19.264  0.00  0.00    +0.000 C 
ATOM      3  C   UNL     1       2.495   5.023  17.888  0.00  0.00    +0.000 C 
ATOM      4  C   UNL     1       2.365   3.544  17.462  0.00  0.00    +0.000 C 
ATOM      5  C   UNL     1       1.506   2.715  18.437  0.00  0.00    +0.000 C 
ATOM      6  C   UNL     1       1.805   3.059  19.847  0.00  0.00    +0.000 A 
ATOM      7  C   UNL     1       1.501   2.428  21.030  0.00  0.00    +0.000 A 
ATOM      8  N   UNL     1       2.015   3.220  22.018  0.00  0.00    +0.000 N 
ATOM      9  N   UNL     1       2.536   4.374  21.561  0.00  0.00    +0.000 NA
ATOM     10  C   UNL     1       2.513   4.221  20.232  0.00  0.00    +0.000 A 
ATOM     11  H   UNL     1       2.037   3.048  23.018  0.00  0.00    +0.000 HD
ENDBRANCH   1   2
BRANCH   1  12
ATOM     12  C   UNL     1       5.179   5.993  18.293  0.00  0.00    +0.000 C 
BRANCH  12  13
ATOM     13  C   UNL     1       6.609   5.765  17.835  0.00  0.00    +0.000 C 
ATOM     14  C   UNL     1       7.736   5.937  18.843  0.00  0.00    +0.000 C 
ATOM     15  C   UNL     1       7.578   6.930  17.728  0.00  0.00    +0.000 C 
BRANCH  13  16
ATOM     16  C   UNL     1       6.751   4.605  16.849  0.00  0.00    +0.000 C 
BRANCH  16  18
ATOM     17  C   UNL     1       5.988   3.801  14.286  0.00  0.00    +0.000 C 
ATOM     18  S   UNL     1       6.588   5.213  15.158  0.00  0.00    +0.000 S 
ATOM     19  O   UNL     1       7.904   5.518  14.631  0.00  0.00    +0.000 OA
ATOM     20  O   UNL     1       5.505   6.179  15.064  0.00  0.00    +0.000 OA
ENDBRANCH  16  18
ENDBRANCH  13  16
ENDBRANCH  12  13
ENDBRANCH   1  12
TORSDOF 5
ENDMDL
MODEL 2
REMARK VINA RESULT:      -7.5      1.075      1.242
REMARK  Name = 
REMARK  6 active torsions:
REMARK  status: ('A' for Active; 'I' for Inactive)
REMARK    1  A    between atoms: C_1  and  S_2
REMARK    2  A    between atoms: S_2  and  C_5
REMARK    3  A    between atoms: C_5  and  C_6
REMARK    4  A    between atoms: C_6  and  C_7
REMARK    5  A    between atoms: C_7  and  O_8
REMARK    6  A    between atoms: O_8  and  C_9
REMARK                            x       y       z     vdW  Elec       q    Type
REMARK                         _______ _______ _______ _____ _____    ______ ____
ROOT
ATOM      1  O   UNL     1       4.974   4.152  18.540  0.00  0.00    +0.000 OA
ENDROOT
BRANCH   1   2
ATOM      2  C   UNL     1       3.661   4.528  18.021  0.00  0.00    +0.000 C 
ATOM      3  C   UNL     1       3.211   3.428  17.036  0.00  0.00    +0.000 C 
ATOM      4  C   UNL     1       2.736   2.154  17.769  0.00  0.00    +0.000 C 
ATOM      5  C   UNL     1       1.521   2.407  18.682  0.00  0.00    +0.000 C 
ATOM      6  C   UNL     1       1.658   3.684  19.423  0.00  0.00    +0.000 A 
ATOM      7  C   UNL     1       0.986   4.191  20.509  0.00  0.00    +0.000 A 
ATOM      8  N   UNL     1       1.528   5.425  20.740  0.00  0.00    +0.000 N 
ATOM      9  N   UNL     1       2.429   5.794  19.811  0.00  0.00    +0.000 NA
ATOM     10  C   UNL     1       2.593   4.687  19.078  0.00  0.00    +0.000 A 
ATOM     11  H   UNL     1       1.327   6.072  21.496  0.00  0.00    +0.000 HD
ENDBRANCH   1   2
BRANCH   1  12
ATOM     12  C   UNL     1       5.700   5.323  18.932  0.00  0.00    +0.000 C 
BRANCH  12  13
ATOM     13  C   UNL     1       6.900   5.665  18.067  0.00  0.00    +0.000 C 
ATOM     14  C   UNL     1       8.098   6.346  18.714  0.00  0.00    +0.000 C 
ATOM     15  C   UNL     1       7.236   7.113  17.753  0.00  0.00    +0.000 C 
BRANCH  13  16
ATOM     16  C   UNL     1       7.213   4.598  17.016  0.00  0.00    +0.000 C 
BRANCH  16  18
ATOM     17  C   UNL     1       6.058   3.733  14.625  0.00  0.00    +0.000 C 
ATOM     18  S   UNL     1       6.718   5.185  15.383  0.00  0.00    +0.000 S 
ATOM     19  O   UNL     1       7.900   5.562  14.633  0.00  0.00    +0.000 OA
ATOM     20  O   UNL     1       5.580   6.084  15.485  0.00  0.00    +0.000 OA
ENDBRANCH  16  18
ENDBRANCH  13  16
ENDBRANCH  12  13
ENDBRANCH   1  12
TORSDOF 5
ENDMDL
MODEL 3
REMARK VINA RESULT:      -7.3      1.576      1.660
REMARK  Name = 
REMARK  6 active torsions:
REMARK  status: ('A' for Active; 'I' for Inactive)
REMARK    1  A    between atoms: C_1  and  S_2
REMARK    2  A    between atoms: S_2  and  C_5
REMARK    3  A    between atoms: C_5  and  C_6
REMARK    4  A    between atoms: C_6  and  C_7
REMARK    5  A    between atoms: C_7  and  O_8
REMARK    6  A    between atoms: O_8  and  C_9
REMARK                            x       y       z     vdW  Elec       q    Type
REMARK                         _______ _______ _______ _____ _____    ______ ____
ROOT
ATOM      1  O   UNL     1       4.452   5.576  18.405  0.00  0.00    +0.000 OA
ENDROOT
BRANCH   1   2
ATOM      2  C   UNL     1       3.622   4.831  19.350  0.00  0.00    +0.000 C 
ATOM      3  C   UNL     1       2.144   5.090  18.985  0.00  0.00    +0.000 C 
ATOM      4  C   UNL     1       1.711   4.298  17.731  0.00  0.00    +0.000 C 
ATOM      5  C   UNL     1       1.826   2.772  17.919  0.00  0.00    +0.000 C 
ATOM      6  C   UNL     1       3.072   2.408  18.636  0.00  0.00    +0.000 A 
ATOM      7  C   UNL     1       3.720   1.206  18.797  0.00  0.00    +0.000 A 
ATOM      8  N   UNL     1       4.811   1.473  19.576  0.00  0.00    +0.000 N 
ATOM      9  N   UNL     1       4.853   2.744  20.019  0.00  0.00    +0.000 NA
ATOM     10  C   UNL     1       3.860   3.339  19.350  0.00  0.00    +0.000 A 
ATOM     11  H   UNL     1       5.556   0.843  19.856  0.00  0.00    +0.000 HD
ENDBRANCH   1   2
BRANCH   1  12
ATOM     12  C   UNL     1       5.698   5.926  19.018  0.00  0.00    +0.000 C 
BRANCH  12  13
ATOM     13  C   UNL     1       6.881   6.035  18.071  0.00  0.00    +0.000 C 
ATOM     14  C   UNL     1       8.162   6.686  18.573  0.00  0.00    +0.000 C 
ATOM     15  C   UNL     1       7.324   7.390  17.546  0.00  0.00    +0.000 C 
BRANCH  13  16
ATOM     16  C   UNL     1       7.050   4.812  17.169  0.00  0.00    +0.000 C 
BRANCH  16  18
ATOM     17  C   UNL     1       5.989   3.734  14.822  0.00  0.00    +0.000 C 
ATOM     18  S   UNL     1       6.636   5.244  15.467  0.00  0.00    +0.000 S 
ATOM     19  O   UNL     1       7.855   5.536  14.739  0.00  0.00    +0.000 OA
ATOM     20  O   UNL     1       5.509   6.161  15.431  0.00  0.00    +0.000 OA
ENDBRANCH  16  18
ENDBRANCH  13  16
ENDBRANCH  12  13
ENDBRANCH   1  12
TORSDOF 5
ENDMDL
MODEL 4
REMARK VINA RESULT:      -7.1      1.617      2.519
REMARK  Name = 
REMARK  6 active torsions:
REMARK  status: ('A' for Active; 'I' for Inactive)
REMARK    1  A    between atoms: C_1  and  S_2
REMARK    2  A    between atoms: S_2  and  C_5
REMARK    3  A    between atoms: C_5  and  C_6
REMARK    4  A    between atoms: C_6  and  C_7
REMARK    5  A    between atoms: C_7  and  O_8
REMARK    6  A    between atoms: O_8  and  C_9
REMARK                            x       y       z     vdW  Elec       q    Type
REMARK                         _______ _______ _______ _____ _____    ______ ____
ROOT
ATOM      1  O   UNL     1       3.813   5.463  18.742  0.00  0.00    +0.000 OA
ENDROOT
BRANCH   1   2
ATOM      2  C   UNL     1       2.395   5.213  18.992  0.00  0.00    +0.000 C 
ATOM      3  C   UNL     1       1.778   4.661  17.688  0.00  0.00    +0.000 C 
ATOM      4  C   UNL     1       2.163   3.185  17.445  0.00  0.00    +0.000 C 
ATOM      5  C   UNL     1       1.666   2.247  18.563  0.00  0.00    +0.000 C 
ATOM      6  C   UNL     1       1.854   2.853  19.902  0.00  0.00    +0.000 A 
ATOM      7  C   UNL     1       1.812   2.317  21.167  0.00  0.00    +0.000 A 
ATOM      8  N   UNL     1       2.037   3.360  22.022  0.00  0.00    +0.000 N 
ATOM      9  N   UNL     1       2.114   4.552  21.401  0.00  0.00    +0.000 NA
ATOM     10  C   UNL     1       2.121   4.228  20.103  0.00  0.00    +0.000 A 
ATOM     11  H   UNL     1       2.137   3.338  23.031  0.00  0.00    +0.000 HD
ENDBRANCH   1   2
BRANCH   1  12
ATOM     12  C   UNL     1       3.970   6.252  17.556  0.00  0.00    +0.000 C 
BRANCH  12  13
ATOM     13  C   UNL     1       5.183   5.916  16.707  0.00  0.00    +0.000 C 
ATOM     14  C   UNL     1       5.078   6.050  15.195  0.00  0.00    +0.000 C 
ATOM     15  C   UNL     1       5.182   4.687  15.815  0.00  0.00    +0.000 C 
BRANCH  13  16
ATOM     16  C   UNL     1       6.505   6.360  17.337  0.00  0.00    +0.000 C 
BRANCH  16  18
ATOM     17  C   UNL     1       8.270   5.768  19.418  0.00  0.00    +0.000 C 
ATOM     18  S   UNL     1       7.266   4.973  18.203  0.00  0.00    +0.000 S 
ATOM     19  O   UNL     1       8.159   4.276  17.297  0.00  0.00    +0.000 OA
ATOM     20  O   UNL     1       6.275   4.246  18.978  0.00  0.00    +0.000 OA
ENDBRANCH  16  18
ENDBRANCH  13  16
ENDBRANCH  12  13
ENDBRANCH   1  12
TORSDOF 5
ENDMDL
MODEL 5
REMARK VINA RESULT:      -7.0      2.043      3.163
REMARK  Name = 
REMARK  6 active torsions:
REMARK  status: ('A' for Active; 'I' for Inactive)
REMARK    1  A    between atoms: C_1  and  S_2
REMARK    2  A    between atoms: S_2  and  C_5
REMARK    3  A    between atoms: C_5  and  C_6
REMARK    4  A    between atoms: C_6  and  C_7
REMARK    5  A    between atoms: C_7  and  O_8
REMARK    6  A    between atoms: O_8  and  C_9
REMARK                            x       y       z     vdW  Elec       q    Type
REMARK                         _______ _______ _______ _____ _____    ______ ____
ROOT
ATOM      1  O   UNL     1       4.296   3.731  17.993  0.00  0.00    +0.000 OA
ENDROOT
BRANCH   1   2
ATOM      2  C   UNL     1       2.922   4.203  17.832  0.00  0.00    +0.000 C 
ATOM      3  C   UNL     1       2.003   2.964  17.767  0.00  0.00    +0.000 C 
ATOM      4  C   UNL     1       1.792   2.328  19.159  0.00  0.00    +0.000 C 
ATOM      5  C   UNL     1       1.118   3.288  20.159  0.00  0.00    +0.000 C 
ATOM      6  C   UNL     1       1.665   4.661  20.044  0.00  0.00    +0.000 A 
ATOM      7  C   UNL     1       1.574   5.757  20.869  0.00  0.00    +0.000 A 
ATOM      8  N   UNL     1       2.259   6.756  20.237  0.00  0.00    +0.000 N 
ATOM      9  N   UNL     1       2.695   6.413  19.010  0.00  0.00    +0.000 NA
ATOM     10  C   UNL     1       2.435   5.102  18.944  0.00  0.00    +0.000 A 
ATOM     11  H   UNL     1       2.458   7.694  20.570  0.00  0.00    +0.000 HD
ENDBRANCH   1   2
BRANCH   1  12
ATOM     12  C   UNL     1       4.918   3.586  16.711  0.00  0.00    +0.000 C 
BRANCH  12  13
ATOM     13  C   UNL     1       5.744   4.774  16.250  0.00  0.00    +0.000 C 
ATOM     14  C   UNL     1       5.604   5.249  14.811  0.00  0.00    +0.000 C 
ATOM     15  C   UNL     1       6.875   4.584  15.253  0.00  0.00    +0.000 C 
BRANCH  13  16
ATOM     16  C   UNL     1       5.883   5.864  17.314  0.00  0.00    +0.000 C 
BRANCH  16  18
ATOM     17  C   UNL     1       8.136   6.919  18.581  0.00  0.00    +0.000 C 
ATOM     18  S   UNL     1       7.198   5.428  18.469  0.00  0.00    +0.000 S 
ATOM     19  O   UNL     1       8.053   4.426  17.863  0.00  0.00    +0.000 OA
ATOM     20  O   UNL     1       6.663   5.240  19.807  0.00  0.00    +0.000 OA
ENDBRANCH  16  18
ENDBRANCH  13  16
ENDBRANCH  12  13
ENDBRANCH   1  12
TORSDOF 5
ENDMDL
MODEL 6
REMARK VINA RESULT:      -7.0      2.075      2.963
REMARK  Name = 
REMARK  6 active torsions:
REMARK  status: ('A' for Active; 'I' for Inactive)
REMARK    1  A    between atoms: C_1  and  S_2
REMARK    2  A    between atoms: S_2  and  C_5
REMARK    3  A    between atoms: C_5  and  C_6
REMARK    4  A    between atoms: C_6  and  C_7
REMARK    5  A    between atoms: C_7  and  O_8
REMARK    6  A    between atoms: O_8  and  C_9
REMARK                            x       y       z     vdW  Elec       q    Type
REMARK                         _______ _______ _______ _____ _____    ______ ____
ROOT
ATOM      1  O   UNL     1       3.555   5.418  19.733  0.00  0.00    +0.000 OA
ENDROOT
BRANCH   1   2
ATOM      2  C   UNL     1       2.942   4.258  20.377  0.00  0.00    +0.000 C 
ATOM      3  C   UNL     1       1.436   4.270  20.032  0.00  0.00    +0.000 C 
ATOM      4  C   UNL     1       1.172   3.809  18.582  0.00  0.00    +0.000 C 
ATOM      5  C   UNL     1       1.641   2.365  18.319  0.00  0.00    +0.000 C 
ATOM      6  C   UNL     1       2.952   2.097  18.956  0.00  0.00    +0.000 A 
ATOM      7  C   UNL     1       3.865   1.083  18.789  0.00  0.00    +0.000 A 
ATOM      8  N   UNL     1       4.881   1.347  19.664  0.00  0.00    +0.000 N 
ATOM      9  N   UNL     1       4.637   2.404  20.462  0.00  0.00    +0.000 NA
ATOM     10  C   UNL     1       3.518   2.929  19.950  0.00  0.00    +0.000 A 
ATOM     11  H   UNL     1       5.758   0.850  19.782  0.00  0.00    +0.000 HD
ENDBRANCH   1   2
BRANCH   1  12
ATOM     12  C   UNL     1       4.856   5.074  19.240  0.00  0.00    +0.000 C 
BRANCH  12  13
ATOM     13  C   UNL     1       5.088   5.353  17.766  0.00  0.00    +0.000 C 
ATOM     14  C   UNL     1       4.135   4.745  16.747  0.00  0.00    +0.000 C 
ATOM     15  C   UNL     1       5.547   4.243  16.835  0.00  0.00    +0.000 C 
BRANCH  13  16
ATOM     16  C   UNL     1       5.559   6.781  17.487  0.00  0.00    +0.000 C 
BRANCH  16  18
ATOM     17  C   UNL     1       7.713   8.548  17.663  0.00  0.00    +0.000 C 
ATOM     18  S   UNL     1       7.361   6.833  17.438  0.00  0.00    +0.000 S 
ATOM     19  O   UNL     1       7.813   6.472  16.108  0.00  0.00    +0.000 OA
ATOM     20  O   UNL     1       7.924   6.194  18.616  0.00  0.00    +0.000 OA
ENDBRANCH  16  18
ENDBRANCH  13  16
ENDBRANCH  12  13
ENDBRANCH   1  12
TORSDOF 5
ENDMDL
MODEL 7
REMARK VINA RESULT:      -6.9      1.032      1.254
REMARK  Name = 
REMARK  6 active torsions:
REMARK  status: ('A' for Active; 'I' for Inactive)
REMARK    1  A    between atoms: C_1  and  S_2
REMARK    2  A    between atoms: S_2  and  C_5
REMARK    3  A    between atoms: C_5  and  C_6
REMARK    4  A    between atoms: C_6  and  C_7
REMARK    5  A    between atoms: C_7  and  O_8
REMARK    6  A    between atoms: O_8  and  C_9
REMARK                            x       y       z     vdW  Elec       q    Type
REMARK                         _______ _______ _______ _____ _____    ______ ____
ROOT
ATOM      1  O   UNL     1       4.793   4.230  18.424  0.00  0.00    +0.000 OA
ENDROOT
BRANCH   1   2
ATOM      2  C   UNL     1       3.350   4.457  18.395  0.00  0.00    +0.000 C 
ATOM      3  C   UNL     1       2.762   3.601  17.252  0.00  0.00    +0.000 C 
ATOM      4  C   UNL     1       2.683   2.105  17.632  0.00  0.00    +0.000 C 
ATOM      5  C   UNL     1       1.774   1.845  18.849  0.00  0.00    +0.000 C 
ATOM      6  C   UNL     1       1.972   2.870  19.901  0.00  0.00    +0.000 A 
ATOM      7  C   UNL     1       1.599   2.912  21.224  0.00  0.00    +0.000 A 
ATOM      8  N   UNL     1       2.033   4.118  21.696  0.00  0.00    +0.000 N 
ATOM      9  N   UNL     1       2.566   4.905  20.742  0.00  0.00    +0.000 NA
ATOM     10  C   UNL     1       2.635   4.098  19.677  0.00  0.00    +0.000 A 
ATOM     11  H   UNL     1       1.991   4.478  22.644  0.00  0.00    +0.000 HD
ENDBRANCH   1   2
BRANCH   1  12
ATOM     12  C   UNL     1       5.477   5.461  18.689  0.00  0.00    +0.000 C 
BRANCH  12  13
ATOM     13  C   UNL     1       6.831   5.610  18.018  0.00  0.00    +0.000 C 
ATOM     14  C   UNL     1       7.977   6.224  18.810  0.00  0.00    +0.000 C 
ATOM     15  C   UNL     1       7.370   6.987  17.669  0.00  0.00    +0.000 C 
BRANCH  13  16
ATOM     16  C   UNL     1       7.189   4.434  17.107  0.00  0.00    +0.000 C 
BRANCH  16  18
ATOM     17  C   UNL     1       5.391   5.907  15.560  0.00  0.00    +0.000 C 
ATOM     18  S   UNL     1       6.788   4.841  15.396  0.00  0.00    +0.000 S 
ATOM     19  O   UNL     1       6.337   3.643  14.714  0.00  0.00    +0.000 OA
ATOM     20  O   UNL     1       7.818   5.686  14.816  0.00  0.00    +0.000 OA
ENDBRANCH  16  18
ENDBRANCH  13  16
ENDBRANCH  12  13
ENDBRANCH   1  12
TORSDOF 5
ENDMDL
MODEL 8
REMARK VINA RESULT:      -6.8      0.999      1.266
REMARK  Name = 
REMARK  6 active torsions:
REMARK  status: ('A' for Active; 'I' for Inactive)
REMARK    1  A    between atoms: C_1  and  S_2
REMARK    2  A    between atoms: S_2  and  C_5
REMARK    3  A    between atoms: C_5  and  C_6
REMARK    4  A    between atoms: C_6  and  C_7
REMARK    5  A    between atoms: C_7  and  O_8
REMARK    6  A    between atoms: O_8  and  C_9
REMARK                            x       y       z     vdW  Elec       q    Type
REMARK                         _______ _______ _______ _____ _____    ______ ____
ROOT
ATOM      1  O   UNL     1       4.669   4.448  18.131  0.00  0.00    +0.000 OA
ENDROOT
BRANCH   1   2
ATOM      2  C   UNL     1       3.213   4.571  18.158  0.00  0.00    +0.000 C 
ATOM      3  C   UNL     1       2.632   3.485  17.226  0.00  0.00    +0.000 C 
ATOM      4  C   UNL     1       2.688   2.081  17.869  0.00  0.00    +0.000 C 
ATOM      5  C   UNL     1       1.867   1.987  19.170  0.00  0.00    +0.000 C 
ATOM      6  C   UNL     1       2.042   3.197  20.009  0.00  0.00    +0.000 A 
ATOM      7  C   UNL     1       1.738   3.453  21.325  0.00  0.00    +0.000 A 
ATOM      8  N   UNL     1       2.104   4.751  21.546  0.00  0.00    +0.000 N 
ATOM      9  N   UNL     1       2.523   5.385  20.434  0.00  0.00    +0.000 NA
ATOM     10  C   UNL     1       2.597   4.405  19.527  0.00  0.00    +0.000 A 
ATOM     11  H   UNL     1       2.085   5.273  22.416  0.00  0.00    +0.000 HD
ENDBRANCH   1   2
BRANCH   1  12
ATOM     12  C   UNL     1       5.269   5.746  18.042  0.00  0.00    +0.000 C 
BRANCH  12  13
ATOM     13  C   UNL     1       6.746   5.758  17.689  0.00  0.00    +0.000 C 
ATOM     14  C   UNL     1       7.764   5.928  18.808  0.00  0.00    +0.000 C 
ATOM     15  C   UNL     1       7.557   7.036  17.817  0.00  0.00    +0.000 C 
BRANCH  13  16
ATOM     16  C   UNL     1       7.113   4.767  16.583  0.00  0.00    +0.000 C 
BRANCH  16  18
ATOM     17  C   UNL     1       7.290   4.913  13.800  0.00  0.00    +0.000 C 
ATOM     18  S   UNL     1       6.123   5.099  15.112  0.00  0.00    +0.000 S 
ATOM     19  O   UNL     1       5.704   6.487  15.121  0.00  0.00    +0.000 OA
ATOM     20  O   UNL     1       5.162   4.031  14.890  0.00  0.00    +0.000 OA
ENDBRANCH  16  18
ENDBRANCH  13  16
ENDBRANCH  12  13
ENDBRANCH   1  12
TORSDOF 5
ENDMDL
MODEL 9
REMARK VINA RESULT:      -6.7      1.910      3.155
REMARK  Name = 
REMARK  6 active torsions:
REMARK  status: ('A' for Active; 'I' for Inactive)
REMARK    1  A    between atoms: C_1  and  S_2
REMARK    2  A    between atoms: S_2  and  C_5
REMARK    3  A    between atoms: C_5  and  C_6
REMARK    4  A    between atoms: C_6  and  C_7
REMARK    5  A    between atoms: C_7  and  O_8
REMARK    6  A    between atoms: O_8  and  C_9
REMARK                            x       y       z     vdW  Elec       q    Type
REMARK                         _______ _______ _______ _____ _____    ______ ____
ROOT
ATOM      1  O   UNL     1       4.152   3.873  17.926  0.00  0.00    +0.000 OA
ENDROOT
BRANCH   1   2
ATOM      2  C   UNL     1       2.764   4.324  17.852  0.00  0.00    +0.000 C 
ATOM      3  C   UNL     1       1.858   3.076  17.933  0.00  0.00    +0.000 C 
ATOM      4  C   UNL     1       1.770   2.518  19.370  0.00  0.00    +0.000 C 
ATOM      5  C   UNL     1       1.167   3.527  20.367  0.00  0.00    +0.000 C 
ATOM      6  C   UNL     1       1.686   4.896  20.132  0.00  0.00    +0.000 A 
ATOM      7  C   UNL     1       1.648   6.036  20.899  0.00  0.00    +0.000 A 
ATOM      8  N   UNL     1       2.267   7.004  20.158  0.00  0.00    +0.000 N 
ATOM      9  N   UNL     1       2.605   6.595  18.921  0.00  0.00    +0.000 NA
ATOM     10  C   UNL     1       2.358   5.280  18.949  0.00  0.00    +0.000 A 
ATOM     11  H   UNL     1       2.481   7.960  20.421  0.00  0.00    +0.000 HD
ENDBRANCH   1   2
BRANCH   1  12
ATOM     12  C   UNL     1       4.580   3.394  16.646  0.00  0.00    +0.000 C 
BRANCH  12  13
ATOM     13  C   UNL     1       5.363   4.389  15.807  0.00  0.00    +0.000 C 
ATOM     14  C   UNL     1       5.105   4.447  14.308  0.00  0.00    +0.000 C 
ATOM     15  C   UNL     1       6.410   3.907  14.818  0.00  0.00    +0.000 C 
BRANCH  13  16
ATOM     16  C   UNL     1       5.586   5.730  16.509  0.00  0.00    +0.000 C 
BRANCH  16  18
ATOM     17  C   UNL     1       6.884   5.771  18.981  0.00  0.00    +0.000 C 
ATOM     18  S   UNL     1       7.230   5.768  17.250  0.00  0.00    +0.000 S 
ATOM     19  O   UNL     1       7.866   7.033  16.936  0.00  0.00    +0.000 OA
ATOM     20  O   UNL     1       7.922   4.510  17.025  0.00  0.00    +0.000 OA
ENDBRANCH  16  18
ENDBRANCH  13  16
ENDBRANCH  12  13
ENDBRANCH   1  12
TORSDOF 5
ENDMDL
