MODEL 1
REMARK VINA RESULT:      -7.2      0.000      0.000
REMARK  Name = 
REMARK  10 active torsions:
REMARK  status: ('A' for Active; 'I' for Inactive)
REMARK    1  A    between atoms: C_1  and  C_2
REMARK    2  A    between atoms: C_2  and  N_3
REMARK    3  A    between atoms: C_2  and  C_6
REMARK    4  A    between atoms: N_8  and  C_9
REMARK    5  A    between atoms: C_9  and  O_10
REMARK    6  A    between atoms: O_10  and  C_11
REMARK    7  A    between atoms: C_11  and  C_12
REMARK    8  A    between atoms: C_11  and  C_14
REMARK    9  A    between atoms: C_12  and  O_13
REMARK   10  A    between atoms: C_14  and  O_15
REMARK                            x       y       z     vdW  Elec       q    Type
REMARK                         _______ _______ _______ _____ _____    ______ ____
ROOT
ATOM      1  C   UNL     1       6.036   4.272  16.263  0.00  0.00    +0.000 A 
ATOM      2  C   UNL     1       4.709   4.386  16.440  0.00  0.00    +0.000 A 
ATOM      3  N   UNL     1       4.126   4.491  17.688  0.00  0.00    +0.000 N 
ATOM      4  C   UNL     1       4.879   4.418  18.848  0.00  0.00    +0.000 A 
ATOM      5  O   UNL     1       4.426   4.581  19.978  0.00  0.00    +0.000 OA
ATOM      6  N   UNL     1       6.211   4.177  18.674  0.00  0.00    +0.000 N 
ATOM      7  C   UNL     1       6.875   4.291  17.488  0.00  0.00    +0.000 A 
ATOM      8  O   UNL     1       8.092   4.427  17.439  0.00  0.00    +0.000 OA
ATOM      9  H   UNL     1       6.778   4.218  19.509  0.00  0.00    +0.000 HD
ENDROOT
BRANCH   1  11
ATOM     10  C   UNL     1       5.817   3.995  13.759  0.00  0.00    +0.000 C 
ATOM     11  C   UNL     1       6.764   4.227  14.940  0.00  0.00    +0.000 C 
BRANCH  11  12
ATOM     12  N   UNL     1       7.471   5.501  14.701  0.00  0.00    +0.000 NA
ATOM     13  N   UNL     1       7.948   5.656  13.564  0.00  0.00    +0.000 NA
ATOM     14  N   UNL     1       8.393   5.797  12.524  0.00  0.00    +0.000 NA
ENDBRANCH  11  12
ENDBRANCH   1  11
BRANCH   3  15
ATOM     15  C   UNL     1       2.725   4.864  17.801  0.00  0.00    +0.000 C 
BRANCH  15  16
ATOM     16  O   UNL     1       1.841   3.824  17.381  0.00  0.00    +0.000 OA
BRANCH  16  17
ATOM     17  C   UNL     1       1.209   3.072  18.439  0.00  0.00    +0.000 C 
BRANCH  17  18
ATOM     18  C   UNL     1       1.978   1.802  18.832  0.00  0.00    +0.000 C 
BRANCH  18  19
ATOM     19  O   UNL     1       2.921   2.063  19.870  0.00  0.00    +0.000 OA
ATOM     20  H   UNL     1       2.737   2.955  20.212  0.00  0.00    +0.000 HD
ENDBRANCH  18  19
ENDBRANCH  17  18
BRANCH  17  21
ATOM     21  C   UNL     1       1.111   4.016  19.649  0.00  0.00    +0.000 C 
BRANCH  21  22
ATOM     22  O   UNL     1       0.646   3.301  20.796  0.00  0.00    +0.000 OA
ATOM     23  H   UNL     1       0.433   2.406  20.472  0.00  0.00    +0.000 HD
ENDBRANCH  21  22
ENDBRANCH  17  21
ENDBRANCH  16  17
ENDBRANCH  15  16
ENDBRANCH   3  15
TORSDOF 9
ENDMDL
MODEL 2
REMARK VINA RESULT:      -6.8      0.722      1.498
REMARK  Name = 
REMARK  10 active torsions:
REMARK  status: ('A' for Active; 'I' for Inactive)
REMARK    1  A    between atoms: C_1  and  C_2
REMARK    2  A    between atoms: C_2  and  N_3
REMARK    3  A    between atoms: C_2  and  C_6
REMARK    4  A    between atoms: N_8  and  C_9
REMARK    5  A    between atoms: C_9  and  O_10
REMARK    6  A    between atoms: O_10  and  C_11
REMARK    7  A    between atoms: C_11  and  C_12
REMARK    8  A    between atoms: C_11  and  C_14
REMARK    9  A    between atoms: C_12  and  O_13
REMARK   10  A    between atoms: C_14  and  O_15
REMARK                            x       y       z     vdW  Elec       q    Type
REMARK                         _______ _______ _______ _____ _____    ______ ____
ROOT
ATOM      1  C   UNL     1       6.118   4.431  16.336  0.00  0.00    +0.000 A 
ATOM      2  C   UNL     1       4.814   4.664  16.561  0.00  0.00    +0.000 A 
ATOM      3  N   UNL     1       4.291   4.833  17.828  0.00  0.00    +0.000 N 
ATOM      4  C   UNL     1       5.078   4.707  18.961  0.00  0.00    +0.000 A 
ATOM      5  O   UNL     1       4.685   4.921  20.104  0.00  0.00    +0.000 OA
ATOM      6  N   UNL     1       6.377   4.347  18.741  0.00  0.00    +0.000 N 
ATOM      7  C   UNL     1       7.002   4.388  17.529  0.00  0.00    +0.000 A 
ATOM      8  O   UNL     1       8.223   4.416  17.433  0.00  0.00    +0.000 OA
ATOM      9  H   UNL     1       6.977   4.346  19.553  0.00  0.00    +0.000 HD
ENDROOT
BRANCH   1  11
ATOM     10  C   UNL     1       5.782   4.114  13.850  0.00  0.00    +0.000 C 
ATOM     11  C   UNL     1       6.788   4.307  14.988  0.00  0.00    +0.000 C 
BRANCH  11  12
ATOM     12  N   UNL     1       7.568   5.525  14.690  0.00  0.00    +0.000 NA
ATOM     13  N   UNL     1       7.973   5.643  13.521  0.00  0.00    +0.000 NA
ATOM     14  N   UNL     1       8.350   5.749  12.451  0.00  0.00    +0.000 NA
ENDBRANCH  11  12
ENDBRANCH   1  11
BRANCH   3  15
ATOM     15  C   UNL     1       2.934   5.330  17.987  0.00  0.00    +0.000 C 
BRANCH  15  16
ATOM     16  O   UNL     1       1.949   4.305  17.843  0.00  0.00    +0.000 OA
BRANCH  16  17
ATOM     17  C   UNL     1       2.125   3.144  18.683  0.00  0.00    +0.000 C 
BRANCH  17  18
ATOM     18  C   UNL     1       0.874   2.781  19.497  0.00  0.00    +0.000 C 
BRANCH  18  19
ATOM     19  O   UNL     1       0.456   3.865  20.324  0.00  0.00    +0.000 OA
ATOM     20  H   UNL     1       0.836   4.679  19.949  0.00  0.00    +0.000 HD
ENDBRANCH  18  19
ENDBRANCH  17  18
BRANCH  17  21
ATOM     21  C   UNL     1       2.494   1.979  17.749  0.00  0.00    +0.000 C 
BRANCH  21  22
ATOM     22  O   UNL     1       3.789   1.474  18.078  0.00  0.00    +0.000 OA
ATOM     23  H   UNL     1       3.960   0.762  17.434  0.00  0.00    +0.000 HD
ENDBRANCH  21  22
ENDBRANCH  17  21
ENDBRANCH  16  17
ENDBRANCH  15  16
ENDBRANCH   3  15
TORSDOF 9
ENDMDL
MODEL 3
REMARK VINA RESULT:      -6.7      3.031      6.192
REMARK  Name = 
REMARK  10 active torsions:
REMARK  status: ('A' for Active; 'I' for Inactive)
REMARK    1  A    between atoms: C_1  and  C_2
REMARK    2  A    between atoms: C_2  and  N_3
REMARK    3  A    between atoms: C_2  and  C_6
REMARK    4  A    between atoms: N_8  and  C_9
REMARK    5  A    between atoms: C_9  and  O_10
REMARK    6  A    between atoms: O_10  and  C_11
REMARK    7  A    between atoms: C_11  and  C_12
REMARK    8  A    between atoms: C_11  and  C_14
REMARK    9  A    between atoms: C_12  and  O_13
REMARK   10  A    between atoms: C_14  and  O_15
REMARK                            x       y       z     vdW  Elec       q    Type
REMARK                         _______ _______ _______ _____ _____    ______ ____
ROOT
ATOM      1  C   UNL     1       3.033   4.389  19.177  0.00  0.00    +0.000 A 
ATOM      2  C   UNL     1       3.729   4.800  18.104  0.00  0.00    +0.000 A 
ATOM      3  N   UNL     1       3.742   6.114  17.679  0.00  0.00    +0.000 N 
ATOM      4  C   UNL     1       2.978   7.087  18.303  0.00  0.00    +0.000 A 
ATOM      5  O   UNL     1       3.010   8.281  18.017  0.00  0.00    +0.000 OA
ATOM      6  N   UNL     1       2.175   6.647  19.315  0.00  0.00    +0.000 N 
ATOM      7  C   UNL     1       2.283   5.431  19.923  0.00  0.00    +0.000 A 
ATOM      8  O   UNL     1       1.810   5.220  21.035  0.00  0.00    +0.000 OA
ATOM      9  H   UNL     1       1.689   7.365  19.834  0.00  0.00    +0.000 HD
ENDROOT
BRANCH   1  11
ATOM     10  C   UNL     1       1.908   2.125  19.160  0.00  0.00    +0.000 C 
ATOM     11  C   UNL     1       3.018   2.994  19.757  0.00  0.00    +0.000 C 
BRANCH  11  12
ATOM     12  N   UNL     1       4.304   2.317  19.494  0.00  0.00    +0.000 NA
ATOM     13  N   UNL     1       4.879   1.833  20.484  0.00  0.00    +0.000 NA
ATOM     14  N   UNL     1       5.411   1.394  21.392  0.00  0.00    +0.000 NA
ENDBRANCH  11  12
ENDBRANCH   1  11
BRANCH   3  15
ATOM     15  C   UNL     1       4.706   6.538  16.675  0.00  0.00    +0.000 C 
BRANCH  15  16
ATOM     16  O   UNL     1       5.920   7.026  17.248  0.00  0.00    +0.000 OA
BRANCH  16  17
ATOM     17  C   UNL     1       7.104   6.247  16.967  0.00  0.00    +0.000 C 
BRANCH  17  18
ATOM     18  C   UNL     1       7.584   5.409  18.161  0.00  0.00    +0.000 C 
BRANCH  18  19
ATOM     19  O   UNL     1       7.889   4.072  17.771  0.00  0.00    +0.000 OA
ATOM     20  H   UNL     1       7.237   3.810  17.099  0.00  0.00    +0.000 HD
ENDBRANCH  18  19
ENDBRANCH  17  18
BRANCH  17  21
ATOM     21  C   UNL     1       6.751   5.322  15.790  0.00  0.00    +0.000 C 
BRANCH  21  22
ATOM     22  O   UNL     1       7.820   5.300  14.842  0.00  0.00    +0.000 OA
ATOM     23  H   UNL     1       8.258   4.437  14.968  0.00  0.00    +0.000 HD
ENDBRANCH  21  22
ENDBRANCH  17  21
ENDBRANCH  16  17
ENDBRANCH  15  16
ENDBRANCH   3  15
TORSDOF 9
ENDMDL
MODEL 4
REMARK VINA RESULT:      -6.7      0.830      1.229
REMARK  Name = 
REMARK  10 active torsions:
REMARK  status: ('A' for Active; 'I' for Inactive)
REMARK    1  A    between atoms: C_1  and  C_2
REMARK    2  A    between atoms: C_2  and  N_3
REMARK    3  A    between atoms: C_2  and  C_6
REMARK    4  A    between atoms: N_8  and  C_9
REMARK    5  A    between atoms: C_9  and  O_10
REMARK    6  A    between atoms: O_10  and  C_11
REMARK    7  A    between atoms: C_11  and  C_12
REMARK    8  A    between atoms: C_11  and  C_14
REMARK    9  A    between atoms: C_12  and  O_13
REMARK   10  A    between atoms: C_14  and  O_15
REMARK                            x       y       z     vdW  Elec       q    Type
REMARK                         _______ _______ _______ _____ _____    ______ ____
ROOT
ATOM      1  C   UNL     1       6.064   4.390  16.372  0.00  0.00    +0.000 A 
ATOM      2  C   UNL     1       4.758   4.618  16.585  0.00  0.00    +0.000 A 
ATOM      3  N   UNL     1       4.225   4.796  17.847  0.00  0.00    +0.000 N 
ATOM      4  C   UNL     1       5.005   4.685  18.987  0.00  0.00    +0.000 A 
ATOM      5  O   UNL     1       4.602   4.909  20.125  0.00  0.00    +0.000 OA
ATOM      6  N   UNL     1       6.307   4.331  18.779  0.00  0.00    +0.000 N 
ATOM      7  C   UNL     1       6.940   4.364  17.571  0.00  0.00    +0.000 A 
ATOM      8  O   UNL     1       8.162   4.398  17.484  0.00  0.00    +0.000 OA
ATOM      9  H   UNL     1       6.901   4.341  19.596  0.00  0.00    +0.000 HD
ENDROOT
BRANCH   1  11
ATOM     10  C   UNL     1       5.748   4.038  13.888  0.00  0.00    +0.000 C 
ATOM     11  C   UNL     1       6.745   4.257  15.030  0.00  0.00    +0.000 C 
BRANCH  11  12
ATOM     12  N   UNL     1       7.513   5.480  14.722  0.00  0.00    +0.000 NA
ATOM     13  N   UNL     1       7.921   5.589  13.553  0.00  0.00    +0.000 NA
ATOM     14  N   UNL     1       8.302   5.687  12.484  0.00  0.00    +0.000 NA
ENDBRANCH  11  12
ENDBRANCH   1  11
BRANCH   3  15
ATOM     15  C   UNL     1       2.863   5.287  17.993  0.00  0.00    +0.000 C 
BRANCH  15  16
ATOM     16  O   UNL     1       1.902   4.233  18.078  0.00  0.00    +0.000 OA
BRANCH  16  17
ATOM     17  C   UNL     1       2.049   3.340  19.203  0.00  0.00    +0.000 C 
BRANCH  17  18
ATOM     18  C   UNL     1       1.208   3.747  20.422  0.00  0.00    +0.000 C 
BRANCH  18  19
ATOM     19  O   UNL     1       2.019   3.910  21.584  0.00  0.00    +0.000 OA
ATOM     20  H   UNL     1       1.816   4.784  21.960  0.00  0.00    +0.000 HD
ENDBRANCH  18  19
ENDBRANCH  17  18
BRANCH  17  21
ATOM     21  C   UNL     1       1.618   1.947  18.715  0.00  0.00    +0.000 C 
BRANCH  21  22
ATOM     22  O   UNL     1       0.230   1.951  18.375  0.00  0.00    +0.000 OA
ATOM     23  H   UNL     1      -0.183   2.591  18.984  0.00  0.00    +0.000 HD
ENDBRANCH  21  22
ENDBRANCH  17  21
ENDBRANCH  16  17
ENDBRANCH  15  16
ENDBRANCH   3  15
TORSDOF 9
ENDMDL
MODEL 5
REMARK VINA RESULT:      -6.6      1.852      2.248
REMARK  Name = 
REMARK  10 active torsions:
REMARK  status: ('A' for Active; 'I' for Inactive)
REMARK    1  A    between atoms: C_1  and  C_2
REMARK    2  A    between atoms: C_2  and  N_3
REMARK    3  A    between atoms: C_2  and  C_6
REMARK    4  A    between atoms: N_8  and  C_9
REMARK    5  A    between atoms: C_9  and  O_10
REMARK    6  A    between atoms: O_10  and  C_11
REMARK    7  A    between atoms: C_11  and  C_12
REMARK    8  A    between atoms: C_11  and  C_14
REMARK    9  A    between atoms: C_12  and  O_13
REMARK   10  A    between atoms: C_14  and  O_15
REMARK                            x       y       z     vdW  Elec       q    Type
REMARK                         _______ _______ _______ _____ _____    ______ ____
ROOT
ATOM      1  C   UNL     1       5.411   4.340  17.063  0.00  0.00    +0.000 A 
ATOM      2  C   UNL     1       4.150   3.884  17.141  0.00  0.00    +0.000 A 
ATOM      3  N   UNL     1       3.655   3.238  18.257  0.00  0.00    +0.000 N 
ATOM      4  C   UNL     1       4.459   2.961  19.351  0.00  0.00    +0.000 A 
ATOM      5  O   UNL     1       4.055   2.460  20.397  0.00  0.00    +0.000 OA
ATOM      6  N   UNL     1       5.772   3.312  19.223  0.00  0.00    +0.000 N 
ATOM      7  C   UNL     1       6.266   4.143  18.261  0.00  0.00    +0.000 A 
ATOM      8  O   UNL     1       7.342   4.715  18.392  0.00  0.00    +0.000 OA
ATOM      9  H   UNL     1       6.340   3.199  20.051  0.00  0.00    +0.000 HD
ENDROOT
BRANCH   1  11
ATOM     10  C   UNL     1       5.523   4.628  14.553  0.00  0.00    +0.000 C 
ATOM     11  C   UNL     1       6.014   5.119  15.917  0.00  0.00    +0.000 C 
BRANCH  11  12
ATOM     12  N   UNL     1       5.662   6.549  16.029  0.00  0.00    +0.000 NA
ATOM     13  N   UNL     1       6.501   7.276  16.587  0.00  0.00    +0.000 NA
ATOM     14  N   UNL     1       7.266   7.944  17.104  0.00  0.00    +0.000 NA
ENDBRANCH  11  12
ENDBRANCH   1  11
BRANCH   3  15
ATOM     15  C   UNL     1       2.226   2.998  18.377  0.00  0.00    +0.000 C 
BRANCH  15  16
ATOM     16  O   UNL     1       1.499   4.170  18.752  0.00  0.00    +0.000 OA
BRANCH  16  17
ATOM     17  C   UNL     1       0.893   4.140  20.062  0.00  0.00    +0.000 C 
BRANCH  17  18
ATOM     18  C   UNL     1       1.195   2.856  20.848  0.00  0.00    +0.000 C 
BRANCH  18  19
ATOM     19  O   UNL     1       1.870   3.140  22.072  0.00  0.00    +0.000 OA
ATOM     20  H   UNL     1       2.637   2.545  22.125  0.00  0.00    +0.000 HD
ENDBRANCH  18  19
ENDBRANCH  17  18
BRANCH  17  21
ATOM     21  C   UNL     1       1.439   5.358  20.825  0.00  0.00    +0.000 C 
BRANCH  21  22
ATOM     22  O   UNL     1       2.868   5.357  20.799  0.00  0.00    +0.000 OA
ATOM     23  H   UNL     1       3.142   5.433  21.732  0.00  0.00    +0.000 HD
ENDBRANCH  21  22
ENDBRANCH  17  21
ENDBRANCH  16  17
ENDBRANCH  15  16
ENDBRANCH   3  15
TORSDOF 9
ENDMDL
MODEL 6
REMARK VINA RESULT:      -6.6      2.012      2.634
REMARK  Name = 
REMARK  10 active torsions:
REMARK  status: ('A' for Active; 'I' for Inactive)
REMARK    1  A    between atoms: C_1  and  C_2
REMARK    2  A    between atoms: C_2  and  N_3
REMARK    3  A    between atoms: C_2  and  C_6
REMARK    4  A    between atoms: N_8  and  C_9
REMARK    5  A    between atoms: C_9  and  O_10
REMARK    6  A    between atoms: O_10  and  C_11
REMARK    7  A    between atoms: C_11  and  C_12
REMARK    8  A    between atoms: C_11  and  C_14
REMARK    9  A    between atoms: C_12  and  O_13
REMARK   10  A    between atoms: C_14  and  O_15
REMARK                            x       y       z     vdW  Elec       q    Type
REMARK                         _______ _______ _______ _____ _____    ______ ____
ROOT
ATOM      1  C   UNL     1       5.067   4.666  16.299  0.00  0.00    +0.000 A 
ATOM      2  C   UNL     1       4.156   4.034  17.058  0.00  0.00    +0.000 A 
ATOM      3  N   UNL     1       3.200   4.706  17.795  0.00  0.00    +0.000 N 
ATOM      4  C   UNL     1       3.164   6.090  17.846  0.00  0.00    +0.000 A 
ATOM      5  O   UNL     1       2.293   6.738  18.420  0.00  0.00    +0.000 OA
ATOM      6  N   UNL     1       4.164   6.732  17.176  0.00  0.00    +0.000 N 
ATOM      7  C   UNL     1       4.988   6.148  16.259  0.00  0.00    +0.000 A 
ATOM      8  O   UNL     1       5.606   6.809  15.432  0.00  0.00    +0.000 OA
ATOM      9  H   UNL     1       4.089   7.738  17.132  0.00  0.00    +0.000 HD
ENDROOT
BRANCH   1  11
ATOM     10  C   UNL     1       5.816   4.251  13.920  0.00  0.00    +0.000 C 
ATOM     11  C   UNL     1       6.098   4.015  15.406  0.00  0.00    +0.000 C 
BRANCH  11  12
ATOM     12  N   UNL     1       7.441   4.556  15.697  0.00  0.00    +0.000 NA
ATOM     13  N   UNL     1       7.821   4.469  16.877  0.00  0.00    +0.000 NA
ATOM     14  N   UNL     1       8.169   4.397  17.960  0.00  0.00    +0.000 NA
ENDBRANCH  11  12
ENDBRANCH   1  11
BRANCH   3  15
ATOM     15  C   UNL     1       2.095   3.968  18.386  0.00  0.00    +0.000 C 
BRANCH  15  16
ATOM     16  O   UNL     1       2.422   2.603  18.653  0.00  0.00    +0.000 OA
BRANCH  16  17
ATOM     17  C   UNL     1       2.897   2.320  19.987  0.00  0.00    +0.000 C 
BRANCH  17  18
ATOM     18  C   UNL     1       4.421   2.439  20.134  0.00  0.00    +0.000 C 
BRANCH  18  19
ATOM     19  O   UNL     1       4.900   1.670  21.236  0.00  0.00    +0.000 OA
ATOM     20  H   UNL     1       4.238   1.737  21.946  0.00  0.00    +0.000 HD
ENDBRANCH  18  19
ENDBRANCH  17  18
BRANCH  17  21
ATOM     21  C   UNL     1       2.204   3.327  20.921  0.00  0.00    +0.000 C 
BRANCH  21  22
ATOM     22  O   UNL     1       2.427   2.968  22.286  0.00  0.00    +0.000 OA
ATOM     23  H   UNL     1       3.066   2.232  22.257  0.00  0.00    +0.000 HD
ENDBRANCH  21  22
ENDBRANCH  17  21
ENDBRANCH  16  17
ENDBRANCH  15  16
ENDBRANCH   3  15
TORSDOF 9
ENDMDL
MODEL 7
REMARK VINA RESULT:      -6.6      3.060      5.981
REMARK  Name = 
REMARK  10 active torsions:
REMARK  status: ('A' for Active; 'I' for Inactive)
REMARK    1  A    between atoms: C_1  and  C_2
REMARK    2  A    between atoms: C_2  and  N_3
REMARK    3  A    between atoms: C_2  and  C_6
REMARK    4  A    between atoms: N_8  and  C_9
REMARK    5  A    between atoms: C_9  and  O_10
REMARK    6  A    between atoms: O_10  and  C_11
REMARK    7  A    between atoms: C_11  and  C_12
REMARK    8  A    between atoms: C_11  and  C_14
REMARK    9  A    between atoms: C_12  and  O_13
REMARK   10  A    between atoms: C_14  and  O_15
REMARK                            x       y       z     vdW  Elec       q    Type
REMARK                         _______ _______ _______ _____ _____    ______ ____
ROOT
ATOM      1  C   UNL     1       3.005   4.455  18.835  0.00  0.00    +0.000 A 
ATOM      2  C   UNL     1       3.773   4.874  17.815  0.00  0.00    +0.000 A 
ATOM      3  N   UNL     1       3.863   6.201  17.442  0.00  0.00    +0.000 N 
ATOM      4  C   UNL     1       3.109   7.183  18.063  0.00  0.00    +0.000 A 
ATOM      5  O   UNL     1       3.205   8.384  17.825  0.00  0.00    +0.000 OA
ATOM      6  N   UNL     1       2.235   6.742  19.015  0.00  0.00    +0.000 N 
ATOM      7  C   UNL     1       2.260   5.501  19.581  0.00  0.00    +0.000 A 
ATOM      8  O   UNL     1       1.721   5.271  20.657  0.00  0.00    +0.000 OA
ATOM      9  H   UNL     1       1.752   7.461  19.535  0.00  0.00    +0.000 HD
ENDROOT
BRANCH   1  11
ATOM     10  C   UNL     1       1.805   2.237  18.656  0.00  0.00    +0.000 C 
ATOM     11  C   UNL     1       2.901   3.042  19.359  0.00  0.00    +0.000 C 
BRANCH  11  12
ATOM     12  N   UNL     1       4.178   2.327  19.158  0.00  0.00    +0.000 NA
ATOM     13  N   UNL     1       4.756   1.941  20.188  0.00  0.00    +0.000 NA
ATOM     14  N   UNL     1       5.292   1.593  21.132  0.00  0.00    +0.000 NA
ENDBRANCH  11  12
ENDBRANCH   1  11
BRANCH   3  15
ATOM     15  C   UNL     1       4.896   6.618  16.506  0.00  0.00    +0.000 C 
BRANCH  15  16
ATOM     16  O   UNL     1       5.875   5.604  16.276  0.00  0.00    +0.000 OA
BRANCH  16  17
ATOM     17  C   UNL     1       7.172   5.838  16.865  0.00  0.00    +0.000 C 
BRANCH  17  18
ATOM     18  C   UNL     1       7.170   6.941  17.934  0.00  0.00    +0.000 C 
BRANCH  18  19
ATOM     19  O   UNL     1       8.234   6.766  18.867  0.00  0.00    +0.000 OA
ATOM     20  H   UNL     1       8.578   7.649  19.085  0.00  0.00    +0.000 HD
ENDBRANCH  18  19
ENDBRANCH  17  18
BRANCH  17  21
ATOM     21  C   UNL     1       7.615   4.506  17.493  0.00  0.00    +0.000 C 
BRANCH  21  22
ATOM     22  O   UNL     1       6.723   4.136  18.546  0.00  0.00    +0.000 OA
ATOM     23  H   UNL     1       6.620   4.938  19.090  0.00  0.00    +0.000 HD
ENDBRANCH  21  22
ENDBRANCH  17  21
ENDBRANCH  16  17
ENDBRANCH  15  16
ENDBRANCH   3  15
TORSDOF 9
ENDMDL
MODEL 8
REMARK VINA RESULT:      -6.6      1.961      2.893
REMARK  Name = 
REMARK  10 active torsions:
REMARK  status: ('A' for Active; 'I' for Inactive)
REMARK    1  A    between atoms: C_1  and  C_2
REMARK    2  A    between atoms: C_2  and  N_3
REMARK    3  A    between atoms: C_2  and  C_6
REMARK    4  A    between atoms: N_8  and  C_9
REMARK    5  A    between atoms: C_9  and  O_10
REMARK    6  A    between atoms: O_10  and  C_11
REMARK    7  A    between atoms: C_11  and  C_12
REMARK    8  A    between atoms: C_11  and  C_14
REMARK    9  A    between atoms: C_12  and  O_13
REMARK   10  A    between atoms: C_14  and  O_15
REMARK                            x       y       z     vdW  Elec       q    Type
REMARK                         _______ _______ _______ _____ _____    ______ ____
ROOT
ATOM      1  C   UNL     1       5.148   4.602  16.324  0.00  0.00    +0.000 A 
ATOM      2  C   UNL     1       4.173   3.947  16.975  0.00  0.00    +0.000 A 
ATOM      3  N   UNL     1       3.173   4.595  17.675  0.00  0.00    +0.000 N 
ATOM      4  C   UNL     1       3.153   5.974  17.802  0.00  0.00    +0.000 A 
ATOM      5  O   UNL     1       2.251   6.606  18.345  0.00  0.00    +0.000 OA
ATOM      6  N   UNL     1       4.211   6.634  17.247  0.00  0.00    +0.000 N 
ATOM      7  C   UNL     1       5.094   6.086  16.363  0.00  0.00    +0.000 A 
ATOM      8  O   UNL     1       5.783   6.780  15.624  0.00  0.00    +0.000 OA
ATOM      9  H   UNL     1       4.154   7.642  17.254  0.00  0.00    +0.000 HD
ENDROOT
BRANCH   1  11
ATOM     10  C   UNL     1       6.050   4.275  13.985  0.00  0.00    +0.000 C 
ATOM     11  C   UNL     1       6.235   3.983  15.477  0.00  0.00    +0.000 C 
BRANCH  11  12
ATOM     12  N   UNL     1       7.556   4.509  15.874  0.00  0.00    +0.000 NA
ATOM     13  N   UNL     1       7.818   4.467  17.088  0.00  0.00    +0.000 NA
ATOM     14  N   UNL     1       8.058   4.436  18.202  0.00  0.00    +0.000 NA
ENDBRANCH  11  12
ENDBRANCH   1  11
BRANCH   3  15
ATOM     15  C   UNL     1       2.015   3.846  18.139  0.00  0.00    +0.000 C 
BRANCH  15  16
ATOM     16  O   UNL     1       2.362   2.803  19.051  0.00  0.00    +0.000 OA
BRANCH  16  17
ATOM     17  C   UNL     1       3.058   3.220  20.246  0.00  0.00    +0.000 C 
BRANCH  17  18
ATOM     18  C   UNL     1       2.193   3.153  21.514  0.00  0.00    +0.000 C 
BRANCH  18  19
ATOM     19  O   UNL     1       0.842   2.817  21.207  0.00  0.00    +0.000 OA
ATOM     20  H   UNL     1       0.738   1.862  21.361  0.00  0.00    +0.000 HD
ENDBRANCH  18  19
ENDBRANCH  17  18
BRANCH  17  21
ATOM     21  C   UNL     1       4.271   2.286  20.394  0.00  0.00    +0.000 C 
BRANCH  21  22
ATOM     22  O   UNL     1       4.394   1.451  19.241  0.00  0.00    +0.000 OA
ATOM     23  H   UNL     1       3.508   1.440  18.835  0.00  0.00    +0.000 HD
ENDBRANCH  21  22
ENDBRANCH  17  21
ENDBRANCH  16  17
ENDBRANCH  15  16
ENDBRANCH   3  15
TORSDOF 9
ENDMDL
MODEL 9
REMARK VINA RESULT:      -6.6      1.563      2.126
REMARK  Name = 
REMARK  10 active torsions:
REMARK  status: ('A' for Active; 'I' for Inactive)
REMARK    1  A    between atoms: C_1  and  C_2
REMARK    2  A    between atoms: C_2  and  N_3
REMARK    3  A    between atoms: C_2  and  C_6
REMARK    4  A    between atoms: N_8  and  C_9
REMARK    5  A    between atoms: C_9  and  O_10
REMARK    6  A    between atoms: O_10  and  C_11
REMARK    7  A    between atoms: C_11  and  C_12
REMARK    8  A    between atoms: C_11  and  C_14
REMARK    9  A    between atoms: C_12  and  O_13
REMARK   10  A    between atoms: C_14  and  O_15
REMARK                            x       y       z     vdW  Elec       q    Type
REMARK                         _______ _______ _______ _____ _____    ______ ____
ROOT
ATOM      1  C   UNL     1       5.817   4.786  16.474  0.00  0.00    +0.000 A 
ATOM      2  C   UNL     1       5.557   4.038  17.559  0.00  0.00    +0.000 A 
ATOM      3  N   UNL     1       4.712   4.452  18.570  0.00  0.00    +0.000 N 
ATOM      4  C   UNL     1       4.125   5.707  18.556  0.00  0.00    +0.000 A 
ATOM      5  O   UNL     1       3.308   6.098  19.386  0.00  0.00    +0.000 OA
ATOM      6  N   UNL     1       4.486   6.517  17.518  0.00  0.00    +0.000 N 
ATOM      7  C   UNL     1       5.123   6.096  16.387  0.00  0.00    +0.000 A 
ATOM      8  O   UNL     1       5.099   6.751  15.351  0.00  0.00    +0.000 OA
ATOM      9  H   UNL     1       3.990   7.394  17.451  0.00  0.00    +0.000 HD
ENDROOT
BRANCH   1  11
ATOM     10  C   UNL     1       5.832   4.153  14.026  0.00  0.00    +0.000 C 
ATOM     11  C   UNL     1       6.665   4.385  15.290  0.00  0.00    +0.000 C 
BRANCH  11  12
ATOM     12  N   UNL     1       7.651   5.442  14.985  0.00  0.00    +0.000 NA
ATOM     13  N   UNL     1       7.970   5.564  13.790  0.00  0.00    +0.000 NA
ATOM     14  N   UNL     1       8.269   5.672  12.696  0.00  0.00    +0.000 NA
ENDBRANCH  11  12
ENDBRANCH   1  11
BRANCH   3  15
ATOM     15  C   UNL     1       4.277   3.502  19.582  0.00  0.00    +0.000 C 
BRANCH  15  16
ATOM     16  O   UNL     1       3.282   2.598  19.098  0.00  0.00    +0.000 OA
BRANCH  16  17
ATOM     17  C   UNL     1       2.043   2.574  19.839  0.00  0.00    +0.000 C 
BRANCH  17  18
ATOM     18  C   UNL     1       2.134   3.260  21.210  0.00  0.00    +0.000 C 
BRANCH  18  19
ATOM     19  O   UNL     1       1.544   2.461  22.234  0.00  0.00    +0.000 OA
ATOM     20  H   UNL     1       2.096   2.554  23.029  0.00  0.00    +0.000 HD
ENDBRANCH  18  19
ENDBRANCH  17  18
BRANCH  17  21
ATOM     21  C   UNL     1       0.998   3.291  18.967  0.00  0.00    +0.000 C 
BRANCH  21  22
ATOM     22  O   UNL     1       1.456   3.374  17.616  0.00  0.00    +0.000 OA
ATOM     23  H   UNL     1       2.126   2.671  17.528  0.00  0.00    +0.000 HD
ENDBRANCH  21  22
ENDBRANCH  17  21
ENDBRANCH  16  17
ENDBRANCH  15  16
ENDBRANCH   3  15
TORSDOF 9
ENDMDL
