MODEL 1
REMARK VINA RESULT:      -6.9      0.000      0.000
REMARK  Name = 
REMARK  6 active torsions:
REMARK  status: ('A' for Active; 'I' for Inactive)
REMARK    1  A    between atoms: C_1  and  C_2
REMARK    2  A    between atoms: C_2  and  C_3
REMARK    3  A    between atoms: C_2  and  S_4
REMARK    4  A    between atoms: S_4  and  C_5
REMARK    5  A    between atoms: C_8  and  C_9
REMARK    6  A    between atoms: N_11  and  C_12
REMARK                            x       y       z     vdW  Elec       q    Type
REMARK                         _______ _______ _______ _____ _____    ______ ____
ROOT
ATOM      1  C   UNL     1       3.956   5.306  17.807  0.00  0.00    +0.000 A 
ATOM      2  C   UNL     1       3.961   6.589  17.256  0.00  0.00    +0.000 A 
ATOM      3  C   UNL     1       3.188   7.603  17.828  0.00  0.00    +0.000 A 
ATOM      4  C   UNL     1       2.416   7.354  18.973  0.00  0.00    +0.000 A 
ATOM      5  C   UNL     1       2.415   6.079  19.539  0.00  0.00    +0.000 A 
ATOM      6  C   UNL     1       3.182   5.069  18.952  0.00  0.00    +0.000 A 
ATOM      7  F   UNL     1       3.150   3.850  19.509  0.00  0.00    +0.000 F 
ENDROOT
BRANCH   4   8
ATOM      8  C   UNL     1       1.569   8.461  19.490  0.00  0.00    +0.000 C 
ATOM      9  O   UNL     1       1.129   9.259  18.665  0.00  0.00    +0.000 OA
ATOM     10  N   UNL     1       1.402   8.531  20.862  0.00  0.00    +0.000 N 
ATOM     11  H   UNL     1       1.968   7.918  21.436  0.00  0.00    +0.000 HD
BRANCH  10  12
ATOM     12  C   UNL     1       0.671   9.540  21.542  0.00  0.00    +0.000 A 
ATOM     13  C   UNL     1      -0.237   9.284  22.570  0.00  0.00    +0.000 A 
ATOM     14  C   UNL     1      -0.959  10.331  23.145  0.00  0.00    +0.000 A 
ATOM     15  C   UNL     1      -0.734  11.610  22.674  0.00  0.00    +0.000 A 
ATOM     16 CL   UNL     1      -1.614  12.944  23.296  0.00  0.00    +0.000 Cl
ATOM     17  N   UNL     1       0.157  11.917  21.711  0.00  0.00    +0.000 NA
ATOM     18  C   UNL     1       0.840  10.877  21.175  0.00  0.00    +0.000 A 
ENDBRANCH  10  12
ENDBRANCH   4   8
BRANCH   1  19
ATOM     19  S   UNL     1       4.949   4.044  17.023  0.00  0.00    +0.000 S 
BRANCH  19  21
ATOM     20  C   UNL     1       7.182   5.245  15.882  0.00  0.00    +0.000 C 
ATOM     21  C   UNL     1       5.697   4.990  15.635  0.00  0.00    +0.000 C 
ATOM     22  C   UNL     1       5.511   4.189  14.346  0.00  0.00    +0.000 C 
ENDBRANCH  19  21
ENDBRANCH   1  19
TORSDOF 4
ENDMDL
MODEL 2
REMARK VINA RESULT:      -6.7      1.517      1.975
REMARK  Name = 
REMARK  6 active torsions:
REMARK  status: ('A' for Active; 'I' for Inactive)
REMARK    1  A    between atoms: C_1  and  C_2
REMARK    2  A    between atoms: C_2  and  C_3
REMARK    3  A    between atoms: C_2  and  S_4
REMARK    4  A    between atoms: S_4  and  C_5
REMARK    5  A    between atoms: C_8  and  C_9
REMARK    6  A    between atoms: N_11  and  C_12
REMARK                            x       y       z     vdW  Elec       q    Type
REMARK                         _______ _______ _______ _____ _____    ______ ____
ROOT
ATOM      1  C   UNL     1       3.801   5.781  18.518  0.00  0.00    +0.000 A 
ATOM      2  C   UNL     1       3.075   5.707  19.710  0.00  0.00    +0.000 A 
ATOM      3  C   UNL     1       2.213   6.745  20.073  0.00  0.00    +0.000 A 
ATOM      4  C   UNL     1       2.045   7.861  19.239  0.00  0.00    +0.000 A 
ATOM      5  C   UNL     1       2.755   7.938  18.040  0.00  0.00    +0.000 A 
ATOM      6  C   UNL     1       3.625   6.900  17.693  0.00  0.00    +0.000 A 
ATOM      7  F   UNL     1       4.305   7.009  16.542  0.00  0.00    +0.000 F 
ENDROOT
BRANCH   4   8
ATOM      8  C   UNL     1       1.161   8.956  19.718  0.00  0.00    +0.000 C 
ATOM      9  O   UNL     1       0.584   9.622  18.863  0.00  0.00    +0.000 OA
ATOM     10  N   UNL     1       1.115   9.167  21.086  0.00  0.00    +0.000 N 
ATOM     11  H   UNL     1       1.780   8.664  21.661  0.00  0.00    +0.000 HD
BRANCH  10  12
ATOM     12  C   UNL     1       0.371  10.192  21.725  0.00  0.00    +0.000 A 
ATOM     13  C   UNL     1      -0.640   9.953  22.658  0.00  0.00    +0.000 A 
ATOM     14  C   UNL     1      -1.365  11.018  23.195  0.00  0.00    +0.000 A 
ATOM     15  C   UNL     1      -1.040  12.297  22.785  0.00  0.00    +0.000 A 
ATOM     16 CL   UNL     1      -1.913  13.654  23.363  0.00  0.00    +0.000 Cl
ATOM     17  N   UNL     1      -0.050  12.586  21.917  0.00  0.00    +0.000 NA
ATOM     18  C   UNL     1       0.633  11.528  21.416  0.00  0.00    +0.000 A 
ENDBRANCH  10  12
ENDBRANCH   4   8
BRANCH   1  19
ATOM     19  S   UNL     1       4.903   4.434  18.113  0.00  0.00    +0.000 S 
BRANCH  19  21
ATOM     20  C   UNL     1       7.174   5.536  19.279  0.00  0.00    +0.000 C 
ATOM     21  C   UNL     1       6.502   5.325  17.926  0.00  0.00    +0.000 C 
ATOM     22  C   UNL     1       7.410   4.504  17.011  0.00  0.00    +0.000 C 
ENDBRANCH  19  21
ENDBRANCH   1  19
TORSDOF 4
ENDMDL
MODEL 3
REMARK VINA RESULT:      -6.7      2.425      3.024
REMARK  Name = 
REMARK  6 active torsions:
REMARK  status: ('A' for Active; 'I' for Inactive)
REMARK    1  A    between atoms: C_1  and  C_2
REMARK    2  A    between atoms: C_2  and  C_3
REMARK    3  A    between atoms: C_2  and  S_4
REMARK    4  A    between atoms: S_4  and  C_5
REMARK    5  A    between atoms: C_8  and  C_9
REMARK    6  A    between atoms: N_11  and  C_12
REMARK                            x       y       z     vdW  Elec       q    Type
REMARK                         _______ _______ _______ _____ _____    ______ ____
ROOT
ATOM      1  C   UNL     1       3.630   4.956  19.048  0.00  0.00    +0.000 A 
ATOM      2  C   UNL     1       3.961   5.755  17.951  0.00  0.00    +0.000 A 
ATOM      3  C   UNL     1       3.395   7.024  17.810  0.00  0.00    +0.000 A 
ATOM      4  C   UNL     1       2.507   7.523  18.776  0.00  0.00    +0.000 A 
ATOM      5  C   UNL     1       2.180   6.738  19.882  0.00  0.00    +0.000 A 
ATOM      6  C   UNL     1       2.743   5.465  20.006  0.00  0.00    +0.000 A 
ATOM      7  F   UNL     1       2.399   4.727  21.073  0.00  0.00    +0.000 F 
ENDROOT
BRANCH   4   8
ATOM      8  C   UNL     1       1.893   8.854  18.529  0.00  0.00    +0.000 C 
ATOM      9  O   UNL     1       2.138   9.390  17.451  0.00  0.00    +0.000 OA
ATOM     10  N   UNL     1       1.150   9.400  19.562  0.00  0.00    +0.000 N 
ATOM     11  H   UNL     1       1.180   8.933  20.460  0.00  0.00    +0.000 HD
BRANCH  10  12
ATOM     12  C   UNL     1       0.530  10.677  19.531  0.00  0.00    +0.000 A 
ATOM     13  C   UNL     1      -0.615  10.968  18.789  0.00  0.00    +0.000 A 
ATOM     14  C   UNL     1      -1.124  12.267  18.767  0.00  0.00    +0.000 A 
ATOM     15  C   UNL     1      -0.471  13.234  19.507  0.00  0.00    +0.000 A 
ATOM     16 CL   UNL     1      -1.007  14.862  19.497  0.00  0.00    +0.000 Cl
ATOM     17  N   UNL     1       0.615  12.999  20.270  0.00  0.00    +0.000 NA
ATOM     18  C   UNL     1       1.083  11.727  20.267  0.00  0.00    +0.000 A 
ENDBRANCH  10  12
ENDBRANCH   4   8
BRANCH   1  19
ATOM     19  S   UNL     1       4.370   3.334  19.168  0.00  0.00    +0.000 S 
BRANCH  19  21
ATOM     20  C   UNL     1       1.906   2.056  19.335  0.00  0.00    +0.000 C 
ATOM     21  C   UNL     1       3.074   2.291  18.381  0.00  0.00    +0.000 C 
ATOM     22  C   UNL     1       2.584   2.998  17.118  0.00  0.00    +0.000 C 
ENDBRANCH  19  21
ENDBRANCH   1  19
TORSDOF 4
ENDMDL
MODEL 4
REMARK VINA RESULT:      -6.7      1.662      1.855
REMARK  Name = 
REMARK  6 active torsions:
REMARK  status: ('A' for Active; 'I' for Inactive)
REMARK    1  A    between atoms: C_1  and  C_2
REMARK    2  A    between atoms: C_2  and  C_3
REMARK    3  A    between atoms: C_2  and  S_4
REMARK    4  A    between atoms: S_4  and  C_5
REMARK    5  A    between atoms: C_8  and  C_9
REMARK    6  A    between atoms: N_11  and  C_12
REMARK                            x       y       z     vdW  Elec       q    Type
REMARK                         _______ _______ _______ _____ _____    ______ ____
ROOT
ATOM      1  C   UNL     1       3.978   5.581  18.384  0.00  0.00    +0.000 A 
ATOM      2  C   UNL     1       4.087   6.574  17.407  0.00  0.00    +0.000 A 
ATOM      3  C   UNL     1       3.319   7.737  17.498  0.00  0.00    +0.000 A 
ATOM      4  C   UNL     1       2.446   7.935  18.579  0.00  0.00    +0.000 A 
ATOM      5  C   UNL     1       2.339   6.955  19.567  0.00  0.00    +0.000 A 
ATOM      6  C   UNL     1       3.104   5.790  19.459  0.00  0.00    +0.000 A 
ATOM      7  F   UNL     1       2.970   4.860  20.416  0.00  0.00    +0.000 F 
ENDROOT
BRANCH   4   8
ATOM      8  C   UNL     1       1.612   9.166  18.578  0.00  0.00    +0.000 C 
ATOM      9  O   UNL     1       1.685   9.888  17.587  0.00  0.00    +0.000 OA
ATOM     10  N   UNL     1       0.873   9.420  19.721  0.00  0.00    +0.000 N 
ATOM     11  H   UNL     1       1.046   8.837  20.531  0.00  0.00    +0.000 HD
BRANCH  10  12
ATOM     12  C   UNL     1       0.059  10.564  19.925  0.00  0.00    +0.000 A 
ATOM     13  C   UNL     1      -1.183  10.753  19.317  0.00  0.00    +0.000 A 
ATOM     14  C   UNL     1      -1.892  11.938  19.525  0.00  0.00    +0.000 A 
ATOM     15  C   UNL     1      -1.333  12.892  20.353  0.00  0.00    +0.000 A 
ATOM     16 CL   UNL     1      -2.120  14.391  20.623  0.00  0.00    +0.000 Cl
ATOM     17  N   UNL     1      -0.156  12.745  20.993  0.00  0.00    +0.000 NA
ATOM     18  C   UNL     1       0.505  11.584  20.768  0.00  0.00    +0.000 A 
ENDBRANCH  10  12
ENDBRANCH   4   8
BRANCH   1  19
ATOM     19  S   UNL     1       4.972   4.106  18.207  0.00  0.00    +0.000 S 
BRANCH  19  21
ATOM     20  C   UNL     1       7.621   4.515  17.469  0.00  0.00    +0.000 C 
ATOM     21  C   UNL     1       6.194   4.649  16.944  0.00  0.00    +0.000 C 
ATOM     22  C   UNL     1       6.013   3.790  15.693  0.00  0.00    +0.000 C 
ENDBRANCH  19  21
ENDBRANCH   1  19
TORSDOF 4
ENDMDL
MODEL 5
REMARK VINA RESULT:      -6.7      2.509      2.620
REMARK  Name = 
REMARK  6 active torsions:
REMARK  status: ('A' for Active; 'I' for Inactive)
REMARK    1  A    between atoms: C_1  and  C_2
REMARK    2  A    between atoms: C_2  and  C_3
REMARK    3  A    between atoms: C_2  and  S_4
REMARK    4  A    between atoms: S_4  and  C_5
REMARK    5  A    between atoms: C_8  and  C_9
REMARK    6  A    between atoms: N_11  and  C_12
REMARK                            x       y       z     vdW  Elec       q    Type
REMARK                         _______ _______ _______ _____ _____    ______ ____
ROOT
ATOM      1  C   UNL     1       4.754   4.842  16.570  0.00  0.00    +0.000 A 
ATOM      2  C   UNL     1       5.003   6.206  16.403  0.00  0.00    +0.000 A 
ATOM      3  C   UNL     1       4.230   7.150  17.083  0.00  0.00    +0.000 A 
ATOM      4  C   UNL     1       3.212   6.744  17.959  0.00  0.00    +0.000 A 
ATOM      5  C   UNL     1       2.964   5.383  18.143  0.00  0.00    +0.000 A 
ATOM      6  C   UNL     1       3.735   4.448  17.448  0.00  0.00    +0.000 A 
ATOM      7  F   UNL     1       3.465   3.147  17.634  0.00  0.00    +0.000 F 
ENDROOT
BRANCH   4   8
ATOM      8  C   UNL     1       2.387   7.802  18.599  0.00  0.00    +0.000 C 
ATOM      9  O   UNL     1       2.110   7.652  19.787  0.00  0.00    +0.000 OA
ATOM     10  N   UNL     1       1.952   8.833  17.784  0.00  0.00    +0.000 N 
ATOM     11  H   UNL     1       2.101   8.738  16.787  0.00  0.00    +0.000 HD
BRANCH  10  12
ATOM     12  C   UNL     1       1.119   9.903  18.202  0.00  0.00    +0.000 A 
ATOM     13  C   UNL     1      -0.273   9.889  18.101  0.00  0.00    +0.000 A 
ATOM     14  C   UNL     1      -1.015  11.010  18.480  0.00  0.00    +0.000 A 
ATOM     15  C   UNL     1      -0.330  12.109  18.962  0.00  0.00    +0.000 A 
ATOM     16 CL   UNL     1      -1.164  13.539  19.405  0.00  0.00    +0.000 Cl
ATOM     17  N   UNL     1       1.008  12.162  19.114  0.00  0.00    +0.000 NA
ATOM     18  C   UNL     1       1.696  11.056  18.737  0.00  0.00    +0.000 A 
ENDBRANCH  10  12
ENDBRANCH   4   8
BRANCH   1  19
ATOM     19  S   UNL     1       5.762   3.680  15.661  0.00  0.00    +0.000 S 
BRANCH  19  21
ATOM     20  C   UNL     1       7.518   5.011  13.965  0.00  0.00    +0.000 C 
ATOM     21  C   UNL     1       6.053   4.606  14.098  0.00  0.00    +0.000 C 
ATOM     22  C   UNL     1       5.646   3.715  12.924  0.00  0.00    +0.000 C 
ENDBRANCH  19  21
ENDBRANCH   1  19
TORSDOF 4
ENDMDL
MODEL 6
REMARK VINA RESULT:      -6.6      2.935      3.616
REMARK  Name = 
REMARK  6 active torsions:
REMARK  status: ('A' for Active; 'I' for Inactive)
REMARK    1  A    between atoms: C_1  and  C_2
REMARK    2  A    between atoms: C_2  and  C_3
REMARK    3  A    between atoms: C_2  and  S_4
REMARK    4  A    between atoms: S_4  and  C_5
REMARK    5  A    between atoms: C_8  and  C_9
REMARK    6  A    between atoms: N_11  and  C_12
REMARK                            x       y       z     vdW  Elec       q    Type
REMARK                         _______ _______ _______ _____ _____    ______ ____
ROOT
ATOM      1  C   UNL     1       3.057   5.015  19.553  0.00  0.00    +0.000 A 
ATOM      2  C   UNL     1       2.233   5.795  20.368  0.00  0.00    +0.000 A 
ATOM      3  C   UNL     1       1.843   7.072  19.956  0.00  0.00    +0.000 A 
ATOM      4  C   UNL     1       2.253   7.579  18.714  0.00  0.00    +0.000 A 
ATOM      5  C   UNL     1       3.066   6.803  17.887  0.00  0.00    +0.000 A 
ATOM      6  C   UNL     1       3.460   5.532  18.314  0.00  0.00    +0.000 A 
ATOM      7  F   UNL     1       4.254   4.815  17.505  0.00  0.00    +0.000 F 
ENDROOT
BRANCH   4   8
ATOM      8  C   UNL     1       1.855   8.969  18.369  0.00  0.00    +0.000 C 
ATOM      9  O   UNL     1       2.276   9.424  17.308  0.00  0.00    +0.000 OA
ATOM     10  N   UNL     1       1.094   9.650  19.304  0.00  0.00    +0.000 N 
ATOM     11  H   UNL     1       0.971   9.220  20.212  0.00  0.00    +0.000 HD
BRANCH  10  12
ATOM     12  C   UNL     1       0.661  10.996  19.175  0.00  0.00    +0.000 A 
ATOM     13  C   UNL     1      -0.545  11.371  18.581  0.00  0.00    +0.000 A 
ATOM     14  C   UNL     1      -0.866  12.723  18.441  0.00  0.00    +0.000 A 
ATOM     15  C   UNL     1       0.033  13.657  18.917  0.00  0.00    +0.000 A 
ATOM     16 CL   UNL     1      -0.267  15.335  18.741  0.00  0.00    +0.000 Cl
ATOM     17  N   UNL     1       1.193  13.349  19.531  0.00  0.00    +0.000 NA
ATOM     18  C   UNL     1       1.473  12.028  19.650  0.00  0.00    +0.000 A 
ENDBRANCH  10  12
ENDBRANCH   4   8
BRANCH   1  19
ATOM     19  S   UNL     1       3.540   3.397  20.138  0.00  0.00    +0.000 S 
BRANCH  19  21
ATOM     20  C   UNL     1       1.118   3.052  18.816  0.00  0.00    +0.000 C 
ATOM     21  C   UNL     1       2.406   2.316  19.173  0.00  0.00    +0.000 C 
ATOM     22  C   UNL     1       3.127   1.872  17.900  0.00  0.00    +0.000 C 
ENDBRANCH  19  21
ENDBRANCH   1  19
TORSDOF 4
ENDMDL
MODEL 7
REMARK VINA RESULT:      -6.6      1.666      1.781
REMARK  Name = 
REMARK  6 active torsions:
REMARK  status: ('A' for Active; 'I' for Inactive)
REMARK    1  A    between atoms: C_1  and  C_2
REMARK    2  A    between atoms: C_2  and  C_3
REMARK    3  A    between atoms: C_2  and  S_4
REMARK    4  A    between atoms: S_4  and  C_5
REMARK    5  A    between atoms: C_8  and  C_9
REMARK    6  A    between atoms: N_11  and  C_12
REMARK                            x       y       z     vdW  Elec       q    Type
REMARK                         _______ _______ _______ _____ _____    ______ ____
ROOT
ATOM      1  C   UNL     1       3.779   5.056  18.081  0.00  0.00    +0.000 A 
ATOM      2  C   UNL     1       3.689   6.346  17.552  0.00  0.00    +0.000 A 
ATOM      3  C   UNL     1       2.985   7.339  18.238  0.00  0.00    +0.000 A 
ATOM      4  C   UNL     1       2.379   7.063  19.473  0.00  0.00    +0.000 A 
ATOM      5  C   UNL     1       2.474   5.782  20.016  0.00  0.00    +0.000 A 
ATOM      6  C   UNL     1       3.170   4.792  19.316  0.00  0.00    +0.000 A 
ATOM      7  F   UNL     1       3.232   3.566  19.855  0.00  0.00    +0.000 F 
ENDROOT
BRANCH   4   8
ATOM      8  C   UNL     1       1.592   8.149  20.115  0.00  0.00    +0.000 C 
ATOM      9  O   UNL     1       1.254   7.977  21.284  0.00  0.00    +0.000 OA
ATOM     10  N   UNL     1       1.257   9.231  19.319  0.00  0.00    +0.000 N 
ATOM     11  H   UNL     1       1.444   9.159  18.326  0.00  0.00    +0.000 HD
BRANCH  10  12
ATOM     12  C   UNL     1       0.472  10.336  19.738  0.00  0.00    +0.000 A 
ATOM     13  C   UNL     1       0.912  11.305  20.641  0.00  0.00    +0.000 A 
ATOM     14  C   UNL     1       0.052  12.327  21.047  0.00  0.00    +0.000 A 
ATOM     15  C   UNL     1      -1.224  12.351  20.518  0.00  0.00    +0.000 A 
ATOM     16 CL   UNL     1      -2.354  13.546  21.000  0.00  0.00    +0.000 Cl
ATOM     17  N   UNL     1      -1.688  11.463  19.616  0.00  0.00    +0.000 NA
ATOM     18  C   UNL     1      -0.827  10.484  19.245  0.00  0.00    +0.000 A 
ENDBRANCH  10  12
ENDBRANCH   4   8
BRANCH   1  19
ATOM     19  S   UNL     1       4.676   3.821  17.153  0.00  0.00    +0.000 S 
BRANCH  19  21
ATOM     20  C   UNL     1       7.342   4.607  17.235  0.00  0.00    +0.000 C 
ATOM     21  C   UNL     1       6.049   4.827  16.455  0.00  0.00    +0.000 C 
ATOM     22  C   UNL     1       6.246   4.430  14.991  0.00  0.00    +0.000 C 
ENDBRANCH  19  21
ENDBRANCH   1  19
TORSDOF 4
ENDMDL
MODEL 8
REMARK VINA RESULT:      -6.6      3.089      4.252
REMARK  Name = 
REMARK  6 active torsions:
REMARK  status: ('A' for Active; 'I' for Inactive)
REMARK    1  A    between atoms: C_1  and  C_2
REMARK    2  A    between atoms: C_2  and  C_3
REMARK    3  A    between atoms: C_2  and  S_4
REMARK    4  A    between atoms: S_4  and  C_5
REMARK    5  A    between atoms: C_8  and  C_9
REMARK    6  A    between atoms: N_11  and  C_12
REMARK                            x       y       z     vdW  Elec       q    Type
REMARK                         _______ _______ _______ _____ _____    ______ ____
ROOT
ATOM      1  C   UNL     1       2.726   5.701  19.403  0.00  0.00    +0.000 A 
ATOM      2  C   UNL     1       2.080   6.551  20.304  0.00  0.00    +0.000 A 
ATOM      3  C   UNL     1       1.785   7.868  19.939  0.00  0.00    +0.000 A 
ATOM      4  C   UNL     1       2.112   8.346  18.661  0.00  0.00    +0.000 A 
ATOM      5  C   UNL     1       2.745   7.500  17.750  0.00  0.00    +0.000 A 
ATOM      6  C   UNL     1       3.046   6.189  18.129  0.00  0.00    +0.000 A 
ATOM      7  F   UNL     1       3.668   5.404  17.237  0.00  0.00    +0.000 F 
ENDROOT
BRANCH   4   8
ATOM      8  C   UNL     1       1.828   9.775  18.364  0.00  0.00    +0.000 C 
ATOM      9  O   UNL     1       2.237  10.214  17.292  0.00  0.00    +0.000 OA
ATOM     10  N   UNL     1       1.181  10.500  19.350  0.00  0.00    +0.000 N 
ATOM     11  H   UNL     1       1.063  10.061  20.255  0.00  0.00    +0.000 HD
BRANCH  10  12
ATOM     12  C   UNL     1       0.869  11.883  19.270  0.00  0.00    +0.000 A 
ATOM     13  C   UNL     1      -0.342  12.380  18.788  0.00  0.00    +0.000 A 
ATOM     14  C   UNL     1      -0.544  13.758  18.686  0.00  0.00    +0.000 A 
ATOM     15  C   UNL     1       0.479  14.595  19.088  0.00  0.00    +0.000 A 
ATOM     16 CL   UNL     1       0.327  16.297  18.952  0.00  0.00    +0.000 Cl
ATOM     17  N   UNL     1       1.653  14.168  19.594  0.00  0.00    +0.000 NA
ATOM     18  C   UNL     1       1.815  12.825  19.678  0.00  0.00    +0.000 A 
ENDBRANCH  10  12
ENDBRANCH   4   8
BRANCH   1  19
ATOM     19  S   UNL     1       3.094   4.033  19.929  0.00  0.00    +0.000 S 
BRANCH  19  21
ATOM     20  C   UNL     1       0.864   2.549  19.182  0.00  0.00    +0.000 C 
ATOM     21  C   UNL     1       1.411   3.403  20.323  0.00  0.00    +0.000 C 
ATOM     22  C   UNL     1       1.490   2.575  21.605  0.00  0.00    +0.000 C 
ENDBRANCH  19  21
ENDBRANCH   1  19
TORSDOF 4
ENDMDL
MODEL 9
REMARK VINA RESULT:      -6.6      2.363      3.053
REMARK  Name = 
REMARK  6 active torsions:
REMARK  status: ('A' for Active; 'I' for Inactive)
REMARK    1  A    between atoms: C_1  and  C_2
REMARK    2  A    between atoms: C_2  and  C_3
REMARK    3  A    between atoms: C_2  and  S_4
REMARK    4  A    between atoms: S_4  and  C_5
REMARK    5  A    between atoms: C_8  and  C_9
REMARK    6  A    between atoms: N_11  and  C_12
REMARK                            x       y       z     vdW  Elec       q    Type
REMARK                         _______ _______ _______ _____ _____    ______ ____
ROOT
ATOM      1  C   UNL     1       3.775   5.218  18.860  0.00  0.00    +0.000 A 
ATOM      2  C   UNL     1       2.885   5.641  19.850  0.00  0.00    +0.000 A 
ATOM      3  C   UNL     1       2.235   6.872  19.730  0.00  0.00    +0.000 A 
ATOM      4  C   UNL     1       2.447   7.687  18.608  0.00  0.00    +0.000 A 
ATOM      5  C   UNL     1       3.325   7.268  17.608  0.00  0.00    +0.000 A 
ATOM      6  C   UNL     1       3.979   6.040  17.744  0.00  0.00    +0.000 A 
ATOM      7  F   UNL     1       4.828   5.669  16.773  0.00  0.00    +0.000 F 
ENDROOT
BRANCH   4   8
ATOM      8  C   UNL     1       1.773   9.011  18.578  0.00  0.00    +0.000 C 
ATOM      9  O   UNL     1       1.912   9.686  17.560  0.00  0.00    +0.000 OA
ATOM     10  N   UNL     1       1.098   9.394  19.725  0.00  0.00    +0.000 N 
ATOM     11  H   UNL     1       1.216   8.822  20.552  0.00  0.00    +0.000 HD
BRANCH  10  12
ATOM     12  C   UNL     1       0.437  10.638  19.902  0.00  0.00    +0.000 A 
ATOM     13  C   UNL     1       1.032  11.758  20.482  0.00  0.00    +0.000 A 
ATOM     14  C   UNL     1       0.291  12.926  20.675  0.00  0.00    +0.000 A 
ATOM     15  C   UNL     1      -1.028  12.932  20.263  0.00  0.00    +0.000 A 
ATOM     16 CL   UNL     1      -2.018  14.310  20.505  0.00  0.00    +0.000 Cl
ATOM     17  N   UNL     1      -1.641  11.891  19.665  0.00  0.00    +0.000 NA
ATOM     18  C   UNL     1      -0.892  10.775  19.494  0.00  0.00    +0.000 A 
ENDBRANCH  10  12
ENDBRANCH   4   8
BRANCH   1  19
ATOM     19  S   UNL     1       4.593   3.643  19.074  0.00  0.00    +0.000 S 
BRANCH  19  21
ATOM     20  C   UNL     1       2.239   2.288  19.670  0.00  0.00    +0.000 C 
ATOM     21  C   UNL     1       3.265   2.479  18.557  0.00  0.00    +0.000 C 
ATOM     22  C   UNL     1       2.586   3.042  17.308  0.00  0.00    +0.000 C 
ENDBRANCH  19  21
ENDBRANCH   1  19
TORSDOF 4
ENDMDL
