MODEL 1
REMARK VINA RESULT:      -8.2      0.000      0.000
REMARK  Name = 
REMARK  4 active torsions:
REMARK  status: ('A' for Active; 'I' for Inactive)
REMARK    1  A    between atoms: C_2  and  C_3
REMARK    2  A    between atoms: C_6  and  N_7
REMARK    3  A    between atoms: C_12  and  C_13
REMARK    4  A    between atoms: C_13  and  C_15
REMARK                            x       y       z     vdW  Elec       q    Type
REMARK                         _______ _______ _______ _____ _____    ______ ____
ROOT
ATOM      1  N   UNL     1       1.532   8.426  21.359  0.00  0.00    +0.000 N 
ATOM      2  C   UNL     1       1.913   8.048  20.068  0.00  0.00    +0.000 A 
ATOM      3  N   UNL     1       1.855   8.914  19.051  0.00  0.00    +0.000 NA
ATOM      4  C   UNL     1       2.182   8.477  17.828  0.00  0.00    +0.000 A 
ATOM      5  C   UNL     1       2.575   7.192  17.572  0.00  0.00    +0.000 A 
ATOM      6  C   UNL     1       2.607   6.337  18.658  0.00  0.00    +0.000 A 
ATOM      7  N   UNL     1       2.289   6.768  19.912  0.00  0.00    +0.000 NA
ATOM      8  H   UNL     1       1.570   7.615  21.960  0.00  0.00    +0.000 HD
ENDROOT
BRANCH   1  12
ATOM      9  C   UNL     1      -1.027  11.542  22.634  0.00  0.00    +0.000 A 
ATOM     10  C   UNL     1      -1.035  10.302  23.273  0.00  0.00    +0.000 A 
ATOM     11  C   UNL     1      -0.165   9.290  22.855  0.00  0.00    +0.000 A 
ATOM     12  C   UNL     1       0.719   9.489  21.784  0.00  0.00    +0.000 A 
ATOM     13  C   UNL     1       0.743  10.758  21.192  0.00  0.00    +0.000 A 
ATOM     14  C   UNL     1      -0.127  11.773  21.595  0.00  0.00    +0.000 A 
BRANCH   9  16
ATOM     15  N   UNL     1      -2.665  13.410  23.368  0.00  0.00    +0.000 NA
ATOM     16  C   UNL     1      -1.932  12.573  23.037  0.00  0.00    +0.000 C 
ENDBRANCH   9  16
ENDBRANCH   1  12
BRANCH   6  17
ATOM     17  C   UNL     1       3.036   4.882  18.536  0.00  0.00    +0.000 C 
ATOM     18 CL   UNL     1       1.831   3.852  17.697  0.00  0.00    +0.000 Cl
BRANCH  17  19
ATOM     19  C   UNL     1       4.427   4.734  17.940  0.00  0.00    +0.000 A 
ATOM     20  C   UNL     1       5.541   4.992  18.759  0.00  0.00    +0.000 A 
ATOM     21  C   UNL     1       6.838   4.954  18.245  0.00  0.00    +0.000 A 
ATOM     22  C   UNL     1       7.044   4.652  16.901  0.00  0.00    +0.000 A 
ATOM     23  C   UNL     1       5.952   4.386  16.080  0.00  0.00    +0.000 A 
ATOM     24 BR   UNL     1       6.234   3.974  14.256  0.00  0.00    +0.000 Br
ATOM     25  C   UNL     1       4.650   4.431  16.586  0.00  0.00    +0.000 A 
ENDBRANCH  17  19
ENDBRANCH   6  17
TORSDOF 4
ENDMDL
MODEL 2
REMARK VINA RESULT:      -8.1      0.456      1.020
REMARK  Name = 
REMARK  4 active torsions:
REMARK  status: ('A' for Active; 'I' for Inactive)
REMARK    1  A    between atoms: C_2  and  C_3
REMARK    2  A    between atoms: C_6  and  N_7
REMARK    3  A    between atoms: C_12  and  C_13
REMARK    4  A    between atoms: C_13  and  C_15
REMARK                            x       y       z     vdW  Elec       q    Type
REMARK                         _______ _______ _______ _____ _____    ______ ____
ROOT
ATOM      1  N   UNL     1       1.366   8.056  21.265  0.00  0.00    +0.000 N 
ATOM      2  C   UNL     1       1.937   7.765  20.023  0.00  0.00    +0.000 A 
ATOM      3  N   UNL     1       2.028   8.700  19.071  0.00  0.00    +0.000 NA
ATOM      4  C   UNL     1       2.535   8.347  17.884  0.00  0.00    +0.000 A 
ATOM      5  C   UNL     1       2.965   7.078  17.600  0.00  0.00    +0.000 A 
ATOM      6  C   UNL     1       2.836   6.151  18.616  0.00  0.00    +0.000 A 
ATOM      7  N   UNL     1       2.334   6.496  19.835  0.00  0.00    +0.000 NA
ATOM      8  H   UNL     1       1.316   7.205  21.808  0.00  0.00    +0.000 HD
ENDROOT
BRANCH   1  12
ATOM      9  C   UNL     1      -1.166  11.272  22.327  0.00  0.00    +0.000 A 
ATOM     10  C   UNL     1      -0.732  11.107  21.012  0.00  0.00    +0.000 A 
ATOM     11  C   UNL     1       0.085  10.023  20.672  0.00  0.00    +0.000 A 
ATOM     12  C   UNL     1       0.497   9.093  21.638  0.00  0.00    +0.000 A 
ATOM     13  C   UNL     1       0.007   9.253  22.941  0.00  0.00    +0.000 A 
ATOM     14  C   UNL     1      -0.803  10.336  23.293  0.00  0.00    +0.000 A 
BRANCH   9  16
ATOM     15  N   UNL     1      -2.642  13.298  22.979  0.00  0.00    +0.000 NA
ATOM     16  C   UNL     1      -1.980  12.391  22.688  0.00  0.00    +0.000 C 
ENDBRANCH   9  16
ENDBRANCH   1  12
BRANCH   6  17
ATOM     17  C   UNL     1       3.282   4.703  18.457  0.00  0.00    +0.000 C 
ATOM     18 CL   UNL     1       2.044   3.657  17.688  0.00  0.00    +0.000 Cl
BRANCH  17  19
ATOM     19  C   UNL     1       4.635   4.584  17.775  0.00  0.00    +0.000 A 
ATOM     20  C   UNL     1       5.796   4.812  18.537  0.00  0.00    +0.000 A 
ATOM     21  C   UNL     1       7.060   4.798  17.947  0.00  0.00    +0.000 A 
ATOM     22  C   UNL     1       7.187   4.551  16.582  0.00  0.00    +0.000 A 
ATOM     23  C   UNL     1       6.048   4.314  15.817  0.00  0.00    +0.000 A 
ATOM     24 BR   UNL     1       6.223   3.976  13.964  0.00  0.00    +0.000 Br
ATOM     25  C   UNL     1       4.778   4.335  16.399  0.00  0.00    +0.000 A 
ENDBRANCH  17  19
ENDBRANCH   6  17
TORSDOF 4
ENDMDL
MODEL 3
REMARK VINA RESULT:      -7.8      1.891      2.599
REMARK  Name = 
REMARK  4 active torsions:
REMARK  status: ('A' for Active; 'I' for Inactive)
REMARK    1  A    between atoms: C_2  and  C_3
REMARK    2  A    between atoms: C_6  and  N_7
REMARK    3  A    between atoms: C_12  and  C_13
REMARK    4  A    between atoms: C_13  and  C_15
REMARK                            x       y       z     vdW  Elec       q    Type
REMARK                         _______ _______ _______ _____ _____    ______ ____
ROOT
ATOM      1  N   UNL     1       2.002   7.713  20.126  0.00  0.00    +0.000 N 
ATOM      2  C   UNL     1       1.992   6.316  20.137  0.00  0.00    +0.000 A 
ATOM      3  N   UNL     1       0.903   5.637  20.513  0.00  0.00    +0.000 NA
ATOM      4  C   UNL     1       0.973   4.301  20.553  0.00  0.00    +0.000 A 
ATOM      5  C   UNL     1       2.102   3.599  20.228  0.00  0.00    +0.000 A 
ATOM      6  C   UNL     1       3.200   4.351  19.857  0.00  0.00    +0.000 A 
ATOM      7  N   UNL     1       3.144   5.712  19.797  0.00  0.00    +0.000 NA
ATOM      8  H   UNL     1       2.933   8.031  19.894  0.00  0.00    +0.000 HD
ENDROOT
BRANCH   1  12
ATOM      9  C   UNL     1      -0.540  10.359  22.229  0.00  0.00    +0.000 A 
ATOM     10  C   UNL     1       0.325   9.503  22.911  0.00  0.00    +0.000 A 
ATOM     11  C   UNL     1       1.178   8.652  22.200  0.00  0.00    +0.000 A 
ATOM     12  C   UNL     1       1.174   8.626  20.798  0.00  0.00    +0.000 A 
ATOM     13  C   UNL     1       0.333   9.530  20.136  0.00  0.00    +0.000 A 
ATOM     14  C   UNL     1      -0.529  10.378  20.836  0.00  0.00    +0.000 A 
BRANCH   9  16
ATOM     15  N   UNL     1      -2.160  11.907  23.528  0.00  0.00    +0.000 NA
ATOM     16  C   UNL     1      -1.434  11.213  22.948  0.00  0.00    +0.000 C 
ENDBRANCH   9  16
ENDBRANCH   1  12
BRANCH   6  17
ATOM     17  C   UNL     1       4.523   3.715  19.454  0.00  0.00    +0.000 C 
ATOM     18 CL   UNL     1       4.407   1.947  19.175  0.00  0.00    +0.000 Cl
BRANCH  17  19
ATOM     19  C   UNL     1       5.183   4.435  18.289  0.00  0.00    +0.000 A 
ATOM     20  C   UNL     1       5.021   3.909  16.993  0.00  0.00    +0.000 A 
ATOM     21  C   UNL     1       5.672   4.479  15.898  0.00  0.00    +0.000 A 
ATOM     22  C   UNL     1       6.493   5.589  16.078  0.00  0.00    +0.000 A 
ATOM     23  C   UNL     1       6.656   6.126  17.353  0.00  0.00    +0.000 A 
ATOM     24 BR   UNL     1       7.770   7.635  17.594  0.00  0.00    +0.000 Br
ATOM     25  C   UNL     1       6.015   5.555  18.455  0.00  0.00    +0.000 A 
ENDBRANCH  17  19
ENDBRANCH   6  17
TORSDOF 4
ENDMDL
MODEL 4
REMARK VINA RESULT:      -7.8      1.578      2.430
REMARK  Name = 
REMARK  4 active torsions:
REMARK  status: ('A' for Active; 'I' for Inactive)
REMARK    1  A    between atoms: C_2  and  C_3
REMARK    2  A    between atoms: C_6  and  N_7
REMARK    3  A    between atoms: C_12  and  C_13
REMARK    4  A    between atoms: C_13  and  C_15
REMARK                            x       y       z     vdW  Elec       q    Type
REMARK                         _______ _______ _______ _____ _____    ______ ____
ROOT
ATOM      1  N   UNL     1       2.168   7.548  20.147  0.00  0.00    +0.000 N 
ATOM      2  C   UNL     1       2.103   6.152  20.140  0.00  0.00    +0.000 A 
ATOM      3  N   UNL     1       0.964   5.514  20.429  0.00  0.00    +0.000 NA
ATOM      4  C   UNL     1       0.979   4.175  20.458  0.00  0.00    +0.000 A 
ATOM      5  C   UNL     1       2.100   3.432  20.205  0.00  0.00    +0.000 A 
ATOM      6  C   UNL     1       3.251   4.144  19.923  0.00  0.00    +0.000 A 
ATOM      7  N   UNL     1       3.251   5.506  19.876  0.00  0.00    +0.000 NA
ATOM      8  H   UNL     1       3.125   7.830  19.986  0.00  0.00    +0.000 HD
ENDROOT
BRANCH   1  12
ATOM      9  C   UNL     1      -0.294  10.477  21.949  0.00  0.00    +0.000 A 
ATOM     10  C   UNL     1      -0.151  10.416  20.562  0.00  0.00    +0.000 A 
ATOM     11  C   UNL     1       0.647   9.425  19.981  0.00  0.00    +0.000 A 
ATOM     12  C   UNL     1       1.330   8.487  20.769  0.00  0.00    +0.000 A 
ATOM     13  C   UNL     1       1.130   8.538  22.155  0.00  0.00    +0.000 A 
ATOM     14  C   UNL     1       0.343   9.528  22.747  0.00  0.00    +0.000 A 
BRANCH   9  16
ATOM     15  N   UNL     1      -1.728  12.336  23.042  0.00  0.00    +0.000 NA
ATOM     16  C   UNL     1      -1.086  11.502  22.553  0.00  0.00    +0.000 C 
ENDBRANCH   9  16
ENDBRANCH   1  12
BRANCH   6  17
ATOM     17  C   UNL     1       4.573   3.459  19.607  0.00  0.00    +0.000 C 
ATOM     18 CL   UNL     1       4.397   1.720  19.205  0.00  0.00    +0.000 Cl
BRANCH  17  19
ATOM     19  C   UNL     1       5.380   4.209  18.560  0.00  0.00    +0.000 A 
ATOM     20  C   UNL     1       6.264   5.218  18.986  0.00  0.00    +0.000 A 
ATOM     21  C   UNL     1       6.968   5.995  18.065  0.00  0.00    +0.000 A 
ATOM     22  C   UNL     1       6.803   5.775  16.700  0.00  0.00    +0.000 A 
ATOM     23  C   UNL     1       5.939   4.774  16.263  0.00  0.00    +0.000 A 
ATOM     24 BR   UNL     1       5.719   4.474  14.409  0.00  0.00    +0.000 Br
ATOM     25  C   UNL     1       5.225   3.998  17.179  0.00  0.00    +0.000 A 
ENDBRANCH  17  19
ENDBRANCH   6  17
TORSDOF 4
ENDMDL
MODEL 5
REMARK VINA RESULT:      -7.7      4.059      8.704
REMARK  Name = 
REMARK  4 active torsions:
REMARK  status: ('A' for Active; 'I' for Inactive)
REMARK    1  A    between atoms: C_2  and  C_3
REMARK    2  A    between atoms: C_6  and  N_7
REMARK    3  A    between atoms: C_12  and  C_13
REMARK    4  A    between atoms: C_13  and  C_15
REMARK                            x       y       z     vdW  Elec       q    Type
REMARK                         _______ _______ _______ _____ _____    ______ ____
ROOT
ATOM      1  N   UNL     1       2.413   7.844  18.753  0.00  0.00    +0.000 N 
ATOM      2  C   UNL     1       1.565   8.521  19.634  0.00  0.00    +0.000 A 
ATOM      3  N   UNL     1       1.215   7.978  20.806  0.00  0.00    +0.000 NA
ATOM      4  C   UNL     1       0.357   8.651  21.583  0.00  0.00    +0.000 A 
ATOM      5  C   UNL     1      -0.175   9.864  21.237  0.00  0.00    +0.000 A 
ATOM      6  C   UNL     1       0.214  10.371  20.011  0.00  0.00    +0.000 A 
ATOM      7  N   UNL     1       1.096   9.707  19.213  0.00  0.00    +0.000 NA
ATOM      8  H   UNL     1       2.489   8.379  17.899  0.00  0.00    +0.000 HD
ENDROOT
BRANCH   1  12
ATOM      9  C   UNL     1       3.221   3.698  18.540  0.00  0.00    +0.000 A 
ATOM     10  C   UNL     1       2.143   4.254  17.850  0.00  0.00    +0.000 A 
ATOM     11  C   UNL     1       1.905   5.632  17.911  0.00  0.00    +0.000 A 
ATOM     12  C   UNL     1       2.725   6.477  18.671  0.00  0.00    +0.000 A 
ATOM     13  C   UNL     1       3.830   5.903  19.314  0.00  0.00    +0.000 A 
ATOM     14  C   UNL     1       4.072   4.528  19.266  0.00  0.00    +0.000 A 
BRANCH   9  16
ATOM     15  N   UNL     1       3.647   1.144  18.479  0.00  0.00    +0.000 NA
ATOM     16  C   UNL     1       3.456   2.288  18.505  0.00  0.00    +0.000 C 
ENDBRANCH   9  16
ENDBRANCH   1  12
BRANCH   6  17
ATOM     17  C   UNL     1      -0.281  11.715  19.494  0.00  0.00    +0.000 C 
ATOM     18 CL   UNL     1       0.953  12.614  18.552  0.00  0.00    +0.000 Cl
BRANCH  17  19
ATOM     19  C   UNL     1      -1.599  11.600  18.745  0.00  0.00    +0.000 A 
ATOM     20  C   UNL     1      -2.777  12.027  19.387  0.00  0.00    +0.000 A 
ATOM     21  C   UNL     1      -4.025  11.868  18.782  0.00  0.00    +0.000 A 
ATOM     22  C   UNL     1      -4.117  11.284  17.521  0.00  0.00    +0.000 A 
ATOM     23  C   UNL     1      -2.959  10.866  16.870  0.00  0.00    +0.000 A 
ATOM     24 BR   UNL     1      -3.085  10.076  15.156  0.00  0.00    +0.000 Br
ATOM     25  C   UNL     1      -1.707  11.013  17.473  0.00  0.00    +0.000 A 
ENDBRANCH  17  19
ENDBRANCH   6  17
TORSDOF 4
ENDMDL
MODEL 6
REMARK VINA RESULT:      -7.7      1.885      2.761
REMARK  Name = 
REMARK  4 active torsions:
REMARK  status: ('A' for Active; 'I' for Inactive)
REMARK    1  A    between atoms: C_2  and  C_3
REMARK    2  A    between atoms: C_6  and  N_7
REMARK    3  A    between atoms: C_12  and  C_13
REMARK    4  A    between atoms: C_13  and  C_15
REMARK                            x       y       z     vdW  Elec       q    Type
REMARK                         _______ _______ _______ _____ _____    ______ ____
ROOT
ATOM      1  N   UNL     1       2.043   7.628  20.084  0.00  0.00    +0.000 N 
ATOM      2  C   UNL     1       2.043   6.231  20.127  0.00  0.00    +0.000 A 
ATOM      3  N   UNL     1       0.974   5.555  20.560  0.00  0.00    +0.000 NA
ATOM      4  C   UNL     1       1.055   4.220  20.628  0.00  0.00    +0.000 A 
ATOM      5  C   UNL     1       2.175   3.518  20.274  0.00  0.00    +0.000 A 
ATOM      6  C   UNL     1       3.253   4.269  19.845  0.00  0.00    +0.000 A 
ATOM      7  N   UNL     1       3.185   5.627  19.757  0.00  0.00    +0.000 NA
ATOM      8  H   UNL     1       2.962   7.946  19.809  0.00  0.00    +0.000 HD
ENDROOT
BRANCH   1  12
ATOM      9  C   UNL     1      -0.335  10.511  22.065  0.00  0.00    +0.000 A 
ATOM     10  C   UNL     1      -0.282  10.461  20.672  0.00  0.00    +0.000 A 
ATOM     11  C   UNL     1       0.490   9.485  20.032  0.00  0.00    +0.000 A 
ATOM     12  C   UNL     1       1.234   8.551  20.767  0.00  0.00    +0.000 A 
ATOM     13  C   UNL     1       1.124   8.590  22.163  0.00  0.00    +0.000 A 
ATOM     14  C   UNL     1       0.364   9.565  22.813  0.00  0.00    +0.000 A 
BRANCH   9  16
ATOM     15  N   UNL     1      -1.719  12.341  23.267  0.00  0.00    +0.000 NA
ATOM     16  C   UNL     1      -1.100  11.520  22.728  0.00  0.00    +0.000 C 
ENDBRANCH   9  16
ENDBRANCH   1  12
BRANCH   6  17
ATOM     17  C   UNL     1       4.564   3.632  19.405  0.00  0.00    +0.000 C 
ATOM     18 CL   UNL     1       4.429   1.872  19.083  0.00  0.00    +0.000 Cl
BRANCH  17  19
ATOM     19  C   UNL     1       5.213   4.376  18.249  0.00  0.00    +0.000 A 
ATOM     20  C   UNL     1       5.070   3.856  16.949  0.00  0.00    +0.000 A 
ATOM     21  C   UNL     1       5.713   4.449  15.861  0.00  0.00    +0.000 A 
ATOM     22  C   UNL     1       6.507   5.577  16.054  0.00  0.00    +0.000 A 
ATOM     23  C   UNL     1       6.650   6.108  17.333  0.00  0.00    +0.000 A 
ATOM     24 BR   UNL     1       7.727   7.641  17.592  0.00  0.00    +0.000 Br
ATOM     25  C   UNL     1       6.018   5.514  18.428  0.00  0.00    +0.000 A 
ENDBRANCH  17  19
ENDBRANCH   6  17
TORSDOF 4
ENDMDL
MODEL 7
REMARK VINA RESULT:      -7.7      1.219      1.557
REMARK  Name = 
REMARK  4 active torsions:
REMARK  status: ('A' for Active; 'I' for Inactive)
REMARK    1  A    between atoms: C_2  and  C_3
REMARK    2  A    between atoms: C_6  and  N_7
REMARK    3  A    between atoms: C_12  and  C_13
REMARK    4  A    between atoms: C_13  and  C_15
REMARK                            x       y       z     vdW  Elec       q    Type
REMARK                         _______ _______ _______ _____ _____    ______ ____
ROOT
ATOM      1  N   UNL     1       1.297   8.772  21.404  0.00  0.00    +0.000 N 
ATOM      2  C   UNL     1       1.668   8.394  20.110  0.00  0.00    +0.000 A 
ATOM      3  N   UNL     1       1.626   9.268  19.099  0.00  0.00    +0.000 NA
ATOM      4  C   UNL     1       1.941   8.832  17.873  0.00  0.00    +0.000 A 
ATOM      5  C   UNL     1       2.304   7.539  17.607  0.00  0.00    +0.000 A 
ATOM      6  C   UNL     1       2.319   6.677  18.687  0.00  0.00    +0.000 A 
ATOM      7  N   UNL     1       2.014   7.106  19.944  0.00  0.00    +0.000 NA
ATOM      8  H   UNL     1       1.318   7.956  22.000  0.00  0.00    +0.000 HD
ENDROOT
BRANCH   1  12
ATOM      9  C   UNL     1      -1.187  11.940  22.697  0.00  0.00    +0.000 A 
ATOM     10  C   UNL     1      -1.278  10.675  23.279  0.00  0.00    +0.000 A 
ATOM     11  C   UNL     1      -0.432   9.645  22.857  0.00  0.00    +0.000 A 
ATOM     12  C   UNL     1       0.510   9.850  21.838  0.00  0.00    +0.000 A 
ATOM     13  C   UNL     1       0.617  11.141  21.305  0.00  0.00    +0.000 A 
ATOM     14  C   UNL     1      -0.229  12.176  21.713  0.00  0.00    +0.000 A 
BRANCH   9  16
ATOM     15  N   UNL     1      -2.778  13.848  23.431  0.00  0.00    +0.000 NA
ATOM     16  C   UNL     1      -2.066  12.992  23.103  0.00  0.00    +0.000 C 
ENDBRANCH   9  16
ENDBRANCH   1  12
BRANCH   6  17
ATOM     17  C   UNL     1       2.714   5.213  18.554  0.00  0.00    +0.000 C 
ATOM     18 CL   UNL     1       1.527   4.235  17.630  0.00  0.00    +0.000 Cl
BRANCH  17  19
ATOM     19  C   UNL     1       4.130   5.038  18.029  0.00  0.00    +0.000 A 
ATOM     20  C   UNL     1       4.318   4.347  16.817  0.00  0.00    +0.000 A 
ATOM     21  C   UNL     1       5.599   4.084  16.330  0.00  0.00    +0.000 A 
ATOM     22  C   UNL     1       6.716   4.512  17.043  0.00  0.00    +0.000 A 
ATOM     23  C   UNL     1       6.545   5.205  18.239  0.00  0.00    +0.000 A 
ATOM     24 BR   UNL     1       8.063   5.787  19.205  0.00  0.00    +0.000 Br
ATOM     25  C   UNL     1       5.266   5.464  18.738  0.00  0.00    +0.000 A 
ENDBRANCH  17  19
ENDBRANCH   6  17
TORSDOF 4
ENDMDL
MODEL 8
REMARK VINA RESULT:      -7.5      4.603      8.958
REMARK  Name = 
REMARK  4 active torsions:
REMARK  status: ('A' for Active; 'I' for Inactive)
REMARK    1  A    between atoms: C_2  and  C_3
REMARK    2  A    between atoms: C_6  and  N_7
REMARK    3  A    between atoms: C_12  and  C_13
REMARK    4  A    between atoms: C_13  and  C_15
REMARK                            x       y       z     vdW  Elec       q    Type
REMARK                         _______ _______ _______ _____ _____    ______ ____
ROOT
ATOM      1  N   UNL     1       2.446   7.640  18.693  0.00  0.00    +0.000 N 
ATOM      2  C   UNL     1       1.656   8.328  19.618  0.00  0.00    +0.000 A 
ATOM      3  N   UNL     1       1.432   7.830  20.839  0.00  0.00    +0.000 NA
ATOM      4  C   UNL     1       0.624   8.510  21.662  0.00  0.00    +0.000 A 
ATOM      5  C   UNL     1       0.020   9.688  21.314  0.00  0.00    +0.000 A 
ATOM      6  C   UNL     1       0.278  10.150  20.037  0.00  0.00    +0.000 A 
ATOM      7  N   UNL     1       1.108   9.478  19.191  0.00  0.00    +0.000 NA
ATOM      8  H   UNL     1       2.424   8.137  17.813  0.00  0.00    +0.000 HD
ENDROOT
BRANCH   1  12
ATOM      9  C   UNL     1       3.376   3.516  18.576  0.00  0.00    +0.000 A 
ATOM     10  C   UNL     1       2.266   4.019  17.896  0.00  0.00    +0.000 A 
ATOM     11  C   UNL     1       1.987   5.390  17.924  0.00  0.00    +0.000 A 
ATOM     12  C   UNL     1       2.798   6.281  18.642  0.00  0.00    +0.000 A 
ATOM     13  C   UNL     1       3.934   5.759  19.274  0.00  0.00    +0.000 A 
ATOM     14  C   UNL     1       4.218   4.391  19.259  0.00  0.00    +0.000 A 
BRANCH   9  16
ATOM     15  N   UNL     1       3.883   0.976  18.574  0.00  0.00    +0.000 NA
ATOM     16  C   UNL     1       3.655   2.114  18.574  0.00  0.00    +0.000 C 
ENDBRANCH   9  16
ENDBRANCH   1  12
BRANCH   6  17
ATOM     17  C   UNL     1      -0.309  11.452  19.510  0.00  0.00    +0.000 C 
ATOM     18 CL   UNL     1       0.845  12.407  18.523  0.00  0.00    +0.000 Cl
BRANCH  17  19
ATOM     19  C   UNL     1      -1.636  11.245  18.796  0.00  0.00    +0.000 A 
ATOM     20  C   UNL     1      -1.657  10.452  17.634  0.00  0.00    +0.000 A 
ATOM     21  C   UNL     1      -2.828  10.295  16.891  0.00  0.00    +0.000 A 
ATOM     22  C   UNL     1      -4.001  10.925  17.300  0.00  0.00    +0.000 A 
ATOM     23  C   UNL     1      -3.997  11.706  18.453  0.00  0.00    +0.000 A 
ATOM     24 BR   UNL     1      -5.590  12.559  19.008  0.00  0.00    +0.000 Br
ATOM     25  C   UNL     1      -2.826  11.875  19.197  0.00  0.00    +0.000 A 
ENDBRANCH  17  19
ENDBRANCH   6  17
TORSDOF 4
ENDMDL
MODEL 9
REMARK VINA RESULT:      -7.5      1.312      1.834
REMARK  Name = 
REMARK  4 active torsions:
REMARK  status: ('A' for Active; 'I' for Inactive)
REMARK    1  A    between atoms: C_2  and  C_3
REMARK    2  A    between atoms: C_6  and  N_7
REMARK    3  A    between atoms: C_12  and  C_13
REMARK    4  A    between atoms: C_13  and  C_15
REMARK                            x       y       z     vdW  Elec       q    Type
REMARK                         _______ _______ _______ _____ _____    ______ ____
ROOT
ATOM      1  N   UNL     1       1.257   8.989  21.340  0.00  0.00    +0.000 N 
ATOM      2  C   UNL     1       1.595   8.641  20.030  0.00  0.00    +0.000 A 
ATOM      3  N   UNL     1       1.429   9.505  19.022  0.00  0.00    +0.000 NA
ATOM      4  C   UNL     1       1.721   9.094  17.782  0.00  0.00    +0.000 A 
ATOM      5  C   UNL     1       2.181   7.836  17.498  0.00  0.00    +0.000 A 
ATOM      6  C   UNL     1       2.323   6.982  18.575  0.00  0.00    +0.000 A 
ATOM      7  N   UNL     1       2.043   7.387  19.846  0.00  0.00    +0.000 NA
ATOM      8  H   UNL     1       1.377   8.180  21.934  0.00  0.00    +0.000 HD
ENDROOT
BRANCH   1  12
ATOM      9  C   UNL     1      -1.211  12.106  22.785  0.00  0.00    +0.000 A 
ATOM     10  C   UNL     1      -0.278  12.341  21.774  0.00  0.00    +0.000 A 
ATOM     11  C   UNL     1       0.513  11.293  21.290  0.00  0.00    +0.000 A 
ATOM     12  C   UNL     1       0.400   9.997  21.813  0.00  0.00    +0.000 A 
ATOM     13  C   UNL     1      -0.578   9.775  22.791  0.00  0.00    +0.000 A 
ATOM     14  C   UNL     1      -1.367  10.816  23.288  0.00  0.00    +0.000 A 
BRANCH   9  16
ATOM     15  N   UNL     1      -2.646  14.046  23.724  0.00  0.00    +0.000 NA
ATOM     16  C   UNL     1      -2.005  13.175  23.304  0.00  0.00    +0.000 C 
ENDBRANCH   9  16
ENDBRANCH   1  12
BRANCH   6  17
ATOM     17  C   UNL     1       2.837   5.558  18.421  0.00  0.00    +0.000 C 
ATOM     18 CL   UNL     1       1.636   4.441  17.694  0.00  0.00    +0.000 Cl
BRANCH  17  19
ATOM     19  C   UNL     1       4.178   5.497  17.707  0.00  0.00    +0.000 A 
ATOM     20  C   UNL     1       4.441   4.405  16.860  0.00  0.00    +0.000 A 
ATOM     21  C   UNL     1       5.684   4.253  16.245  0.00  0.00    +0.000 A 
ATOM     22  C   UNL     1       6.687   5.195  16.462  0.00  0.00    +0.000 A 
ATOM     23  C   UNL     1       6.438   6.287  17.291  0.00  0.00    +0.000 A 
ATOM     24 BR   UNL     1       7.800   7.566  17.583  0.00  0.00    +0.000 Br
ATOM     25  C   UNL     1       5.199   6.440  17.917  0.00  0.00    +0.000 A 
ENDBRANCH  17  19
ENDBRANCH   6  17
TORSDOF 4
ENDMDL
