MODEL 1
REMARK VINA RESULT:      -8.1      0.000      0.000
REMARK  Name = 
REMARK  4 active torsions:
REMARK  status: ('A' for Active; 'I' for Inactive)
REMARK    1  A    between atoms: O_1  and  C_2
REMARK    2  A    between atoms: N_11  and  C_12
REMARK    3  A    between atoms: C_12  and  C_13
REMARK    4  A    between atoms: C_13  and  N_14
REMARK                            x       y       z     vdW  Elec       q    Type
REMARK                         _______ _______ _______ _____ _____    ______ ____
ROOT
ATOM      1  C   UNL     1       3.801   2.435  19.846  0.00  0.00    +0.000 C 
ATOM      2  C   UNL     1       3.185   2.711  21.210  0.00  0.00    +0.000 C 
ATOM      3  C   UNL     1       2.173   3.826  20.938  0.00  0.00    +0.000 C 
ATOM      4  N   UNL     1       2.704   4.522  19.771  0.00  0.00    +0.000 N 
ATOM      5  C   UNL     1       2.465   5.863  19.557  0.00  0.00    +0.000 A 
ATOM      6  C   UNL     1       2.947   6.476  18.415  0.00  0.00    +0.000 A 
ATOM      7  C   UNL     1       2.646   7.799  18.236  0.00  0.00    +0.000 A 
ATOM      8  N   UNL     1       1.924   8.506  19.108  0.00  0.00    +0.000 NA
ATOM      9  C   UNL     1       1.491   7.865  20.201  0.00  0.00    +0.000 A 
ATOM     10  N   UNL     1       0.742   8.568  21.143  0.00  0.00    +0.000 N 
ATOM     11  N   UNL     1       1.728   6.566  20.447  0.00  0.00    +0.000 NA
ATOM     12  C   UNL     1       3.873   3.834  19.227  0.00  0.00    +0.000 C 
ATOM     13  H   UNL     1       0.774   8.022  21.998  0.00  0.00    +0.000 HD
ENDROOT
BRANCH   1  14
ATOM     14  O   UNL     1       5.083   1.840  19.963  0.00  0.00    +0.000 OA
ATOM     15  H   UNL     1       5.382   1.611  19.066  0.00  0.00    +0.000 HD
ENDBRANCH   1  14
BRANCH  10  16
ATOM     16  C   UNL     1       1.098   9.980  21.280  0.00  0.00    +0.000 C 
BRANCH  16  17
ATOM     17  C   UNL     1      -0.162  10.880  21.238  0.00  0.00    +0.000 C 
BRANCH  17  18
ATOM     18  N   UNL     1      -0.577  11.326  19.887  0.00  0.00    +0.000 NA
ATOM     19  C   UNL     1      -1.521  12.460  19.956  0.00  0.00    +0.000 C 
ATOM     20  C   UNL     1      -2.991  12.139  19.640  0.00  0.00    +0.000 C 
ATOM     21  C   UNL     1      -3.073  11.469  18.296  0.00  0.00    +0.000 A 
ATOM     22  C   UNL     1      -4.114  11.706  17.396  0.00  0.00    +0.000 A 
ATOM     23  C   UNL     1      -4.132  11.046  16.167  0.00  0.00    +0.000 A 
ATOM     24  C   UNL     1      -3.118  10.146  15.839  0.00  0.00    +0.000 A 
ATOM     25  C   UNL     1      -2.088   9.892  16.745  0.00  0.00    +0.000 A 
ATOM     26  C   UNL     1      -2.058  10.555  17.978  0.00  0.00    +0.000 A 
ATOM     27  C   UNL     1      -1.043  10.204  19.044  0.00  0.00    +0.000 C 
ENDBRANCH  17  18
ENDBRANCH  16  17
ENDBRANCH  10  16
TORSDOF 4
ENDMDL
MODEL 2
REMARK VINA RESULT:      -7.9      3.858      8.378
REMARK  Name = 
REMARK  4 active torsions:
REMARK  status: ('A' for Active; 'I' for Inactive)
REMARK    1  A    between atoms: O_1  and  C_2
REMARK    2  A    between atoms: N_11  and  C_12
REMARK    3  A    between atoms: C_12  and  C_13
REMARK    4  A    between atoms: C_13  and  N_14
REMARK                            x       y       z     vdW  Elec       q    Type
REMARK                         _______ _______ _______ _____ _____    ______ ____
ROOT
ATOM      1  C   UNL     1      -0.022  11.475  21.897  0.00  0.00    +0.000 C 
ATOM      2  C   UNL     1      -0.485  10.315  22.766  0.00  0.00    +0.000 C 
ATOM      3  C   UNL     1       0.527   9.206  22.470  0.00  0.00    +0.000 C 
ATOM      4  N   UNL     1       0.998   9.495  21.120  0.00  0.00    +0.000 N 
ATOM      5  C   UNL     1       1.430   8.495  20.274  0.00  0.00    +0.000 A 
ATOM      6  C   UNL     1       1.913   8.814  19.018  0.00  0.00    +0.000 A 
ATOM      7  C   UNL     1       2.364   7.786  18.237  0.00  0.00    +0.000 A 
ATOM      8  N   UNL     1       2.349   6.510  18.632  0.00  0.00    +0.000 NA
ATOM      9  C   UNL     1       1.862   6.257  19.853  0.00  0.00    +0.000 A 
ATOM     10  N   UNL     1       1.819   4.939  20.303  0.00  0.00    +0.000 N 
ATOM     11  N   UNL     1       1.413   7.209  20.690  0.00  0.00    +0.000 NA
ATOM     12  C   UNL     1       0.467  10.765  20.630  0.00  0.00    +0.000 C 
ATOM     13  H   UNL     1       1.165   4.923  21.079  0.00  0.00    +0.000 HD
ENDROOT
BRANCH   1  14
ATOM     14  O   UNL     1      -1.080  12.379  21.624  0.00  0.00    +0.000 OA
ATOM     15  H   UNL     1      -1.018  13.105  22.268  0.00  0.00    +0.000 HD
ENDBRANCH   1  14
BRANCH  10  16
ATOM     16  C   UNL     1       1.584   3.943  19.258  0.00  0.00    +0.000 C 
BRANCH  16  17
ATOM     17  C   UNL     1       2.489   2.701  19.458  0.00  0.00    +0.000 C 
BRANCH  17  18
ATOM     18  N   UNL     1       3.784   2.737  18.737  0.00  0.00    +0.000 NA
ATOM     19  C   UNL     1       4.855   3.314  19.573  0.00  0.00    +0.000 C 
ATOM     20  C   UNL     1       5.305   4.739  19.211  0.00  0.00    +0.000 C 
ATOM     21  C   UNL     1       5.692   4.781  17.759  0.00  0.00    +0.000 A 
ATOM     22  C   UNL     1       6.763   5.543  17.285  0.00  0.00    +0.000 A 
ATOM     23  C   UNL     1       7.066   5.541  15.923  0.00  0.00    +0.000 A 
ATOM     24  C   UNL     1       6.299   4.786  15.035  0.00  0.00    +0.000 A 
ATOM     25  C   UNL     1       5.216   4.041  15.504  0.00  0.00    +0.000 A 
ATOM     26  C   UNL     1       4.910   4.031  16.870  0.00  0.00    +0.000 A 
ATOM     27  C   UNL     1       3.665   3.355  17.399  0.00  0.00    +0.000 C 
ENDBRANCH  17  18
ENDBRANCH  16  17
ENDBRANCH  10  16
TORSDOF 4
ENDMDL
MODEL 3
REMARK VINA RESULT:      -7.9      3.619      8.569
REMARK  Name = 
REMARK  4 active torsions:
REMARK  status: ('A' for Active; 'I' for Inactive)
REMARK    1  A    between atoms: O_1  and  C_2
REMARK    2  A    between atoms: N_11  and  C_12
REMARK    3  A    between atoms: C_12  and  C_13
REMARK    4  A    between atoms: C_13  and  N_14
REMARK                            x       y       z     vdW  Elec       q    Type
REMARK                         _______ _______ _______ _____ _____    ______ ____
ROOT
ATOM      1  C   UNL     1      -0.722  12.541  19.824  0.00  0.00    +0.000 C 
ATOM      2  C   UNL     1      -1.104  11.611  20.966  0.00  0.00    +0.000 C 
ATOM      3  C   UNL     1       0.080  10.646  21.067  0.00  0.00    +0.000 C 
ATOM      4  N   UNL     1       0.642  10.619  19.721  0.00  0.00    +0.000 N 
ATOM      5  C   UNL     1       1.295   9.507  19.231  0.00  0.00    +0.000 A 
ATOM      6  C   UNL     1       1.854   9.537  17.966  0.00  0.00    +0.000 A 
ATOM      7  C   UNL     1       2.524   8.419  17.548  0.00  0.00    +0.000 A 
ATOM      8  N   UNL     1       2.648   7.321  18.298  0.00  0.00    +0.000 NA
ATOM      9  C   UNL     1       2.079   7.344  19.509  0.00  0.00    +0.000 A 
ATOM     10  N   UNL     1       2.177   6.216  20.322  0.00  0.00    +0.000 N 
ATOM     11  N   UNL     1       1.418   8.404  20.003  0.00  0.00    +0.000 NA
ATOM     12  C   UNL     1      -0.011  11.595  18.851  0.00  0.00    +0.000 C 
ATOM     13  H   UNL     1       1.456   6.310  21.030  0.00  0.00    +0.000 HD
ENDROOT
BRANCH   1  14
ATOM     14  O   UNL     1      -1.864  13.145  19.238  0.00  0.00    +0.000 OA
ATOM     15  H   UNL     1      -2.404  12.434  18.850  0.00  0.00    +0.000 HD
ENDBRANCH   1  14
BRANCH  10  16
ATOM     16  C   UNL     1       2.194   4.942  19.603  0.00  0.00    +0.000 C 
BRANCH  16  17
ATOM     17  C   UNL     1       3.304   4.009  20.147  0.00  0.00    +0.000 C 
BRANCH  17  18
ATOM     18  N   UNL     1       4.391   3.691  19.191  0.00  0.00    +0.000 NA
ATOM     19  C   UNL     1       5.636   4.412  19.525  0.00  0.00    +0.000 C 
ATOM     20  C   UNL     1       6.002   5.594  18.612  0.00  0.00    +0.000 C 
ATOM     21  C   UNL     1       6.034   5.123  17.185  0.00  0.00    +0.000 A 
ATOM     22  C   UNL     1       6.969   5.589  16.257  0.00  0.00    +0.000 A 
ATOM     23  C   UNL     1       6.940   5.115  14.945  0.00  0.00    +0.000 A 
ATOM     24  C   UNL     1       5.977   4.183  14.557  0.00  0.00    +0.000 A 
ATOM     25  C   UNL     1       5.029   3.732  15.477  0.00  0.00    +0.000 A 
ATOM     26  C   UNL     1       5.055   4.197  16.797  0.00  0.00    +0.000 A 
ATOM     27  C   UNL     1       3.964   3.846  17.784  0.00  0.00    +0.000 C 
ENDBRANCH  17  18
ENDBRANCH  16  17
ENDBRANCH  10  16
TORSDOF 4
ENDMDL
MODEL 4
REMARK VINA RESULT:      -7.7      3.769      8.756
REMARK  Name = 
REMARK  4 active torsions:
REMARK  status: ('A' for Active; 'I' for Inactive)
REMARK    1  A    between atoms: O_1  and  C_2
REMARK    2  A    between atoms: N_11  and  C_12
REMARK    3  A    between atoms: C_12  and  C_13
REMARK    4  A    between atoms: C_13  and  N_14
REMARK                            x       y       z     vdW  Elec       q    Type
REMARK                         _______ _______ _______ _____ _____    ______ ____
ROOT
ATOM      1  C   UNL     1      -2.013  12.556  22.136  0.00  0.00    +0.000 C 
ATOM      2  C   UNL     1      -1.807  11.396  23.099  0.00  0.00    +0.000 C 
ATOM      3  C   UNL     1      -0.472  10.788  22.662  0.00  0.00    +0.000 C 
ATOM      4  N   UNL     1      -0.368  11.118  21.246  0.00  0.00    +0.000 N 
ATOM      5  C   UNL     1       0.323  10.314  20.363  0.00  0.00    +0.000 A 
ATOM      6  C   UNL     1       0.437  10.685  19.036  0.00  0.00    +0.000 A 
ATOM      7  C   UNL     1       1.167   9.870  18.215  0.00  0.00    +0.000 A 
ATOM      8  N   UNL     1       1.754   8.748  18.638  0.00  0.00    +0.000 NA
ATOM      9  C   UNL     1       1.603   8.432  19.930  0.00  0.00    +0.000 A 
ATOM     10  N   UNL     1       2.192   7.265  20.412  0.00  0.00    +0.000 N 
ATOM     11  N   UNL     1       0.917   9.184  20.807  0.00  0.00    +0.000 NA
ATOM     12  C   UNL     1      -1.456  11.998  20.822  0.00  0.00    +0.000 C 
ATOM     13  H   UNL     1       1.727   7.051  21.289  0.00  0.00    +0.000 HD
ENDROOT
BRANCH   1  14
ATOM     14  O   UNL     1      -3.383  12.906  22.025  0.00  0.00    +0.000 OA
ATOM     15  H   UNL     1      -3.886  12.082  21.904  0.00  0.00    +0.000 HD
ENDBRANCH   1  14
BRANCH  10  16
ATOM     16  C   UNL     1       2.258   6.167  19.447  0.00  0.00    +0.000 C 
BRANCH  16  17
ATOM     17  C   UNL     1       3.080   4.980  20.008  0.00  0.00    +0.000 C 
BRANCH  17  18
ATOM     18  N   UNL     1       3.920   4.266  19.016  0.00  0.00    +0.000 NA
ATOM     19  C   UNL     1       5.338   4.236  19.428  0.00  0.00    +0.000 C 
ATOM     20  C   UNL     1       6.288   5.169  18.658  0.00  0.00    +0.000 C 
ATOM     21  C   UNL     1       6.162   4.895  17.185  0.00  0.00    +0.000 A 
ATOM     22  C   UNL     1       7.255   4.929  16.314  0.00  0.00    +0.000 A 
ATOM     23  C   UNL     1       7.067   4.671  14.956  0.00  0.00    +0.000 A 
ATOM     24  C   UNL     1       5.793   4.386  14.465  0.00  0.00    +0.000 A 
ATOM     25  C   UNL     1       4.697   4.371  15.330  0.00  0.00    +0.000 A 
ATOM     26  C   UNL     1       4.877   4.622  16.695  0.00  0.00    +0.000 A 
ATOM     27  C   UNL     1       3.702   4.757  17.639  0.00  0.00    +0.000 C 
ENDBRANCH  17  18
ENDBRANCH  16  17
ENDBRANCH  10  16
TORSDOF 4
ENDMDL
MODEL 5
REMARK VINA RESULT:      -7.6      6.770      9.320
REMARK  Name = 
REMARK  4 active torsions:
REMARK  status: ('A' for Active; 'I' for Inactive)
REMARK    1  A    between atoms: O_1  and  C_2
REMARK    2  A    between atoms: N_11  and  C_12
REMARK    3  A    between atoms: C_12  and  C_13
REMARK    4  A    between atoms: C_13  and  N_14
REMARK                            x       y       z     vdW  Elec       q    Type
REMARK                         _______ _______ _______ _____ _____    ______ ____
ROOT
ATOM      1  C   UNL     1       2.309   2.891  17.988  0.00  0.00    +0.000 C 
ATOM      2  C   UNL     1       2.179   4.110  18.890  0.00  0.00    +0.000 C 
ATOM      3  C   UNL     1       2.906   5.216  18.122  0.00  0.00    +0.000 C 
ATOM      4  N   UNL     1       3.886   4.507  17.306  0.00  0.00    +0.000 N 
ATOM      5  C   UNL     1       5.080   5.091  16.939  0.00  0.00    +0.000 A 
ATOM      6  C   UNL     1       5.964   4.403  16.127  0.00  0.00    +0.000 A 
ATOM      7  C   UNL     1       7.115   5.047  15.762  0.00  0.00    +0.000 A 
ATOM      8  N   UNL     1       7.414   6.286  16.160  0.00  0.00    +0.000 NA
ATOM      9  C   UNL     1       6.528   6.901  16.954  0.00  0.00    +0.000 A 
ATOM     10  N   UNL     1       6.804   8.192  17.400  0.00  0.00    +0.000 N 
ATOM     11  N   UNL     1       5.368   6.348  17.346  0.00  0.00    +0.000 NA
ATOM     12  C   UNL     1       3.716   3.059  17.406  0.00  0.00    +0.000 C 
ATOM     13  H   UNL     1       6.197   8.355  18.197  0.00  0.00    +0.000 HD
ENDROOT
BRANCH   1  14
ATOM     14  O   UNL     1       2.178   1.683  18.720  0.00  0.00    +0.000 OA
ATOM     15  H   UNL     1       1.334   1.274  18.461  0.00  0.00    +0.000 HD
ENDBRANCH   1  14
BRANCH  10  16
ATOM     16  C   UNL     1       8.223   8.474  17.618  0.00  0.00    +0.000 C 
BRANCH  16  17
ATOM     17  C   UNL     1       8.412   9.645  18.614  0.00  0.00    +0.000 C 
BRANCH  17  18
ATOM     18  N   UNL     1       9.335  10.716  18.166  0.00  0.00    +0.000 NA
ATOM     19  C   UNL     1      10.613  10.674  18.903  0.00  0.00    +0.000 C 
ATOM     20  C   UNL     1      10.824  11.771  19.959  0.00  0.00    +0.000 C 
ATOM     21  C   UNL     1      10.631  13.117  19.318  0.00  0.00    +0.000 A 
ATOM     22  C   UNL     1      11.404  14.232  19.653  0.00  0.00    +0.000 A 
ATOM     23  C   UNL     1      11.169  15.454  19.023  0.00  0.00    +0.000 A 
ATOM     24  C   UNL     1      10.160  15.568  18.066  0.00  0.00    +0.000 A 
ATOM     25  C   UNL     1       9.373  14.461  17.744  0.00  0.00    +0.000 A 
ATOM     26  C   UNL     1       9.607  13.229  18.367  0.00  0.00    +0.000 A 
ATOM     27  C   UNL     1       8.689  12.046  18.154  0.00  0.00    +0.000 C 
ENDBRANCH  17  18
ENDBRANCH  16  17
ENDBRANCH  10  16
TORSDOF 4
ENDMDL
MODEL 6
REMARK VINA RESULT:      -7.5      3.677      8.775
REMARK  Name = 
REMARK  4 active torsions:
REMARK  status: ('A' for Active; 'I' for Inactive)
REMARK    1  A    between atoms: O_1  and  C_2
REMARK    2  A    between atoms: N_11  and  C_12
REMARK    3  A    between atoms: C_12  and  C_13
REMARK    4  A    between atoms: C_13  and  N_14
REMARK                            x       y       z     vdW  Elec       q    Type
REMARK                         _______ _______ _______ _____ _____    ______ ____
ROOT
ATOM      1  C   UNL     1      -6.061  12.776  20.043  0.00  0.00    +0.000 C 
ATOM      2  C   UNL     1      -5.053  12.912  21.174  0.00  0.00    +0.000 C 
ATOM      3  C   UNL     1      -3.697  12.870  20.467  0.00  0.00    +0.000 C 
ATOM      4  N   UNL     1      -3.944  12.100  19.253  0.00  0.00    +0.000 N 
ATOM      5  C   UNL     1      -2.953  11.347  18.659  0.00  0.00    +0.000 A 
ATOM      6  C   UNL     1      -3.214  10.666  17.483  0.00  0.00    +0.000 A 
ATOM      7  C   UNL     1      -2.182   9.968  16.918  0.00  0.00    +0.000 A 
ATOM      8  N   UNL     1      -0.959   9.915  17.452  0.00  0.00    +0.000 NA
ATOM      9  C   UNL     1      -0.765  10.584  18.595  0.00  0.00    +0.000 A 
ATOM     10  N   UNL     1       0.494  10.548  19.192  0.00  0.00    +0.000 N 
ATOM     11  N   UNL     1      -1.718  11.306  19.208  0.00  0.00    +0.000 NA
ATOM     12  C   UNL     1      -5.364  11.795  19.095  0.00  0.00    +0.000 C 
ATOM     13  H   UNL     1       0.362  10.840  20.156  0.00  0.00    +0.000 HD
ENDROOT
BRANCH   1  14
ATOM     14  O   UNL     1      -7.304  12.274  20.507  0.00  0.00    +0.000 OA
ATOM     15  H   UNL     1      -7.563  12.804  21.280  0.00  0.00    +0.000 HD
ENDBRANCH   1  14
BRANCH  10  16
ATOM     16  C   UNL     1       1.226   9.296  19.005  0.00  0.00    +0.000 C 
BRANCH  16  17
ATOM     17  C   UNL     1       1.410   8.550  20.350  0.00  0.00    +0.000 C 
BRANCH  17  18
ATOM     18  N   UNL     1       2.138   7.262  20.267  0.00  0.00    +0.000 NA
ATOM     19  C   UNL     1       2.710   7.048  18.923  0.00  0.00    +0.000 C 
ATOM     20  C   UNL     1       2.000   6.008  18.040  0.00  0.00    +0.000 C 
ATOM     21  C   UNL     1       1.910   4.706  18.786  0.00  0.00    +0.000 A 
ATOM     22  C   UNL     1       2.054   3.465  18.160  0.00  0.00    +0.000 A 
ATOM     23  C   UNL     1       1.954   2.294  18.911  0.00  0.00    +0.000 A 
ATOM     24  C   UNL     1       1.703   2.359  20.283  0.00  0.00    +0.000 A 
ATOM     25  C   UNL     1       1.538   3.596  20.906  0.00  0.00    +0.000 A 
ATOM     26  C   UNL     1       1.644   4.777  20.161  0.00  0.00    +0.000 A 
ATOM     27  C   UNL     1       1.332   6.128  20.767  0.00  0.00    +0.000 C 
ENDBRANCH  17  18
ENDBRANCH  16  17
ENDBRANCH  10  16
TORSDOF 4
ENDMDL
MODEL 7
REMARK VINA RESULT:      -7.5      3.062      4.505
REMARK  Name = 
REMARK  4 active torsions:
REMARK  status: ('A' for Active; 'I' for Inactive)
REMARK    1  A    between atoms: O_1  and  C_2
REMARK    2  A    between atoms: N_11  and  C_12
REMARK    3  A    between atoms: C_12  and  C_13
REMARK    4  A    between atoms: C_13  and  N_14
REMARK                            x       y       z     vdW  Elec       q    Type
REMARK                         _______ _______ _______ _____ _____    ______ ____
ROOT
ATOM      1  C   UNL     1       7.088   4.747  15.858  0.00  0.00    +0.000 C 
ATOM      2  C   UNL     1       7.385   5.819  16.897  0.00  0.00    +0.000 C 
ATOM      3  C   UNL     1       6.447   5.478  18.057  0.00  0.00    +0.000 C 
ATOM      4  N   UNL     1       5.327   4.787  17.427  0.00  0.00    +0.000 N 
ATOM      5  C   UNL     1       4.056   4.831  17.961  0.00  0.00    +0.000 A 
ATOM      6  C   UNL     1       3.030   4.125  17.360  0.00  0.00    +0.000 A 
ATOM      7  C   UNL     1       1.800   4.174  17.956  0.00  0.00    +0.000 A 
ATOM      8  N   UNL     1       1.556   4.870  19.070  0.00  0.00    +0.000 NA
ATOM      9  C   UNL     1       2.583   5.543  19.603  0.00  0.00    +0.000 A 
ATOM     10  N   UNL     1       2.372   6.290  20.760  0.00  0.00    +0.000 N 
ATOM     11  N   UNL     1       3.826   5.536  19.092  0.00  0.00    +0.000 NA
ATOM     12  C   UNL     1       5.576   4.553  16.007  0.00  0.00    +0.000 C 
ATOM     13  H   UNL     1       3.148   6.940  20.827  0.00  0.00    +0.000 HD
ENDROOT
BRANCH   1  14
ATOM     14  O   UNL     1       7.443   5.172  14.552  0.00  0.00    +0.000 OA
ATOM     15  H   UNL     1       8.411   5.112  14.479  0.00  0.00    +0.000 HD
ENDBRANCH   1  14
BRANCH  10  16
ATOM     16  C   UNL     1       1.039   6.882  20.872  0.00  0.00    +0.000 C 
BRANCH  16  17
ATOM     17  C   UNL     1       1.113   8.315  21.457  0.00  0.00    +0.000 C 
BRANCH  17  18
ATOM     18  N   UNL     1      -0.138   9.104  21.361  0.00  0.00    +0.000 NA
ATOM     19  C   UNL     1      -0.205   9.864  20.097  0.00  0.00    +0.000 C 
ATOM     20  C   UNL     1       0.028  11.380  20.203  0.00  0.00    +0.000 C 
ATOM     21  C   UNL     1      -0.925  11.956  21.213  0.00  0.00    +0.000 A 
ATOM     22  C   UNL     1      -1.528  13.207  21.056  0.00  0.00    +0.000 A 
ATOM     23  C   UNL     1      -2.400  13.685  22.034  0.00  0.00    +0.000 A 
ATOM     24  C   UNL     1      -2.665  12.921  23.171  0.00  0.00    +0.000 A 
ATOM     25  C   UNL     1      -2.049  11.680  23.340  0.00  0.00    +0.000 A 
ATOM     26  C   UNL     1      -1.178  11.190  22.360  0.00  0.00    +0.000 A 
ATOM     27  C   UNL     1      -0.382   9.921  22.569  0.00  0.00    +0.000 C 
ENDBRANCH  17  18
ENDBRANCH  16  17
ENDBRANCH  10  16
TORSDOF 4
ENDMDL
MODEL 8
REMARK VINA RESULT:      -7.4      2.157      3.175
REMARK  Name = 
REMARK  4 active torsions:
REMARK  status: ('A' for Active; 'I' for Inactive)
REMARK    1  A    between atoms: O_1  and  C_2
REMARK    2  A    between atoms: N_11  and  C_12
REMARK    3  A    between atoms: C_12  and  C_13
REMARK    4  A    between atoms: C_13  and  N_14
REMARK                            x       y       z     vdW  Elec       q    Type
REMARK                         _______ _______ _______ _____ _____    ______ ____
ROOT
ATOM      1  C   UNL     1       5.812   4.282  16.470  0.00  0.00    +0.000 C 
ATOM      2  C   UNL     1       5.516   5.307  15.384  0.00  0.00    +0.000 C 
ATOM      3  C   UNL     1       5.108   6.560  16.162  0.00  0.00    +0.000 C 
ATOM      4  N   UNL     1       4.570   6.049  17.418  0.00  0.00    +0.000 N 
ATOM      5  C   UNL     1       3.598   6.731  18.120  0.00  0.00    +0.000 A 
ATOM      6  C   UNL     1       3.146   6.237  19.330  0.00  0.00    +0.000 A 
ATOM      7  C   UNL     1       2.210   6.975  20.001  0.00  0.00    +0.000 A 
ATOM      8  N   UNL     1       1.721   8.128  19.536  0.00  0.00    +0.000 NA
ATOM      9  C   UNL     1       2.186   8.554  18.356  0.00  0.00    +0.000 A 
ATOM     10  N   UNL     1       1.697   9.748  17.829  0.00  0.00    +0.000 N 
ATOM     11  N   UNL     1       3.116   7.899  17.640  0.00  0.00    +0.000 NA
ATOM     12  C   UNL     1       4.751   4.603  17.526  0.00  0.00    +0.000 C 
ATOM     13  H   UNL     1       1.927   9.739  16.840  0.00  0.00    +0.000 HD
ENDROOT
BRANCH   1  14
ATOM     14  O   UNL     1       5.693   2.955  15.983  0.00  0.00    +0.000 OA
ATOM     15  H   UNL     1       6.003   2.953  15.061  0.00  0.00    +0.000 HD
ENDBRANCH   1  14
BRANCH  10  16
ATOM     16  C   UNL     1       0.299  10.032  18.151  0.00  0.00    +0.000 C 
BRANCH  16  17
ATOM     17  C   UNL     1       0.140  11.458  18.735  0.00  0.00    +0.000 C 
BRANCH  17  18
ATOM     18  N   UNL     1      -1.140  12.134  18.417  0.00  0.00    +0.000 NA
ATOM     19  C   UNL     1      -1.549  13.058  19.493  0.00  0.00    +0.000 C 
ATOM     20  C   UNL     1      -2.715  12.593  20.381  0.00  0.00    +0.000 C 
ATOM     21  C   UNL     1      -3.891  12.247  19.511  0.00  0.00    +0.000 A 
ATOM     22  C   UNL     1      -5.210  12.520  19.881  0.00  0.00    +0.000 A 
ATOM     23  C   UNL     1      -6.257  12.168  19.028  0.00  0.00    +0.000 A 
ATOM     24  C   UNL     1      -5.989  11.540  17.811  0.00  0.00    +0.000 A 
ATOM     25  C   UNL     1      -4.674  11.248  17.449  0.00  0.00    +0.000 A 
ATOM     26  C   UNL     1      -3.617  11.604  18.296  0.00  0.00    +0.000 A 
ATOM     27  C   UNL     1      -2.193  11.180  18.009  0.00  0.00    +0.000 C 
ENDBRANCH  17  18
ENDBRANCH  16  17
ENDBRANCH  10  16
TORSDOF 4
ENDMDL
MODEL 9
REMARK VINA RESULT:      -7.4      6.840      9.510
REMARK  Name = 
REMARK  4 active torsions:
REMARK  status: ('A' for Active; 'I' for Inactive)
REMARK    1  A    between atoms: O_1  and  C_2
REMARK    2  A    between atoms: N_11  and  C_12
REMARK    3  A    between atoms: C_12  and  C_13
REMARK    4  A    between atoms: C_13  and  N_14
REMARK                            x       y       z     vdW  Elec       q    Type
REMARK                         _______ _______ _______ _____ _____    ______ ____
ROOT
ATOM      1  C   UNL     1       2.206   3.266  19.079  0.00  0.00    +0.000 C 
ATOM      2  C   UNL     1       1.893   4.738  19.303  0.00  0.00    +0.000 C 
ATOM      3  C   UNL     1       2.844   5.466  18.350  0.00  0.00    +0.000 C 
ATOM      4  N   UNL     1       3.973   4.556  18.199  0.00  0.00    +0.000 N 
ATOM      5  C   UNL     1       5.246   5.019  17.936  0.00  0.00    +0.000 A 
ATOM      6  C   UNL     1       6.283   4.122  17.755  0.00  0.00    +0.000 A 
ATOM      7  C   UNL     1       7.516   4.637  17.458  0.00  0.00    +0.000 A 
ATOM      8  N   UNL     1       7.751   5.946  17.348  0.00  0.00    +0.000 NA
ATOM      9  C   UNL     1       6.714   6.769  17.543  0.00  0.00    +0.000 A 
ATOM     10  N   UNL     1       6.916   8.145  17.446  0.00  0.00    +0.000 N 
ATOM     11  N   UNL     1       5.469   6.348  17.822  0.00  0.00    +0.000 NA
ATOM     12  C   UNL     1       3.723   3.279  18.863  0.00  0.00    +0.000 C 
ATOM     13  H   UNL     1       6.127   8.583  17.910  0.00  0.00    +0.000 HD
ENDROOT
BRANCH   1  14
ATOM     14  O   UNL     1       1.835   2.477  20.198  0.00  0.00    +0.000 OA
ATOM     15  H   UNL     1       0.870   2.363  20.169  0.00  0.00    +0.000 HD
ENDBRANCH   1  14
BRANCH  10  16
ATOM     16  C   UNL     1       8.237   8.602  17.877  0.00  0.00    +0.000 C 
BRANCH  16  17
ATOM     17  C   UNL     1       8.363  10.141  17.754  0.00  0.00    +0.000 C 
BRANCH  17  18
ATOM     18  N   UNL     1       9.560  10.732  18.398  0.00  0.00    +0.000 NA
ATOM     19  C   UNL     1       9.373  10.886  19.854  0.00  0.00    +0.000 C 
ATOM     20  C   UNL     1       9.140  12.319  20.361  0.00  0.00    +0.000 C 
ATOM     21  C   UNL     1      10.258  13.201  19.879  0.00  0.00    +0.000 A 
ATOM     22  C   UNL     1      10.800  14.228  20.656  0.00  0.00    +0.000 A 
ATOM     23  C   UNL     1      11.833  15.014  20.146  0.00  0.00    +0.000 A 
ATOM     24  C   UNL     1      12.322  14.781  18.860  0.00  0.00    +0.000 A 
ATOM     25  C   UNL     1      11.769  13.769  18.074  0.00  0.00    +0.000 A 
ATOM     26  C   UNL     1      10.736  12.971  18.581  0.00  0.00    +0.000 A 
ATOM     27  C   UNL     1      10.014  11.962  17.715  0.00  0.00    +0.000 C 
ENDBRANCH  17  18
ENDBRANCH  16  17
ENDBRANCH  10  16
TORSDOF 4
ENDMDL
