MODEL 1
REMARK VINA RESULT:      -7.5      0.000      0.000
REMARK  Name = 
REMARK  11 active torsions:
REMARK  status: ('A' for Active; 'I' for Inactive)
REMARK    1  A    between atoms: C_2  and  C_3
REMARK    2  A    between atoms: C_3  and  C_4
REMARK    3  A    between atoms: C_3  and  N_8
REMARK    4  A    between atoms: C_4  and  C_5
REMARK    5  A    between atoms: C_5  and  O_7
REMARK    6  A    between atoms: N_8  and  S_9
REMARK    7  A    between atoms: S_9  and  C_12
REMARK    8  A    between atoms: C_17  and  O_18
REMARK    9  A    between atoms: O_18  and  C_19
REMARK   10  A    between atoms: C_19  and  C_20
REMARK   11  A    between atoms: C_20  and  C_21
REMARK                            x       y       z     vdW  Elec       q    Type
REMARK                         _______ _______ _______ _____ _____    ______ ____
ROOT
ATOM      1  C   UNL     1       2.887   3.354  19.307  0.00  0.00    +0.000 A 
ATOM      2  C   UNL     1       2.437   2.260  20.090  0.00  0.00    +0.000 A 
ATOM      3  C   UNL     1       2.006   2.434  21.398  0.00  0.00    +0.000 A 
ATOM      4  C   UNL     1       1.957   3.710  21.922  0.00  0.00    +0.000 A 
ATOM      5  C   UNL     1       2.348   4.800  21.142  0.00  0.00    +0.000 A 
ATOM      6  C   UNL     1       2.863   4.664  19.831  0.00  0.00    +0.000 A 
ENDROOT
BRANCH   1   7
ATOM      7  S   UNL     1       3.377   2.891  17.656  0.00  0.00    +0.000 S 
ATOM      8  O   UNL     1       2.445   3.422  16.689  0.00  0.00    +0.000 OA
ATOM      9  O   UNL     1       3.714   1.489  17.706  0.00  0.00    +0.000 OA
BRANCH   7  10
ATOM     10  N   UNL     1       4.861   3.724  17.425  0.00  0.00    +0.000 NA
ATOM     11  H   UNL     1       5.129   4.290  18.240  0.00  0.00    +0.000 HD
BRANCH  10  12
ATOM     12  C   UNL     1       5.039   4.489  16.158  0.00  0.00    +0.000 C 
BRANCH  12  14
ATOM     13  O   UNL     1       6.084   3.574  14.161  0.00  0.00    +0.000 OA
ATOM     14  C   UNL     1       6.171   3.871  15.347  0.00  0.00    +0.000 C 
ENDBRANCH  12  14
BRANCH  12  15
ATOM     15  C   UNL     1       5.263   5.985  16.358  0.00  0.00    +0.000 C 
BRANCH  15  16
ATOM     16  C   UNL     1       6.523   6.285  17.128  0.00  0.00    +0.000 C 
ATOM     17  O   UNL     1       7.549   6.726  16.634  0.00  0.00    +0.000 OA
BRANCH  16  18
ATOM     18  O   UNL     1       6.428   5.937  18.431  0.00  0.00    +0.000 OA
ATOM     19  H   UNL     1       7.206   5.456  18.774  0.00  0.00    +0.000 HD
ENDBRANCH  16  18
ENDBRANCH  15  16
ENDBRANCH  12  15
ENDBRANCH  10  12
ENDBRANCH   7  10
ENDBRANCH   1   7
BRANCH   6  20
ATOM     20  O   UNL     1       3.322   5.781  19.130  0.00  0.00    +0.000 OA
BRANCH  20  21
ATOM     21  C   UNL     1       2.266   6.534  18.468  0.00  0.00    +0.000 C 
BRANCH  21  22
ATOM     22  C   UNL     1       2.340   8.080  18.459  0.00  0.00    +0.000 C 
BRANCH  22  23
ATOM     23  C   UNL     1       1.448   8.665  19.578  0.00  0.00    +0.000 A 
ATOM     24  C   UNL     1       1.750   8.291  20.907  0.00  0.00    +0.000 A 
ATOM     25  C   UNL     1       1.084   8.848  21.997  0.00  0.00    +0.000 A 
ATOM     26  C   UNL     1       0.105   9.809  21.792  0.00  0.00    +0.000 A 
ATOM     27  C   UNL     1      -0.245  10.202  20.497  0.00  0.00    +0.000 A 
ATOM     28  C   UNL     1      -1.234  11.187  20.343  0.00  0.00    +0.000 A 
ATOM     29  C   UNL     1      -1.646  11.597  19.081  0.00  0.00    +0.000 A 
ATOM     30  C   UNL     1      -1.089  10.996  17.959  0.00  0.00    +0.000 A 
ATOM     31  C   UNL     1      -0.088  10.022  18.097  0.00  0.00    +0.000 A 
ATOM     32  C   UNL     1       0.393   9.612  19.363  0.00  0.00    +0.000 A 
ENDBRANCH  22  23
ENDBRANCH  21  22
ENDBRANCH  20  21
ENDBRANCH   6  20
TORSDOF 11
ENDMDL
MODEL 2
REMARK VINA RESULT:      -7.4      1.477      2.391
REMARK  Name = 
REMARK  11 active torsions:
REMARK  status: ('A' for Active; 'I' for Inactive)
REMARK    1  A    between atoms: C_2  and  C_3
REMARK    2  A    between atoms: C_3  and  C_4
REMARK    3  A    between atoms: C_3  and  N_8
REMARK    4  A    between atoms: C_4  and  C_5
REMARK    5  A    between atoms: C_5  and  O_7
REMARK    6  A    between atoms: N_8  and  S_9
REMARK    7  A    between atoms: S_9  and  C_12
REMARK    8  A    between atoms: C_17  and  O_18
REMARK    9  A    between atoms: O_18  and  C_19
REMARK   10  A    between atoms: C_19  and  C_20
REMARK   11  A    between atoms: C_20  and  C_21
REMARK                            x       y       z     vdW  Elec       q    Type
REMARK                         _______ _______ _______ _____ _____    ______ ____
ROOT
ATOM      1  C   UNL     1       3.292   4.419  19.224  0.00  0.00    +0.000 A 
ATOM      2  C   UNL     1       3.600   3.180  19.843  0.00  0.00    +0.000 A 
ATOM      3  C   UNL     1       2.847   2.692  20.902  0.00  0.00    +0.000 A 
ATOM      4  C   UNL     1       1.738   3.402  21.318  0.00  0.00    +0.000 A 
ATOM      5  C   UNL     1       1.396   4.597  20.681  0.00  0.00    +0.000 A 
ATOM      6  C   UNL     1       2.174   5.169  19.648  0.00  0.00    +0.000 A 
ENDROOT
BRANCH   1   7
ATOM      7  S   UNL     1       4.387   4.832  17.879  0.00  0.00    +0.000 S 
ATOM      8  O   UNL     1       4.644   6.253  17.860  0.00  0.00    +0.000 OA
ATOM      9  O   UNL     1       3.896   4.126  16.720  0.00  0.00    +0.000 OA
BRANCH   7  10
ATOM     10  N   UNL     1       5.863   4.066  18.308  0.00  0.00    +0.000 NA
ATOM     11  H   UNL     1       5.922   3.851  19.311  0.00  0.00    +0.000 HD
BRANCH  10  12
ATOM     12  C   UNL     1       7.131   4.675  17.813  0.00  0.00    +0.000 C 
BRANCH  12  14
ATOM     13  O   UNL     1       7.334   5.566  20.068  0.00  0.00    +0.000 OA
ATOM     14  C   UNL     1       7.837   5.380  18.965  0.00  0.00    +0.000 C 
ENDBRANCH  12  14
BRANCH  12  15
ATOM     15  C   UNL     1       6.950   5.615  16.626  0.00  0.00    +0.000 C 
BRANCH  15  16
ATOM     16  C   UNL     1       7.119   4.917  15.302  0.00  0.00    +0.000 C 
ATOM     17  O   UNL     1       7.779   5.347  14.368  0.00  0.00    +0.000 OA
BRANCH  16  18
ATOM     18  O   UNL     1       6.390   3.781  15.220  0.00  0.00    +0.000 OA
ATOM     19  H   UNL     1       5.850   3.592  16.012  0.00  0.00    +0.000 HD
ENDBRANCH  16  18
ENDBRANCH  15  16
ENDBRANCH  12  15
ENDBRANCH  10  12
ENDBRANCH   7  10
ENDBRANCH   1   7
BRANCH   6  20
ATOM     20  O   UNL     1       1.832   6.411  19.108  0.00  0.00    +0.000 OA
BRANCH  20  21
ATOM     21  C   UNL     1       1.966   7.516  20.048  0.00  0.00    +0.000 C 
BRANCH  21  22
ATOM     22  C   UNL     1       1.451   8.916  19.636  0.00  0.00    +0.000 C 
BRANCH  22  23
ATOM     23  C   UNL     1       0.555   9.505  20.751  0.00  0.00    +0.000 A 
ATOM     24  C   UNL     1       0.732   8.997  22.057  0.00  0.00    +0.000 A 
ATOM     25  C   UNL     1       0.060   9.536  23.153  0.00  0.00    +0.000 A 
ATOM     26  C   UNL     1      -0.799  10.611  22.976  0.00  0.00    +0.000 A 
ATOM     27  C   UNL     1      -1.025  11.139  21.702  0.00  0.00    +0.000 A 
ATOM     28  C   UNL     1      -1.896  12.234  21.578  0.00  0.00    +0.000 A 
ATOM     29  C   UNL     1      -2.182  12.783  20.335  0.00  0.00    +0.000 A 
ATOM     30  C   UNL     1      -1.621  12.216  19.198  0.00  0.00    +0.000 A 
ATOM     31  C   UNL     1      -0.736  11.132  19.308  0.00  0.00    +0.000 A 
ATOM     32  C   UNL     1      -0.381  10.574  20.559  0.00  0.00    +0.000 A 
ENDBRANCH  22  23
ENDBRANCH  21  22
ENDBRANCH  20  21
ENDBRANCH   6  20
TORSDOF 11
ENDMDL
MODEL 3
REMARK VINA RESULT:      -7.4      2.014      4.508
REMARK  Name = 
REMARK  11 active torsions:
REMARK  status: ('A' for Active; 'I' for Inactive)
REMARK    1  A    between atoms: C_2  and  C_3
REMARK    2  A    between atoms: C_3  and  C_4
REMARK    3  A    between atoms: C_3  and  N_8
REMARK    4  A    between atoms: C_4  and  C_5
REMARK    5  A    between atoms: C_5  and  O_7
REMARK    6  A    between atoms: N_8  and  S_9
REMARK    7  A    between atoms: S_9  and  C_12
REMARK    8  A    between atoms: C_17  and  O_18
REMARK    9  A    between atoms: O_18  and  C_19
REMARK   10  A    between atoms: C_19  and  C_20
REMARK   11  A    between atoms: C_20  and  C_21
REMARK                            x       y       z     vdW  Elec       q    Type
REMARK                         _______ _______ _______ _____ _____    ______ ____
ROOT
ATOM      1  C   UNL     1       5.285   5.215  17.467  0.00  0.00    +0.000 A 
ATOM      2  C   UNL     1       5.779   4.155  16.664  0.00  0.00    +0.000 A 
ATOM      3  C   UNL     1       5.879   4.276  15.285  0.00  0.00    +0.000 A 
ATOM      4  C   UNL     1       5.549   5.478  14.693  0.00  0.00    +0.000 A 
ATOM      5  C   UNL     1       5.111   6.546  15.479  0.00  0.00    +0.000 A 
ATOM      6  C   UNL     1       4.924   6.446  16.878  0.00  0.00    +0.000 A 
ENDROOT
BRANCH   1   7
ATOM      7  S   UNL     1       5.261   4.836  19.209  0.00  0.00    +0.000 S 
ATOM      8  O   UNL     1       4.048   5.334  19.814  0.00  0.00    +0.000 OA
ATOM      9  O   UNL     1       6.568   5.175  19.720  0.00  0.00    +0.000 OA
BRANCH   7  10
ATOM     10  N   UNL     1       5.170   3.121  19.249  0.00  0.00    +0.000 NA
ATOM     11  H   UNL     1       4.980   2.712  18.325  0.00  0.00    +0.000 HD
BRANCH  10  12
ATOM     12  C   UNL     1       4.316   2.495  20.299  0.00  0.00    +0.000 C 
BRANCH  12  14
ATOM     13  O   UNL     1       5.677   1.192  21.837  0.00  0.00    +0.000 OA
ATOM     14  C   UNL     1       4.995   1.235  20.819  0.00  0.00    +0.000 C 
ENDBRANCH  12  14
BRANCH  12  15
ATOM     15  C   UNL     1       2.888   2.201  19.848  0.00  0.00    +0.000 C 
BRANCH  15  16
ATOM     16  C   UNL     1       1.855   2.833  20.744  0.00  0.00    +0.000 C 
ATOM     17  O   UNL     1       0.904   3.492  20.350  0.00  0.00    +0.000 OA
BRANCH  16  18
ATOM     18  O   UNL     1       2.133   2.661  22.056  0.00  0.00    +0.000 OA
ATOM     19  H   UNL     1       3.083   2.711  22.275  0.00  0.00    +0.000 HD
ENDBRANCH  16  18
ENDBRANCH  15  16
ENDBRANCH  12  15
ENDBRANCH  10  12
ENDBRANCH   7  10
ENDBRANCH   1   7
BRANCH   6  20
ATOM     20  O   UNL     1       4.399   7.519  17.602  0.00  0.00    +0.000 OA
BRANCH  20  21
ATOM     21  C   UNL     1       2.945   7.509  17.695  0.00  0.00    +0.000 C 
BRANCH  21  22
ATOM     22  C   UNL     1       2.189   8.857  17.773  0.00  0.00    +0.000 C 
BRANCH  22  23
ATOM     23  C   UNL     1       1.436   8.971  19.118  0.00  0.00    +0.000 A 
ATOM     24  C   UNL     1       1.753   8.025  20.118  0.00  0.00    +0.000 A 
ATOM     25  C   UNL     1       1.220   8.106  21.404  0.00  0.00    +0.000 A 
ATOM     26  C   UNL     1       0.363   9.147  21.731  0.00  0.00    +0.000 A 
ATOM     27  C   UNL     1       0.001  10.099  20.774  0.00  0.00    +0.000 A 
ATOM     28  C   UNL     1      -0.861  11.139  21.159  0.00  0.00    +0.000 A 
ATOM     29  C   UNL     1      -1.279  12.098  20.245  0.00  0.00    +0.000 A 
ATOM     30  C   UNL     1      -0.860  12.002  18.924  0.00  0.00    +0.000 A 
ATOM     31  C   UNL     1       0.014  10.977  18.528  0.00  0.00    +0.000 A 
ATOM     32  C   UNL     1       0.501  10.010  19.439  0.00  0.00    +0.000 A 
ENDBRANCH  22  23
ENDBRANCH  21  22
ENDBRANCH  20  21
ENDBRANCH   6  20
TORSDOF 11
ENDMDL
MODEL 4
REMARK VINA RESULT:      -7.4      1.412      2.814
REMARK  Name = 
REMARK  11 active torsions:
REMARK  status: ('A' for Active; 'I' for Inactive)
REMARK    1  A    between atoms: C_2  and  C_3
REMARK    2  A    between atoms: C_3  and  C_4
REMARK    3  A    between atoms: C_3  and  N_8
REMARK    4  A    between atoms: C_4  and  C_5
REMARK    5  A    between atoms: C_5  and  O_7
REMARK    6  A    between atoms: N_8  and  S_9
REMARK    7  A    between atoms: S_9  and  C_12
REMARK    8  A    between atoms: C_17  and  O_18
REMARK    9  A    between atoms: O_18  and  C_19
REMARK   10  A    between atoms: C_19  and  C_20
REMARK   11  A    between atoms: C_20  and  C_21
REMARK                            x       y       z     vdW  Elec       q    Type
REMARK                         _______ _______ _______ _____ _____    ______ ____
ROOT
ATOM      1  C   UNL     1       3.035   3.647  18.945  0.00  0.00    +0.000 A 
ATOM      2  C   UNL     1       2.371   2.432  18.640  0.00  0.00    +0.000 A 
ATOM      3  C   UNL     1       1.116   2.142  19.157  0.00  0.00    +0.000 A 
ATOM      4  C   UNL     1       0.478   3.088  19.935  0.00  0.00    +0.000 A 
ATOM      5  C   UNL     1       1.101   4.309  20.199  0.00  0.00    +0.000 A 
ATOM      6  C   UNL     1       2.407   4.619  19.754  0.00  0.00    +0.000 A 
ENDROOT
BRANCH   1   7
ATOM      7  S   UNL     1       4.626   3.804  18.156  0.00  0.00    +0.000 S 
ATOM      8  O   UNL     1       4.732   2.881  17.051  0.00  0.00    +0.000 OA
ATOM      9  O   UNL     1       5.606   3.847  19.215  0.00  0.00    +0.000 OA
BRANCH   7  10
ATOM     10  N   UNL     1       4.591   5.384  17.483  0.00  0.00    +0.000 NA
ATOM     11  H   UNL     1       3.727   5.573  16.959  0.00  0.00    +0.000 HD
BRANCH  10  12
ATOM     12  C   UNL     1       5.790   5.842  16.724  0.00  0.00    +0.000 C 
BRANCH  12  14
ATOM     13  O   UNL     1       7.343   7.533  17.529  0.00  0.00    +0.000 OA
ATOM     14  C   UNL     1       6.199   7.227  17.211  0.00  0.00    +0.000 C 
ENDBRANCH  12  14
BRANCH  12  15
ATOM     15  C   UNL     1       5.613   5.826  15.209  0.00  0.00    +0.000 C 
BRANCH  15  16
ATOM     16  C   UNL     1       6.584   4.902  14.521  0.00  0.00    +0.000 C 
ATOM     17  O   UNL     1       6.401   3.706  14.348  0.00  0.00    +0.000 OA
BRANCH  16  18
ATOM     18  O   UNL     1       7.735   5.523  14.176  0.00  0.00    +0.000 OA
ATOM     19  H   UNL     1       8.214   5.924  14.927  0.00  0.00    +0.000 HD
ENDBRANCH  16  18
ENDBRANCH  15  16
ENDBRANCH  12  15
ENDBRANCH  10  12
ENDBRANCH   7  10
ENDBRANCH   1   7
BRANCH   6  20
ATOM     20  O   UNL     1       3.016   5.821  20.123  0.00  0.00    +0.000 OA
BRANCH  20  21
ATOM     21  C   UNL     1       2.231   7.002  19.790  0.00  0.00    +0.000 C 
BRANCH  21  22
ATOM     22  C   UNL     1       1.549   7.795  20.930  0.00  0.00    +0.000 C 
BRANCH  22  23
ATOM     23  C   UNL     1       0.963   9.118  20.386  0.00  0.00    +0.000 A 
ATOM     24  C   UNL     1       1.225   9.432  19.033  0.00  0.00    +0.000 A 
ATOM     25  C   UNL     1       0.651  10.539  18.410  0.00  0.00    +0.000 A 
ATOM     26  C   UNL     1      -0.216  11.358  19.120  0.00  0.00    +0.000 A 
ATOM     27  C   UNL     1      -0.494  11.104  20.465  0.00  0.00    +0.000 A 
ATOM     28  C   UNL     1      -1.387  11.957  21.135  0.00  0.00    +0.000 A 
ATOM     29  C   UNL     1      -1.679  11.772  22.481  0.00  0.00    +0.000 A 
ATOM     30  C   UNL     1      -1.052  10.746  23.176  0.00  0.00    +0.000 A 
ATOM     31  C   UNL     1      -0.170   9.876  22.515  0.00  0.00    +0.000 A 
ATOM     32  C   UNL     1       0.118  10.000  21.136  0.00  0.00    +0.000 A 
ENDBRANCH  22  23
ENDBRANCH  21  22
ENDBRANCH  20  21
ENDBRANCH   6  20
TORSDOF 11
ENDMDL
MODEL 5
REMARK VINA RESULT:      -7.4      1.317      1.836
REMARK  Name = 
REMARK  11 active torsions:
REMARK  status: ('A' for Active; 'I' for Inactive)
REMARK    1  A    between atoms: C_2  and  C_3
REMARK    2  A    between atoms: C_3  and  C_4
REMARK    3  A    between atoms: C_3  and  N_8
REMARK    4  A    between atoms: C_4  and  C_5
REMARK    5  A    between atoms: C_5  and  O_7
REMARK    6  A    between atoms: N_8  and  S_9
REMARK    7  A    between atoms: S_9  and  C_12
REMARK    8  A    between atoms: C_17  and  O_18
REMARK    9  A    between atoms: O_18  and  C_19
REMARK   10  A    between atoms: C_19  and  C_20
REMARK   11  A    between atoms: C_20  and  C_21
REMARK                            x       y       z     vdW  Elec       q    Type
REMARK                         _______ _______ _______ _____ _____    ______ ____
ROOT
ATOM      1  C   UNL     1       2.944   4.224  19.011  0.00  0.00    +0.000 A 
ATOM      2  C   UNL     1       2.570   2.874  19.235  0.00  0.00    +0.000 A 
ATOM      3  C   UNL     1       1.907   2.488  20.391  0.00  0.00    +0.000 A 
ATOM      4  C   UNL     1       1.550   3.453  21.312  0.00  0.00    +0.000 A 
ATOM      5  C   UNL     1       1.867   4.792  21.077  0.00  0.00    +0.000 A 
ATOM      6  C   UNL     1       2.606   5.222  19.949  0.00  0.00    +0.000 A 
ENDROOT
BRANCH   1   7
ATOM      7  S   UNL     1       3.772   4.482  17.453  0.00  0.00    +0.000 S 
ATOM      8  O   UNL     1       3.769   5.885  17.110  0.00  0.00    +0.000 OA
ATOM      9  O   UNL     1       3.273   3.472  16.551  0.00  0.00    +0.000 OA
BRANCH   7  10
ATOM     10  N   UNL     1       5.402   4.055  17.784  0.00  0.00    +0.000 NA
ATOM     11  H   UNL     1       5.586   3.940  18.789  0.00  0.00    +0.000 HD
BRANCH  10  12
ATOM     12  C   UNL     1       6.477   4.855  17.129  0.00  0.00    +0.000 C 
BRANCH  12  14
ATOM     13  O   UNL     1       7.548   4.775  14.946  0.00  0.00    +0.000 OA
ATOM     14  C   UNL     1       6.661   4.378  15.694  0.00  0.00    +0.000 C 
ENDBRANCH  12  14
BRANCH  12  15
ATOM     15  C   UNL     1       7.804   4.850  17.881  0.00  0.00    +0.000 C 
BRANCH  15  16
ATOM     16  C   UNL     1       7.755   5.660  19.151  0.00  0.00    +0.000 C 
ATOM     17  O   UNL     1       7.168   5.322  20.167  0.00  0.00    +0.000 OA
BRANCH  16  18
ATOM     18  O   UNL     1       8.372   6.857  19.026  0.00  0.00    +0.000 OA
ATOM     19  H   UNL     1       8.967   6.922  18.255  0.00  0.00    +0.000 HD
ENDBRANCH  16  18
ENDBRANCH  15  16
ENDBRANCH  12  15
ENDBRANCH  10  12
ENDBRANCH   7  10
ENDBRANCH   1   7
BRANCH   6  20
ATOM     20  O   UNL     1       2.972   6.563  19.811  0.00  0.00    +0.000 OA
BRANCH  20  21
ATOM     21  C   UNL     1       1.900   7.499  20.119  0.00  0.00    +0.000 C 
BRANCH  21  22
ATOM     22  C   UNL     1       1.654   8.697  19.170  0.00  0.00    +0.000 C 
BRANCH  22  23
ATOM     23  C   UNL     1       0.601   9.652  19.776  0.00  0.00    +0.000 A 
ATOM     24  C   UNL     1       0.796  10.064  21.114  0.00  0.00    +0.000 A 
ATOM     25  C   UNL     1      -0.026  11.012  21.720  0.00  0.00    +0.000 A 
ATOM     26  C   UNL     1      -1.063  11.588  20.999  0.00  0.00    +0.000 A 
ATOM     27  C   UNL     1      -1.312  11.203  19.679  0.00  0.00    +0.000 A 
ATOM     28  C   UNL     1      -2.366  11.825  18.990  0.00  0.00    +0.000 A 
ATOM     29  C   UNL     1      -2.680  11.464  17.686  0.00  0.00    +0.000 A 
ATOM     30  C   UNL     1      -1.958  10.449  17.072  0.00  0.00    +0.000 A 
ATOM     31  C   UNL     1      -0.891   9.830  17.742  0.00  0.00    +0.000 A 
ATOM     32  C   UNL     1      -0.508  10.202  19.053  0.00  0.00    +0.000 A 
ENDBRANCH  22  23
ENDBRANCH  21  22
ENDBRANCH  20  21
ENDBRANCH   6  20
TORSDOF 11
ENDMDL
MODEL 6
REMARK VINA RESULT:      -7.4      1.353      2.460
REMARK  Name = 
REMARK  11 active torsions:
REMARK  status: ('A' for Active; 'I' for Inactive)
REMARK    1  A    between atoms: C_2  and  C_3
REMARK    2  A    between atoms: C_3  and  C_4
REMARK    3  A    between atoms: C_3  and  N_8
REMARK    4  A    between atoms: C_4  and  C_5
REMARK    5  A    between atoms: C_5  and  O_7
REMARK    6  A    between atoms: N_8  and  S_9
REMARK    7  A    between atoms: S_9  and  C_12
REMARK    8  A    between atoms: C_17  and  O_18
REMARK    9  A    between atoms: O_18  and  C_19
REMARK   10  A    between atoms: C_19  and  C_20
REMARK   11  A    between atoms: C_20  and  C_21
REMARK                            x       y       z     vdW  Elec       q    Type
REMARK                         _______ _______ _______ _____ _____    ______ ____
ROOT
ATOM      1  C   UNL     1       2.868   4.903  18.815  0.00  0.00    +0.000 A 
ATOM      2  C   UNL     1       2.454   4.054  19.873  0.00  0.00    +0.000 A 
ATOM      3  C   UNL     1       1.857   4.562  21.019  0.00  0.00    +0.000 A 
ATOM      4  C   UNL     1       1.606   5.918  21.097  0.00  0.00    +0.000 A 
ATOM      5  C   UNL     1       1.962   6.756  20.038  0.00  0.00    +0.000 A 
ATOM      6  C   UNL     1       2.637   6.293  18.884  0.00  0.00    +0.000 A 
ENDROOT
BRANCH   1   7
ATOM      7  S   UNL     1       3.595   4.025  17.443  0.00  0.00    +0.000 S 
ATOM      8  O   UNL     1       2.579   3.664  16.483  0.00  0.00    +0.000 OA
ATOM      9  O   UNL     1       4.494   3.049  18.012  0.00  0.00    +0.000 OA
BRANCH   7  10
ATOM     10  N   UNL     1       4.594   5.203  16.692  0.00  0.00    +0.000 NA
ATOM     11  H   UNL     1       4.478   5.229  15.671  0.00  0.00    +0.000 HD
BRANCH  10  12
ATOM     12  C   UNL     1       6.037   5.232  17.070  0.00  0.00    +0.000 C 
BRANCH  12  14
ATOM     13  O   UNL     1       7.677   7.020  16.891  0.00  0.00    +0.000 OA
ATOM     14  C   UNL     1       6.521   6.677  17.110  0.00  0.00    +0.000 C 
ENDBRANCH  12  14
BRANCH  12  15
ATOM     15  C   UNL     1       6.933   4.381  16.175  0.00  0.00    +0.000 C 
BRANCH  15  16
ATOM     16  C   UNL     1       6.712   4.648  14.710  0.00  0.00    +0.000 C 
ATOM     17  O   UNL     1       5.817   4.155  14.041  0.00  0.00    +0.000 OA
BRANCH  16  18
ATOM     18  O   UNL     1       7.668   5.444  14.179  0.00  0.00    +0.000 OA
ATOM     19  H   UNL     1       8.185   5.945  14.839  0.00  0.00    +0.000 HD
ENDBRANCH  16  18
ENDBRANCH  15  16
ENDBRANCH  12  15
ENDBRANCH  10  12
ENDBRANCH   7  10
ENDBRANCH   1   7
BRANCH   6  20
ATOM     20  O   UNL     1       3.049   7.191  17.897  0.00  0.00    +0.000 OA
BRANCH  20  21
ATOM     21  C   UNL     1       2.535   8.542  18.080  0.00  0.00    +0.000 C 
BRANCH  21  22
ATOM     22  C   UNL     1       1.168   8.915  17.457  0.00  0.00    +0.000 C 
BRANCH  22  23
ATOM     23  C   UNL     1       0.362   9.805  18.430  0.00  0.00    +0.000 A 
ATOM     24  C   UNL     1       1.016  10.232  19.608  0.00  0.00    +0.000 A 
ATOM     25  C   UNL     1       0.424  11.128  20.495  0.00  0.00    +0.000 A 
ATOM     26  C   UNL     1      -0.838  11.637  20.223  0.00  0.00    +0.000 A 
ATOM     27  C   UNL     1      -1.537  11.233  19.082  0.00  0.00    +0.000 A 
ATOM     28  C   UNL     1      -2.807  11.787  18.846  0.00  0.00    +0.000 A 
ATOM     29  C   UNL     1      -3.562  11.402  17.745  0.00  0.00    +0.000 A 
ATOM     30  C   UNL     1      -3.061  10.433  16.886  0.00  0.00    +0.000 A 
ATOM     31  C   UNL     1      -1.787   9.883  17.100  0.00  0.00    +0.000 A 
ATOM     32  C   UNL     1      -0.967  10.282  18.182  0.00  0.00    +0.000 A 
ENDBRANCH  22  23
ENDBRANCH  21  22
ENDBRANCH  20  21
ENDBRANCH   6  20
TORSDOF 11
ENDMDL
MODEL 7
REMARK VINA RESULT:      -7.3      1.588      2.191
REMARK  Name = 
REMARK  11 active torsions:
REMARK  status: ('A' for Active; 'I' for Inactive)
REMARK    1  A    between atoms: C_2  and  C_3
REMARK    2  A    between atoms: C_3  and  C_4
REMARK    3  A    between atoms: C_3  and  N_8
REMARK    4  A    between atoms: C_4  and  C_5
REMARK    5  A    between atoms: C_5  and  O_7
REMARK    6  A    between atoms: N_8  and  S_9
REMARK    7  A    between atoms: S_9  and  C_12
REMARK    8  A    between atoms: C_17  and  O_18
REMARK    9  A    between atoms: O_18  and  C_19
REMARK   10  A    between atoms: C_19  and  C_20
REMARK   11  A    between atoms: C_20  and  C_21
REMARK                            x       y       z     vdW  Elec       q    Type
REMARK                         _______ _______ _______ _____ _____    ______ ____
ROOT
ATOM      1  C   UNL     1       3.177   3.866  19.615  0.00  0.00    +0.000 A 
ATOM      2  C   UNL     1       2.937   2.677  20.349  0.00  0.00    +0.000 A 
ATOM      3  C   UNL     1       1.809   2.531  21.146  0.00  0.00    +0.000 A 
ATOM      4  C   UNL     1       0.873   3.545  21.170  0.00  0.00    +0.000 A 
ATOM      5  C   UNL     1       1.074   4.700  20.410  0.00  0.00    +0.000 A 
ATOM      6  C   UNL     1       2.241   4.922  19.642  0.00  0.00    +0.000 A 
ENDROOT
BRANCH   1   7
ATOM      7  S   UNL     1       4.679   3.817  18.655  0.00  0.00    +0.000 S 
ATOM      8  O   UNL     1       4.372   3.758  17.245  0.00  0.00    +0.000 OA
ATOM      9  O   UNL     1       5.542   2.851  19.293  0.00  0.00    +0.000 OA
BRANCH   7  10
ATOM     10  N   UNL     1       5.396   5.351  18.945  0.00  0.00    +0.000 NA
ATOM     11  H   UNL     1       4.724   6.124  18.864  0.00  0.00    +0.000 HD
BRANCH  10  12
ATOM     12  C   UNL     1       6.668   5.669  18.234  0.00  0.00    +0.000 C 
BRANCH  12  14
ATOM     13  O   UNL     1       7.787   5.358  20.372  0.00  0.00    +0.000 OA
ATOM     14  C   UNL     1       7.783   5.862  19.254  0.00  0.00    +0.000 C 
ENDBRANCH  12  14
BRANCH  12  15
ATOM     15  C   UNL     1       6.575   6.865  17.292  0.00  0.00    +0.000 C 
BRANCH  15  16
ATOM     16  C   UNL     1       5.414   6.762  16.338  0.00  0.00    +0.000 C 
ATOM     17  O   UNL     1       5.510   6.459  15.158  0.00  0.00    +0.000 OA
BRANCH  16  18
ATOM     18  O   UNL     1       4.242   7.122  16.907  0.00  0.00    +0.000 OA
ATOM     19  H   UNL     1       4.320   7.411  17.837  0.00  0.00    +0.000 HD
ENDBRANCH  16  18
ENDBRANCH  15  16
ENDBRANCH  12  15
ENDBRANCH  10  12
ENDBRANCH   7  10
ENDBRANCH   1   7
BRANCH   6  20
ATOM     20  O   UNL     1       2.429   6.133  18.973  0.00  0.00    +0.000 OA
BRANCH  20  21
ATOM     21  C   UNL     1       2.049   7.302  19.755  0.00  0.00    +0.000 C 
BRANCH  21  22
ATOM     22  C   UNL     1       1.808   8.646  19.027  0.00  0.00    +0.000 C 
BRANCH  22  23
ATOM     23  C   UNL     1       0.774   9.495  19.800  0.00  0.00    +0.000 A 
ATOM     24  C   UNL     1       1.002   9.690  21.181  0.00  0.00    +0.000 A 
ATOM     25  C   UNL     1       0.198  10.532  21.948  0.00  0.00    +0.000 A 
ATOM     26  C   UNL     1      -0.851  11.217  21.352  0.00  0.00    +0.000 A 
ATOM     27  C   UNL     1      -1.132  11.045  19.993  0.00  0.00    +0.000 A 
ATOM     28  C   UNL     1      -2.198  11.770  19.435  0.00  0.00    +0.000 A 
ATOM     29  C   UNL     1      -2.543  11.619  18.098  0.00  0.00    +0.000 A 
ATOM     30  C   UNL     1      -1.840  10.713  17.315  0.00  0.00    +0.000 A 
ATOM     31  C   UNL     1      -0.762   9.994  17.855  0.00  0.00    +0.000 A 
ATOM     32  C   UNL     1      -0.348  10.154  19.198  0.00  0.00    +0.000 A 
ENDBRANCH  22  23
ENDBRANCH  21  22
ENDBRANCH  20  21
ENDBRANCH   6  20
TORSDOF 11
ENDMDL
MODEL 8
REMARK VINA RESULT:      -7.3      1.811      4.597
REMARK  Name = 
REMARK  11 active torsions:
REMARK  status: ('A' for Active; 'I' for Inactive)
REMARK    1  A    between atoms: C_2  and  C_3
REMARK    2  A    between atoms: C_3  and  C_4
REMARK    3  A    between atoms: C_3  and  N_8
REMARK    4  A    between atoms: C_4  and  C_5
REMARK    5  A    between atoms: C_5  and  O_7
REMARK    6  A    between atoms: N_8  and  S_9
REMARK    7  A    between atoms: S_9  and  C_12
REMARK    8  A    between atoms: C_17  and  O_18
REMARK    9  A    between atoms: O_18  and  C_19
REMARK   10  A    between atoms: C_19  and  C_20
REMARK   11  A    between atoms: C_20  and  C_21
REMARK                            x       y       z     vdW  Elec       q    Type
REMARK                         _______ _______ _______ _____ _____    ______ ____
ROOT
ATOM      1  C   UNL     1       3.888   4.632  17.212  0.00  0.00    +0.000 A 
ATOM      2  C   UNL     1       4.452   4.213  15.980  0.00  0.00    +0.000 A 
ATOM      3  C   UNL     1       5.472   4.929  15.369  0.00  0.00    +0.000 A 
ATOM      4  C   UNL     1       5.988   6.038  16.010  0.00  0.00    +0.000 A 
ATOM      5  C   UNL     1       5.475   6.429  17.249  0.00  0.00    +0.000 A 
ATOM      6  C   UNL     1       4.389   5.773  17.874  0.00  0.00    +0.000 A 
ENDROOT
BRANCH   1   7
ATOM      7  S   UNL     1       2.604   3.548  17.810  0.00  0.00    +0.000 S 
ATOM      8  O   UNL     1       2.962   2.169  17.576  0.00  0.00    +0.000 OA
ATOM      9  O   UNL     1       1.353   4.104  17.352  0.00  0.00    +0.000 OA
BRANCH   7  10
ATOM     10  N   UNL     1       2.631   3.788  19.510  0.00  0.00    +0.000 NA
ATOM     11  H   UNL     1       3.417   4.375  19.816  0.00  0.00    +0.000 HD
BRANCH  10  12
ATOM     12  C   UNL     1       2.488   2.586  20.383  0.00  0.00    +0.000 C 
BRANCH  12  14
ATOM     13  O   UNL     1       1.117   2.380  22.382  0.00  0.00    +0.000 OA
ATOM     14  C   UNL     1       1.210   2.706  21.204  0.00  0.00    +0.000 C 
ENDBRANCH  12  14
BRANCH  12  15
ATOM     15  C   UNL     1       3.692   2.321  21.282  0.00  0.00    +0.000 C 
BRANCH  15  16
ATOM     16  C   UNL     1       4.898   1.848  20.512  0.00  0.00    +0.000 C 
ATOM     17  O   UNL     1       5.515   0.821  20.751  0.00  0.00    +0.000 OA
BRANCH  16  18
ATOM     18  O   UNL     1       5.284   2.730  19.562  0.00  0.00    +0.000 OA
ATOM     19  H   UNL     1       5.401   2.337  18.675  0.00  0.00    +0.000 HD
ENDBRANCH  16  18
ENDBRANCH  15  16
ENDBRANCH  12  15
ENDBRANCH  10  12
ENDBRANCH   7  10
ENDBRANCH   1   7
BRANCH   6  20
ATOM     20  O   UNL     1       3.859   6.262  19.070  0.00  0.00    +0.000 OA
BRANCH  20  21
ATOM     21  C   UNL     1       2.720   7.151  18.888  0.00  0.00    +0.000 C 
BRANCH  21  22
ATOM     22  C   UNL     1       1.808   7.459  20.100  0.00  0.00    +0.000 C 
BRANCH  22  23
ATOM     23  C   UNL     1       1.190   8.869  19.960  0.00  0.00    +0.000 A 
ATOM     24  C   UNL     1       1.283   9.492  18.695  0.00  0.00    +0.000 A 
ATOM     25  C   UNL     1       0.662  10.711  18.428  0.00  0.00    +0.000 A 
ATOM     26  C   UNL     1      -0.086  11.336  19.416  0.00  0.00    +0.000 A 
ATOM     27  C   UNL     1      -0.195  10.772  20.690  0.00  0.00    +0.000 A 
ATOM     28  C   UNL     1      -0.973  11.438  21.651  0.00  0.00    +0.000 A 
ATOM     29  C   UNL     1      -1.095  10.942  22.943  0.00  0.00    +0.000 A 
ATOM     30  C   UNL     1      -0.409   9.786  23.291  0.00  0.00    +0.000 A 
ATOM     31  C   UNL     1       0.359   9.100  22.337  0.00  0.00    +0.000 A 
ATOM     32  C   UNL     1       0.470   9.546  20.999  0.00  0.00    +0.000 A 
ENDBRANCH  22  23
ENDBRANCH  21  22
ENDBRANCH  20  21
ENDBRANCH   6  20
TORSDOF 11
ENDMDL
MODEL 9
REMARK VINA RESULT:      -7.3      1.258      2.045
REMARK  Name = 
REMARK  11 active torsions:
REMARK  status: ('A' for Active; 'I' for Inactive)
REMARK    1  A    between atoms: C_2  and  C_3
REMARK    2  A    between atoms: C_3  and  C_4
REMARK    3  A    between atoms: C_3  and  N_8
REMARK    4  A    between atoms: C_4  and  C_5
REMARK    5  A    between atoms: C_5  and  O_7
REMARK    6  A    between atoms: N_8  and  S_9
REMARK    7  A    between atoms: S_9  and  C_12
REMARK    8  A    between atoms: C_17  and  O_18
REMARK    9  A    between atoms: O_18  and  C_19
REMARK   10  A    between atoms: C_19  and  C_20
REMARK   11  A    between atoms: C_20  and  C_21
REMARK                            x       y       z     vdW  Elec       q    Type
REMARK                         _______ _______ _______ _____ _____    ______ ____
ROOT
ATOM      1  C   UNL     1       2.804   3.377  19.228  0.00  0.00    +0.000 A 
ATOM      2  C   UNL     1       2.409   2.397  20.174  0.00  0.00    +0.000 A 
ATOM      3  C   UNL     1       1.951   2.750  21.435  0.00  0.00    +0.000 A 
ATOM      4  C   UNL     1       1.819   4.089  21.749  0.00  0.00    +0.000 A 
ATOM      5  C   UNL     1       2.156   5.062  20.806  0.00  0.00    +0.000 A 
ATOM      6  C   UNL     1       2.696   4.750  19.536  0.00  0.00    +0.000 A 
ENDROOT
BRANCH   1   7
ATOM      7  S   UNL     1       3.344   2.688  17.674  0.00  0.00    +0.000 S 
ATOM      8  O   UNL     1       2.599   3.270  16.582  0.00  0.00    +0.000 OA
ATOM      9  O   UNL     1       3.431   1.260  17.867  0.00  0.00    +0.000 OA
BRANCH   7  10
ATOM     10  N   UNL     1       4.962   3.243  17.525  0.00  0.00    +0.000 NA
ATOM     11  H   UNL     1       5.423   3.371  18.435  0.00  0.00    +0.000 HD
BRANCH  10  12
ATOM     12  C   UNL     1       5.218   4.404  16.625  0.00  0.00    +0.000 C 
BRANCH  12  14
ATOM     13  O   UNL     1       5.760   4.530  14.256  0.00  0.00    +0.000 OA
ATOM     14  C   UNL     1       5.808   3.906  15.311  0.00  0.00    +0.000 C 
ENDBRANCH  12  14
BRANCH  12  15
ATOM     15  C   UNL     1       6.095   5.490  17.241  0.00  0.00    +0.000 C 
BRANCH  15  16
ATOM     16  C   UNL     1       6.850   5.008  18.451  0.00  0.00    +0.000 C 
ATOM     17  O   UNL     1       6.556   5.277  19.606  0.00  0.00    +0.000 OA
BRANCH  16  18
ATOM     18  O   UNL     1       7.953   4.298  18.125  0.00  0.00    +0.000 OA
ATOM     19  H   UNL     1       7.982   3.402  18.513  0.00  0.00    +0.000 HD
ENDBRANCH  16  18
ENDBRANCH  15  16
ENDBRANCH  12  15
ENDBRANCH  10  12
ENDBRANCH   7  10
ENDBRANCH   1   7
BRANCH   6  20
ATOM     20  O   UNL     1       3.098   5.767  18.667  0.00  0.00    +0.000 OA
BRANCH  20  21
ATOM     21  C   UNL     1       2.737   7.103  19.121  0.00  0.00    +0.000 C 
BRANCH  21  22
ATOM     22  C   UNL     1       1.633   7.880  18.363  0.00  0.00    +0.000 C 
BRANCH  22  23
ATOM     23  C   UNL     1       1.448   9.285  18.980  0.00  0.00    +0.000 A 
ATOM     24  C   UNL     1       1.884  10.390  18.214  0.00  0.00    +0.000 A 
ATOM     25  C   UNL     1       1.660  11.703  18.624  0.00  0.00    +0.000 A 
ATOM     26  C   UNL     1       0.979  11.951  19.807  0.00  0.00    +0.000 A 
ATOM     27  C   UNL     1       0.543  10.895  20.611  0.00  0.00    +0.000 A 
ATOM     28  C   UNL     1      -0.152  11.199  21.794  0.00  0.00    +0.000 A 
ATOM     29  C   UNL     1      -0.584  10.193  22.649  0.00  0.00    +0.000 A 
ATOM     30  C   UNL     1      -0.294   8.871  22.340  0.00  0.00    +0.000 A 
ATOM     31  C   UNL     1       0.385   8.551  21.153  0.00  0.00    +0.000 A 
ATOM     32  C   UNL     1       0.800   9.542  20.233  0.00  0.00    +0.000 A 
ENDBRANCH  22  23
ENDBRANCH  21  22
ENDBRANCH  20  21
ENDBRANCH   6  20
TORSDOF 11
ENDMDL
