MODEL 1
REMARK VINA RESULT:      -8.5      0.000      0.000
REMARK  Name = 
REMARK  7 active torsions:
REMARK  status: ('A' for Active; 'I' for Inactive)
REMARK    1  A    between atoms: C_1  and  C_2
REMARK    2  A    between atoms: C_2  and  O_3
REMARK    3  A    between atoms: O_3  and  C_4
REMARK    4  A    between atoms: C_7  and  C_8
REMARK    5  A    between atoms: C_10  and  C_11
REMARK    6  A    between atoms: C_11  and  N_12
REMARK    7  A    between atoms: N_12  and  C_13
REMARK                            x       y       z     vdW  Elec       q    Type
REMARK                         _______ _______ _______ _____ _____    ______ ____
ROOT
ATOM      1  C   UNL     1       7.938   8.179  17.953  0.00  0.00    +0.000 A 
ATOM      2  N   UNL     1       7.089   7.818  17.008  0.00  0.00    +0.000 NA
ATOM      3  C   UNL     1       6.858   6.481  17.258  0.00  0.00    +0.000 A 
ATOM      4  C   UNL     1       7.622   6.081  18.330  0.00  0.00    +0.000 A 
ATOM      5  O   UNL     1       8.318   7.157  18.784  0.00  0.00    +0.000 OA
ENDROOT
BRANCH   1   9
ATOM      6  C   UNL     1       9.601  12.020  18.808  0.00  0.00    +0.000 A 
ATOM      7  C   UNL     1       9.913  10.915  19.603  0.00  0.00    +0.000 A 
ATOM      8  C   UNL     1       9.343   9.669  19.334  0.00  0.00    +0.000 A 
ATOM      9  C   UNL     1       8.442   9.510  18.275  0.00  0.00    +0.000 A 
ATOM     10  C   UNL     1       8.091  10.641  17.519  0.00  0.00    +0.000 A 
ATOM     11  C   UNL     1       8.662  11.889  17.787  0.00  0.00    +0.000 A 
BRANCH   6  12
ATOM     12  O   UNL     1      10.268  13.170  19.124  0.00  0.00    +0.000 OA
BRANCH  12  14
ATOM     13  C   UNL     1      10.320  14.509  21.090  0.00  0.00    +0.000 C 
ATOM     14  C   UNL     1      10.810  13.226  20.446  0.00  0.00    +0.000 C 
ENDBRANCH  12  14
ENDBRANCH   6  12
ENDBRANCH   1   9
BRANCH   3  15
ATOM     15  C   UNL     1       5.873   5.694  16.468  0.00  0.00    +0.000 C 
BRANCH  15  16
ATOM     16  N   UNL     1       4.592   5.534  17.167  0.00  0.00    +0.000 NA
ATOM     17  H   UNL     1       3.853   5.752  16.495  0.00  0.00    +0.000 HD
BRANCH  16  18
ATOM     18  C   UNL     1       4.342   4.198  17.731  0.00  0.00    +0.000 C 
ATOM     19  C   UNL     1       4.350   4.157  19.283  0.00  0.00    +0.000 C 
ATOM     20  C   UNL     1       3.211   5.026  19.847  0.00  0.00    +0.000 C 
ATOM     21  C   UNL     1       1.851   4.506  19.351  0.00  0.00    +0.000 C 
ATOM     22  C   UNL     1       1.672   3.056  19.831  0.00  0.00    +0.000 C 
ATOM     23  C   UNL     1       2.796   2.170  19.262  0.00  0.00    +0.000 C 
ATOM     24  C   UNL     1       2.767   2.222  17.725  0.00  0.00    +0.000 C 
ATOM     25  C   UNL     1       2.958   3.675  17.238  0.00  0.00    +0.000 C 
ATOM     26  C   UNL     1       1.808   4.526  17.813  0.00  0.00    +0.000 C 
ATOM     27  C   UNL     1       4.151   2.701  19.748  0.00  0.00    +0.000 C 
ENDBRANCH  16  18
ENDBRANCH  15  16
ENDBRANCH   3  15
TORSDOF 6
ENDMDL
MODEL 2
REMARK VINA RESULT:      -8.4      0.955      1.567
REMARK  Name = 
REMARK  7 active torsions:
REMARK  status: ('A' for Active; 'I' for Inactive)
REMARK    1  A    between atoms: C_1  and  C_2
REMARK    2  A    between atoms: C_2  and  O_3
REMARK    3  A    between atoms: O_3  and  C_4
REMARK    4  A    between atoms: C_7  and  C_8
REMARK    5  A    between atoms: C_10  and  C_11
REMARK    6  A    between atoms: C_11  and  N_12
REMARK    7  A    between atoms: N_12  and  C_13
REMARK                            x       y       z     vdW  Elec       q    Type
REMARK                         _______ _______ _______ _____ _____    ______ ____
ROOT
ATOM      1  C   UNL     1       8.029   8.131  17.985  0.00  0.00    +0.000 A 
ATOM      2  N   UNL     1       7.300   7.680  16.979  0.00  0.00    +0.000 NA
ATOM      3  C   UNL     1       7.094   6.351  17.284  0.00  0.00    +0.000 A 
ATOM      4  C   UNL     1       7.753   6.045  18.453  0.00  0.00    +0.000 A 
ATOM      5  O   UNL     1       8.356   7.175  18.911  0.00  0.00    +0.000 OA
ENDROOT
BRANCH   1   9
ATOM      6  C   UNL     1       9.442  12.086  18.762  0.00  0.00    +0.000 A 
ATOM      7  C   UNL     1       9.783  11.028  19.607  0.00  0.00    +0.000 A 
ATOM      8  C   UNL     1       9.294   9.744  19.363  0.00  0.00    +0.000 A 
ATOM      9  C   UNL     1       8.445   9.499  18.277  0.00  0.00    +0.000 A 
ATOM     10  C   UNL     1       8.062  10.581  17.467  0.00  0.00    +0.000 A 
ATOM     11  C   UNL     1       8.553  11.868  17.712  0.00  0.00    +0.000 A 
BRANCH   6  12
ATOM     12  O   UNL     1      10.031  13.283  19.060  0.00  0.00    +0.000 OA
BRANCH  12  14
ATOM     13  C   UNL     1      12.331  13.820  19.349  0.00  0.00    +0.000 C 
ATOM     14  C   UNL     1      11.227  13.579  18.336  0.00  0.00    +0.000 C 
ENDBRANCH  12  14
ENDBRANCH   6  12
ENDBRANCH   1   9
BRANCH   3  15
ATOM     15  C   UNL     1       6.228   5.478  16.445  0.00  0.00    +0.000 C 
BRANCH  15  16
ATOM     16  N   UNL     1       5.752   4.295  17.171  0.00  0.00    +0.000 NA
ATOM     17  H   UNL     1       6.063   4.391  18.140  0.00  0.00    +0.000 HD
BRANCH  16  18
ATOM     18  C   UNL     1       4.294   4.091  17.159  0.00  0.00    +0.000 C 
ATOM     19  C   UNL     1       3.840   2.747  17.790  0.00  0.00    +0.000 C 
ATOM     20  C   UNL     1       4.218   2.702  19.283  0.00  0.00    +0.000 C 
ATOM     21  C   UNL     1       3.532   3.853  20.037  0.00  0.00    +0.000 C 
ATOM     22  C   UNL     1       2.008   3.701  19.892  0.00  0.00    +0.000 C 
ATOM     23  C   UNL     1       1.613   3.760  18.404  0.00  0.00    +0.000 C 
ATOM     24  C   UNL     1       2.069   5.099  17.800  0.00  0.00    +0.000 C 
ATOM     25  C   UNL     1       3.599   5.251  17.934  0.00  0.00    +0.000 C 
ATOM     26  C   UNL     1       3.954   5.204  19.435  0.00  0.00    +0.000 C 
ATOM     27  C   UNL     1       2.310   2.618  17.652  0.00  0.00    +0.000 C 
ENDBRANCH  16  18
ENDBRANCH  15  16
ENDBRANCH   3  15
TORSDOF 6
ENDMDL
MODEL 3
REMARK VINA RESULT:      -8.4      0.700      1.196
REMARK  Name = 
REMARK  7 active torsions:
REMARK  status: ('A' for Active; 'I' for Inactive)
REMARK    1  A    between atoms: C_1  and  C_2
REMARK    2  A    between atoms: C_2  and  O_3
REMARK    3  A    between atoms: O_3  and  C_4
REMARK    4  A    between atoms: C_7  and  C_8
REMARK    5  A    between atoms: C_10  and  C_11
REMARK    6  A    between atoms: C_11  and  N_12
REMARK    7  A    between atoms: N_12  and  C_13
REMARK                            x       y       z     vdW  Elec       q    Type
REMARK                         _______ _______ _______ _____ _____    ______ ____
ROOT
ATOM      1  C   UNL     1       8.008   8.292  17.981  0.00  0.00    +0.000 A 
ATOM      2  N   UNL     1       7.122   7.962  17.058  0.00  0.00    +0.000 NA
ATOM      3  C   UNL     1       6.862   6.630  17.305  0.00  0.00    +0.000 A 
ATOM      4  C   UNL     1       7.647   6.200  18.351  0.00  0.00    +0.000 A 
ATOM      5  O   UNL     1       8.385   7.254  18.792  0.00  0.00    +0.000 OA
ENDROOT
BRANCH   1   9
ATOM      6  C   UNL     1       9.421  12.200  18.972  0.00  0.00    +0.000 A 
ATOM      7  C   UNL     1       8.694  11.980  17.800  0.00  0.00    +0.000 A 
ATOM      8  C   UNL     1       8.260  10.696  17.469  0.00  0.00    +0.000 A 
ATOM      9  C   UNL     1       8.557   9.607  18.297  0.00  0.00    +0.000 A 
ATOM     10  C   UNL     1       9.339   9.830  19.443  0.00  0.00    +0.000 A 
ATOM     11  C   UNL     1       9.773  11.118  19.775  0.00  0.00    +0.000 A 
BRANCH   6  12
ATOM     12  O   UNL     1       9.735  13.506  19.225  0.00  0.00    +0.000 OA
BRANCH  12  14
ATOM     13  C   UNL     1       8.026  14.374  20.633  0.00  0.00    +0.000 C 
ATOM     14  C   UNL     1       8.632  14.414  19.243  0.00  0.00    +0.000 C 
ENDBRANCH  12  14
ENDBRANCH   6  12
ENDBRANCH   1   9
BRANCH   3  15
ATOM     15  C   UNL     1       5.833   5.876  16.539  0.00  0.00    +0.000 C 
BRANCH  15  16
ATOM     16  N   UNL     1       4.594   5.685  17.302  0.00  0.00    +0.000 NA
ATOM     17  H   UNL     1       3.818   5.934  16.684  0.00  0.00    +0.000 HD
BRANCH  16  18
ATOM     18  C   UNL     1       4.372   4.324  17.816  0.00  0.00    +0.000 C 
ATOM     19  C   UNL     1       4.315   4.236  19.365  0.00  0.00    +0.000 C 
ATOM     20  C   UNL     1       3.120   5.045  19.904  0.00  0.00    +0.000 C 
ATOM     21  C   UNL     1       1.804   4.490  19.334  0.00  0.00    +0.000 C 
ATOM     22  C   UNL     1       1.660   3.020  19.764  0.00  0.00    +0.000 C 
ATOM     23  C   UNL     1       2.840   2.194  19.219  0.00  0.00    +0.000 C 
ATOM     24  C   UNL     1       2.876   2.292  17.685  0.00  0.00    +0.000 C 
ATOM     25  C   UNL     1       3.031   3.765  17.249  0.00  0.00    +0.000 C 
ATOM     26  C   UNL     1       1.825   4.555  17.797  0.00  0.00    +0.000 C 
ATOM     27  C   UNL     1       4.152   2.760  19.779  0.00  0.00    +0.000 C 
ENDBRANCH  16  18
ENDBRANCH  15  16
ENDBRANCH   3  15
TORSDOF 6
ENDMDL
MODEL 4
REMARK VINA RESULT:      -8.3      0.734      1.698
REMARK  Name = 
REMARK  7 active torsions:
REMARK  status: ('A' for Active; 'I' for Inactive)
REMARK    1  A    between atoms: C_1  and  C_2
REMARK    2  A    between atoms: C_2  and  O_3
REMARK    3  A    between atoms: O_3  and  C_4
REMARK    4  A    between atoms: C_7  and  C_8
REMARK    5  A    between atoms: C_10  and  C_11
REMARK    6  A    between atoms: C_11  and  N_12
REMARK    7  A    between atoms: N_12  and  C_13
REMARK                            x       y       z     vdW  Elec       q    Type
REMARK                         _______ _______ _______ _____ _____    ______ ____
ROOT
ATOM      1  C   UNL     1       8.006   8.099  17.999  0.00  0.00    +0.000 A 
ATOM      2  N   UNL     1       7.198   7.708  17.030  0.00  0.00    +0.000 NA
ATOM      3  C   UNL     1       6.936   6.387  17.324  0.00  0.00    +0.000 A 
ATOM      4  C   UNL     1       7.643   6.022  18.447  0.00  0.00    +0.000 A 
ATOM      5  O   UNL     1       8.332   7.108  18.888  0.00  0.00    +0.000 OA
ENDROOT
BRANCH   1   9
ATOM      6  C   UNL     1       9.297  12.067  18.912  0.00  0.00    +0.000 A 
ATOM      7  C   UNL     1       8.557  11.806  17.757  0.00  0.00    +0.000 A 
ATOM      8  C   UNL     1       8.164  10.502  17.451  0.00  0.00    +0.000 A 
ATOM      9  C   UNL     1       8.514   9.436  18.288  0.00  0.00    +0.000 A 
ATOM     10  C   UNL     1       9.308   9.702  19.415  0.00  0.00    +0.000 A 
ATOM     11  C   UNL     1       9.703  11.009  19.723  0.00  0.00    +0.000 A 
BRANCH   6  12
ATOM     12  O   UNL     1       9.570  13.386  19.143  0.00  0.00    +0.000 OA
BRANCH  12  14
ATOM     13  C   UNL     1      11.791  14.100  19.611  0.00  0.00    +0.000 C 
ATOM     14  C   UNL     1      10.474  13.650  20.218  0.00  0.00    +0.000 C 
ENDBRANCH  12  14
ENDBRANCH   6  12
ENDBRANCH   1   9
BRANCH   3  15
ATOM     15  C   UNL     1       5.977   5.579  16.523  0.00  0.00    +0.000 C 
BRANCH  15  16
ATOM     16  N   UNL     1       5.616   4.318  17.182  0.00  0.00    +0.000 NA
ATOM     17  H   UNL     1       5.931   4.385  18.153  0.00  0.00    +0.000 HD
BRANCH  16  18
ATOM     18  C   UNL     1       4.183   3.986  17.170  0.00  0.00    +0.000 C 
ATOM     19  C   UNL     1       3.840   2.642  17.868  0.00  0.00    +0.000 C 
ATOM     20  C   UNL     1       4.202   2.708  19.364  0.00  0.00    +0.000 C 
ATOM     21  C   UNL     1       3.410   3.832  20.051  0.00  0.00    +0.000 C 
ATOM     22  C   UNL     1       1.907   3.539  19.902  0.00  0.00    +0.000 C 
ATOM     23  C   UNL     1       1.526   3.485  18.411  0.00  0.00    +0.000 C 
ATOM     24  C   UNL     1       1.869   4.826  17.741  0.00  0.00    +0.000 C 
ATOM     25  C   UNL     1       3.379   5.119  17.878  0.00  0.00    +0.000 C 
ATOM     26  C   UNL     1       3.718   5.182  19.382  0.00  0.00    +0.000 C 
ATOM     27  C   UNL     1       2.329   2.372  17.726  0.00  0.00    +0.000 C 
ENDBRANCH  16  18
ENDBRANCH  15  16
ENDBRANCH   3  15
TORSDOF 6
ENDMDL
MODEL 5
REMARK VINA RESULT:      -8.3      0.869      1.910
REMARK  Name = 
REMARK  7 active torsions:
REMARK  status: ('A' for Active; 'I' for Inactive)
REMARK    1  A    between atoms: C_1  and  C_2
REMARK    2  A    between atoms: C_2  and  O_3
REMARK    3  A    between atoms: O_3  and  C_4
REMARK    4  A    between atoms: C_7  and  C_8
REMARK    5  A    between atoms: C_10  and  C_11
REMARK    6  A    between atoms: C_11  and  N_12
REMARK    7  A    between atoms: N_12  and  C_13
REMARK                            x       y       z     vdW  Elec       q    Type
REMARK                         _______ _______ _______ _____ _____    ______ ____
ROOT
ATOM      1  C   UNL     1       7.997   8.170  17.950  0.00  0.00    +0.000 A 
ATOM      2  N   UNL     1       7.195   7.771  16.980  0.00  0.00    +0.000 NA
ATOM      3  C   UNL     1       6.983   6.435  17.248  0.00  0.00    +0.000 A 
ATOM      4  C   UNL     1       7.712   6.073  18.358  0.00  0.00    +0.000 A 
ATOM      5  O   UNL     1       8.366   7.174  18.816  0.00  0.00    +0.000 OA
ENDROOT
BRANCH   1   9
ATOM      6  C   UNL     1       9.543  12.062  18.794  0.00  0.00    +0.000 A 
ATOM      7  C   UNL     1       9.826  10.984  19.636  0.00  0.00    +0.000 A 
ATOM      8  C   UNL     1       9.293   9.722  19.369  0.00  0.00    +0.000 A 
ATOM      9  C   UNL     1       8.460   9.518  18.263  0.00  0.00    +0.000 A 
ATOM     10  C   UNL     1       8.135  10.621  17.456  0.00  0.00    +0.000 A 
ATOM     11  C   UNL     1       8.669  11.887  17.723  0.00  0.00    +0.000 A 
BRANCH   6  12
ATOM     12  O   UNL     1      10.171  13.233  19.116  0.00  0.00    +0.000 OA
BRANCH  12  14
ATOM     13  C   UNL     1      12.064  14.443  18.335  0.00  0.00    +0.000 C 
ATOM     14  C   UNL     1      10.650  14.000  18.009  0.00  0.00    +0.000 C 
ENDBRANCH  12  14
ENDBRANCH   6  12
ENDBRANCH   1   9
BRANCH   3  15
ATOM     15  C   UNL     1       6.048   5.609  16.437  0.00  0.00    +0.000 C 
BRANCH  15  16
ATOM     16  N   UNL     1       5.446   4.518  17.212  0.00  0.00    +0.000 NA
ATOM     17  H   UNL     1       6.100   4.285  17.962  0.00  0.00    +0.000 HD
BRANCH  16  18
ATOM     18  C   UNL     1       4.131   4.813  17.804  0.00  0.00    +0.000 C 
ATOM     19  C   UNL     1       2.984   3.908  17.278  0.00  0.00    +0.000 C 
ATOM     20  C   UNL     1       3.248   2.437  17.654  0.00  0.00    +0.000 C 
ATOM     21  C   UNL     1       3.329   2.287  19.182  0.00  0.00    +0.000 C 
ATOM     22  C   UNL     1       1.991   2.738  19.794  0.00  0.00    +0.000 C 
ATOM     23  C   UNL     1       1.720   4.212  19.440  0.00  0.00    +0.000 C 
ATOM     24  C   UNL     1       2.865   5.091  19.972  0.00  0.00    +0.000 C 
ATOM     25  C   UNL     1       4.208   4.649  19.352  0.00  0.00    +0.000 C 
ATOM     26  C   UNL     1       4.452   3.177  19.742  0.00  0.00    +0.000 C 
ATOM     27  C   UNL     1       1.655   4.360  17.914  0.00  0.00    +0.000 C 
ENDBRANCH  16  18
ENDBRANCH  15  16
ENDBRANCH   3  15
TORSDOF 6
ENDMDL
MODEL 6
REMARK VINA RESULT:      -8.3      0.480      1.970
REMARK  Name = 
REMARK  7 active torsions:
REMARK  status: ('A' for Active; 'I' for Inactive)
REMARK    1  A    between atoms: C_1  and  C_2
REMARK    2  A    between atoms: C_2  and  O_3
REMARK    3  A    between atoms: O_3  and  C_4
REMARK    4  A    between atoms: C_7  and  C_8
REMARK    5  A    between atoms: C_10  and  C_11
REMARK    6  A    between atoms: C_11  and  N_12
REMARK    7  A    between atoms: N_12  and  C_13
REMARK                            x       y       z     vdW  Elec       q    Type
REMARK                         _______ _______ _______ _____ _____    ______ ____
ROOT
ATOM      1  C   UNL     1       8.004   8.328  18.001  0.00  0.00    +0.000 A 
ATOM      2  N   UNL     1       7.099   8.015  17.091  0.00  0.00    +0.000 NA
ATOM      3  C   UNL     1       6.828   6.684  17.332  0.00  0.00    +0.000 A 
ATOM      4  C   UNL     1       7.626   6.237  18.360  0.00  0.00    +0.000 A 
ATOM      5  O   UNL     1       8.384   7.278  18.796  0.00  0.00    +0.000 OA
ENDROOT
BRANCH   1   9
ATOM      6  C   UNL     1       9.478  12.212  18.995  0.00  0.00    +0.000 A 
ATOM      7  C   UNL     1       8.743  12.006  17.826  0.00  0.00    +0.000 A 
ATOM      8  C   UNL     1       8.290  10.729  17.493  0.00  0.00    +0.000 A 
ATOM      9  C   UNL     1       8.574   9.634  18.318  0.00  0.00    +0.000 A 
ATOM     10  C   UNL     1       9.362   9.842  19.461  0.00  0.00    +0.000 A 
ATOM     11  C   UNL     1       9.817  11.123  19.795  0.00  0.00    +0.000 A 
BRANCH   6  12
ATOM     12  O   UNL     1       9.812  13.513  19.251  0.00  0.00    +0.000 OA
BRANCH  12  14
ATOM     13  C   UNL     1      10.149  14.399  21.433  0.00  0.00    +0.000 C 
ATOM     14  C   UNL     1      10.810  13.707  20.256  0.00  0.00    +0.000 C 
ENDBRANCH  12  14
ENDBRANCH   6  12
ENDBRANCH   1   9
BRANCH   3  15
ATOM     15  C   UNL     1       5.777   5.948  16.578  0.00  0.00    +0.000 C 
BRANCH  15  16
ATOM     16  N   UNL     1       5.280   4.776  17.307  0.00  0.00    +0.000 NA
ATOM     17  H   UNL     1       5.941   4.590  18.065  0.00  0.00    +0.000 HD
BRANCH  16  18
ATOM     18  C   UNL     1       3.930   4.912  17.878  0.00  0.00    +0.000 C 
ATOM     19  C   UNL     1       2.896   3.909  17.298  0.00  0.00    +0.000 C 
ATOM     20  C   UNL     1       3.306   2.463  17.632  0.00  0.00    +0.000 C 
ATOM     21  C   UNL     1       3.372   2.270  19.156  0.00  0.00    +0.000 C 
ATOM     22  C   UNL     1       1.983   2.558  19.752  0.00  0.00    +0.000 C 
ATOM     23  C   UNL     1       1.565   4.006  19.438  0.00  0.00    +0.000 C 
ATOM     24  C   UNL     1       2.600   4.981  20.025  0.00  0.00    +0.000 C 
ATOM     25  C   UNL     1       3.994   4.704  19.422  0.00  0.00    +0.000 C 
ATOM     26  C   UNL     1       4.384   3.253  19.770  0.00  0.00    +0.000 C 
ATOM     27  C   UNL     1       1.514   4.198  17.917  0.00  0.00    +0.000 C 
ENDBRANCH  16  18
ENDBRANCH  15  16
ENDBRANCH   3  15
TORSDOF 6
ENDMDL
MODEL 7
REMARK VINA RESULT:      -8.2      1.315      2.000
REMARK  Name = 
REMARK  7 active torsions:
REMARK  status: ('A' for Active; 'I' for Inactive)
REMARK    1  A    between atoms: C_1  and  C_2
REMARK    2  A    between atoms: C_2  and  O_3
REMARK    3  A    between atoms: O_3  and  C_4
REMARK    4  A    between atoms: C_7  and  C_8
REMARK    5  A    between atoms: C_10  and  C_11
REMARK    6  A    between atoms: C_11  and  N_12
REMARK    7  A    between atoms: N_12  and  C_13
REMARK                            x       y       z     vdW  Elec       q    Type
REMARK                         _______ _______ _______ _____ _____    ______ ____
ROOT
ATOM      1  C   UNL     1       7.968   8.232  18.027  0.00  0.00    +0.000 A 
ATOM      2  N   UNL     1       8.064   7.153  18.782  0.00  0.00    +0.000 NA
ATOM      3  C   UNL     1       7.520   6.151  18.006  0.00  0.00    +0.000 A 
ATOM      4  C   UNL     1       7.074   6.686  16.819  0.00  0.00    +0.000 A 
ATOM      5  O   UNL     1       7.354   8.017  16.820  0.00  0.00    +0.000 OA
ENDROOT
BRANCH   1   9
ATOM      6  C   UNL     1       9.695  12.093  18.629  0.00  0.00    +0.000 A 
ATOM      7  C   UNL     1      10.079  11.008  19.420  0.00  0.00    +0.000 A 
ATOM      8  C   UNL     1       9.489   9.757  19.237  0.00  0.00    +0.000 A 
ATOM      9  C   UNL     1       8.497   9.571  18.267  0.00  0.00    +0.000 A 
ATOM     10  C   UNL     1       8.077  10.681  17.516  0.00  0.00    +0.000 A 
ATOM     11  C   UNL     1       8.668  11.936  17.700  0.00  0.00    +0.000 A 
BRANCH   6  12
ATOM     12  O   UNL     1      10.385  13.251  18.854  0.00  0.00    +0.000 OA
BRANCH  12  14
ATOM     13  C   UNL     1      11.721  13.653  16.927  0.00  0.00    +0.000 C 
ATOM     14  C   UNL     1      11.738  13.262  18.393  0.00  0.00    +0.000 C 
ENDBRANCH  12  14
ENDBRANCH   6  12
ENDBRANCH   1   9
BRANCH   3  15
ATOM     15  C   UNL     1       7.514   4.730  18.449  0.00  0.00    +0.000 C 
BRANCH  15  16
ATOM     16  N   UNL     1       6.258   4.045  18.122  0.00  0.00    +0.000 NA
ATOM     17  H   UNL     1       6.473   3.050  18.028  0.00  0.00    +0.000 HD
BRANCH  16  18
ATOM     18  C   UNL     1       5.175   4.207  19.105  0.00  0.00    +0.000 C 
ATOM     19  C   UNL     1       4.199   5.371  18.784  0.00  0.00    +0.000 C 
ATOM     20  C   UNL     1       3.468   5.104  17.454  0.00  0.00    +0.000 C 
ATOM     21  C   UNL     1       2.660   3.800  17.546  0.00  0.00    +0.000 C 
ATOM     22  C   UNL     1       1.627   3.936  18.678  0.00  0.00    +0.000 C 
ATOM     23  C   UNL     1       2.343   4.188  20.017  0.00  0.00    +0.000 C 
ATOM     24  C   UNL     1       3.302   3.022  20.318  0.00  0.00    +0.000 C 
ATOM     25  C   UNL     1       4.347   2.888  19.190  0.00  0.00    +0.000 C 
ATOM     26  C   UNL     1       3.594   2.621  17.870  0.00  0.00    +0.000 C 
ATOM     27  C   UNL     1       3.160   5.483  19.917  0.00  0.00    +0.000 C 
ENDBRANCH  16  18
ENDBRANCH  15  16
ENDBRANCH   3  15
TORSDOF 6
ENDMDL
MODEL 8
REMARK VINA RESULT:      -8.2      1.035      1.669
REMARK  Name = 
REMARK  7 active torsions:
REMARK  status: ('A' for Active; 'I' for Inactive)
REMARK    1  A    between atoms: C_1  and  C_2
REMARK    2  A    between atoms: C_2  and  O_3
REMARK    3  A    between atoms: O_3  and  C_4
REMARK    4  A    between atoms: C_7  and  C_8
REMARK    5  A    between atoms: C_10  and  C_11
REMARK    6  A    between atoms: C_11  and  N_12
REMARK    7  A    between atoms: N_12  and  C_13
REMARK                            x       y       z     vdW  Elec       q    Type
REMARK                         _______ _______ _______ _____ _____    ______ ____
ROOT
ATOM      1  C   UNL     1       8.074   8.513  18.056  0.00  0.00    +0.000 A 
ATOM      2  N   UNL     1       7.104   8.198  17.218  0.00  0.00    +0.000 NA
ATOM      3  C   UNL     1       6.877   6.858  17.457  0.00  0.00    +0.000 A 
ATOM      4  C   UNL     1       7.763   6.411  18.411  0.00  0.00    +0.000 A 
ATOM      5  O   UNL     1       8.535   7.460  18.802  0.00  0.00    +0.000 OA
ENDROOT
BRANCH   1   9
ATOM      6  C   UNL     1       9.550  12.416  18.975  0.00  0.00    +0.000 A 
ATOM      7  C   UNL     1       8.812  12.188  17.812  0.00  0.00    +0.000 A 
ATOM      8  C   UNL     1       8.358  10.905  17.504  0.00  0.00    +0.000 A 
ATOM      9  C   UNL     1       8.645   9.825  18.348  0.00  0.00    +0.000 A 
ATOM     10  C   UNL     1       9.437  10.055  19.485  0.00  0.00    +0.000 A 
ATOM     11  C   UNL     1       9.892  11.341  19.794  0.00  0.00    +0.000 A 
BRANCH   6  12
ATOM     12  O   UNL     1       9.885  13.721  19.206  0.00  0.00    +0.000 OA
BRANCH  12  14
ATOM     13  C   UNL     1      10.000  15.733  17.942  0.00  0.00    +0.000 C 
ATOM     14  C   UNL     1      10.617  14.364  18.160  0.00  0.00    +0.000 C 
ENDBRANCH  12  14
ENDBRANCH   6  12
ENDBRANCH   1   9
BRANCH   3  15
ATOM     15  C   UNL     1       5.782   6.114  16.778  0.00  0.00    +0.000 C 
BRANCH  15  16
ATOM     16  N   UNL     1       4.533   6.126  17.549  0.00  0.00    +0.000 NA
ATOM     17  H   UNL     1       4.017   6.964  17.273  0.00  0.00    +0.000 HD
BRANCH  16  18
ATOM     18  C   UNL     1       3.665   4.952  17.365  0.00  0.00    +0.000 C 
ATOM     19  C   UNL     1       4.224   3.648  17.998  0.00  0.00    +0.000 C 
ATOM     20  C   UNL     1       4.336   3.801  19.526  0.00  0.00    +0.000 C 
ATOM     21  C   UNL     1       2.953   4.085  20.134  0.00  0.00    +0.000 C 
ATOM     22  C   UNL     1       2.017   2.909  19.806  0.00  0.00    +0.000 C 
ATOM     23  C   UNL     1       1.882   2.753  18.280  0.00  0.00    +0.000 C 
ATOM     24  C   UNL     1       1.324   4.053  17.675  0.00  0.00    +0.000 C 
ATOM     25  C   UNL     1       2.266   5.234  17.992  0.00  0.00    +0.000 C 
ATOM     26  C   UNL     1       2.363   5.369  19.526  0.00  0.00    +0.000 C 
ATOM     27  C   UNL     1       3.267   2.483  17.676  0.00  0.00    +0.000 C 
ENDBRANCH  16  18
ENDBRANCH  15  16
ENDBRANCH   3  15
TORSDOF 6
ENDMDL
MODEL 9
REMARK VINA RESULT:      -8.2      1.012      1.777
REMARK  Name = 
REMARK  7 active torsions:
REMARK  status: ('A' for Active; 'I' for Inactive)
REMARK    1  A    between atoms: C_1  and  C_2
REMARK    2  A    between atoms: C_2  and  O_3
REMARK    3  A    between atoms: O_3  and  C_4
REMARK    4  A    between atoms: C_7  and  C_8
REMARK    5  A    between atoms: C_10  and  C_11
REMARK    6  A    between atoms: C_11  and  N_12
REMARK    7  A    between atoms: N_12  and  C_13
REMARK                            x       y       z     vdW  Elec       q    Type
REMARK                         _______ _______ _______ _____ _____    ______ ____
ROOT
ATOM      1  C   UNL     1       8.143   8.484  18.102  0.00  0.00    +0.000 A 
ATOM      2  N   UNL     1       7.252   8.143  17.188  0.00  0.00    +0.000 NA
ATOM      3  C   UNL     1       7.003   6.810  17.444  0.00  0.00    +0.000 A 
ATOM      4  C   UNL     1       7.799   6.391  18.486  0.00  0.00    +0.000 A 
ATOM      5  O   UNL     1       8.533   7.452  18.915  0.00  0.00    +0.000 OA
ENDROOT
BRANCH   1   9
ATOM      6  C   UNL     1       9.535  12.410  19.050  0.00  0.00    +0.000 A 
ATOM      7  C   UNL     1       8.851  12.164  17.858  0.00  0.00    +0.000 A 
ATOM      8  C   UNL     1       8.424  10.873  17.542  0.00  0.00    +0.000 A 
ATOM      9  C   UNL     1       8.686   9.804  18.407  0.00  0.00    +0.000 A 
ATOM     10  C   UNL     1       9.425  10.051  19.575  0.00  0.00    +0.000 A 
ATOM     11  C   UNL     1       9.853  11.345  19.892  0.00  0.00    +0.000 A 
BRANCH   6  12
ATOM     12  O   UNL     1       9.846  13.720  19.284  0.00  0.00    +0.000 OA
BRANCH  12  14
ATOM     13  C   UNL     1       9.321  16.023  19.003  0.00  0.00    +0.000 C 
ATOM     14  C   UNL     1       9.315  14.657  18.344  0.00  0.00    +0.000 C 
ENDBRANCH  12  14
ENDBRANCH   6  12
ENDBRANCH   1   9
BRANCH   3  15
ATOM     15  C   UNL     1       5.973   6.045  16.690  0.00  0.00    +0.000 C 
BRANCH  15  16
ATOM     16  N   UNL     1       4.626   6.220  17.246  0.00  0.00    +0.000 NA
ATOM     17  H   UNL     1       3.962   5.957  16.514  0.00  0.00    +0.000 HD
BRANCH  16  18
ATOM     18  C   UNL     1       4.334   5.435  18.456  0.00  0.00    +0.000 C 
ATOM     19  C   UNL     1       2.886   5.611  18.989  0.00  0.00    +0.000 C 
ATOM     20  C   UNL     1       1.868   5.103  17.951  0.00  0.00    +0.000 C 
ATOM     21  C   UNL     1       2.104   3.611  17.664  0.00  0.00    +0.000 C 
ATOM     22  C   UNL     1       1.935   2.822  18.973  0.00  0.00    +0.000 C 
ATOM     23  C   UNL     1       2.958   3.309  20.017  0.00  0.00    +0.000 C 
ATOM     24  C   UNL     1       4.384   3.121  19.470  0.00  0.00    +0.000 C 
ATOM     25  C   UNL     1       4.562   3.920  18.162  0.00  0.00    +0.000 C 
ATOM     26  C   UNL     1       3.534   3.395  17.138  0.00  0.00    +0.000 C 
ATOM     27  C   UNL     1       2.728   4.801  20.291  0.00  0.00    +0.000 C 
ENDBRANCH  16  18
ENDBRANCH  15  16
ENDBRANCH   3  15
TORSDOF 6
ENDMDL
