MODEL 1
REMARK VINA RESULT:      -7.1      0.000      0.000
REMARK  Name = 
REMARK  5 active torsions:
REMARK  status: ('A' for Active; 'I' for Inactive)
REMARK    1  A    between atoms: C_4  and  S_5
REMARK    2  A    between atoms: S_5  and  C_6
REMARK    3  A    between atoms: C_6  and  C_7
REMARK    4  A    between atoms: C_7  and  O_8
REMARK    5  A    between atoms: C_10  and  C_11
REMARK                            x       y       z     vdW  Elec       q    Type
REMARK                         _______ _______ _______ _____ _____    ______ ____
ROOT
ATOM      1  N   UNL     1       2.645   2.890  16.845  0.00  0.00    +0.000 N 
ATOM      2  C   UNL     1       3.217   4.048  17.328  0.00  0.00    +0.000 A 
ATOM      3  N   UNL     1       4.435   4.346  16.916  0.00  0.00    +0.000 NA
ATOM      4  C   UNL     1       4.900   5.499  17.375  0.00  0.00    +0.000 A 
ATOM      5  N   UNL     1       4.227   6.370  18.117  0.00  0.00    +0.000 NA
ATOM      6  C   UNL     1       3.020   5.965  18.501  0.00  0.00    +0.000 A 
ATOM      7  N   UNL     1       2.486   4.800  18.134  0.00  0.00    +0.000 NA
ATOM      8  H   UNL     1       3.082   2.604  15.979  0.00  0.00    +0.000 HD
ATOM      9  H   UNL     1       1.636   2.970  16.846  0.00  0.00    +0.000 HD
ENDROOT
BRANCH   6  10
ATOM     10  C   UNL     1       2.239   6.835  19.416  0.00  0.00    +0.000 A 
ATOM     11  C   UNL     1       1.774   6.342  20.661  0.00  0.00    +0.000 A 
ATOM     12 CL   UNL     1       1.964   4.692  21.178  0.00  0.00    +0.000 Cl
ATOM     13  C   UNL     1       1.079   7.156  21.559  0.00  0.00    +0.000 A 
ATOM     14  C   UNL     1       0.784   8.480  21.236  0.00  0.00    +0.000 A 
ATOM     15  C   UNL     1       1.207   9.011  20.011  0.00  0.00    +0.000 A 
ATOM     16  C   UNL     1       0.889  10.355  19.727  0.00  0.00    +0.000 A 
ATOM     17  C   UNL     1       1.303  10.944  18.530  0.00  0.00    +0.000 A 
ATOM     18  C   UNL     1       2.022  10.201  17.613  0.00  0.00    +0.000 A 
ATOM     19  C   UNL     1       2.341   8.869  17.892  0.00  0.00    +0.000 A 
ATOM     20  C   UNL     1       1.941   8.211  19.088  0.00  0.00    +0.000 A 
ATOM     21  C   UNL     1       0.148  11.184  20.745  0.00  0.00    +0.000 C 
ATOM     22  O   UNL     1      -0.690  10.370  21.562  0.00  0.00    +0.000 OA
ATOM     23  C   UNL     1       0.054   9.352  22.226  0.00  0.00    +0.000 C 
ENDBRANCH   6  10
BRANCH   4  24
ATOM     24  S   UNL     1       6.575   5.927  16.985  0.00  0.00    +0.000 S 
BRANCH  24  25
ATOM     25  C   UNL     1       6.979   4.507  15.915  0.00  0.00    +0.000 C 
BRANCH  25  26
ATOM     26  C   UNL     1       6.859   4.855  14.433  0.00  0.00    +0.000 C 
BRANCH  26  27
ATOM     27  O   UNL     1       7.976   5.617  13.985  0.00  0.00    +0.000 OA
ATOM     28  H   UNL     1       8.330   5.169  13.196  0.00  0.00    +0.000 HD
ENDBRANCH  26  27
ENDBRANCH  25  26
ENDBRANCH  24  25
ENDBRANCH   4  24
TORSDOF 5
ENDMDL
MODEL 2
REMARK VINA RESULT:      -7.0      1.249      1.398
REMARK  Name = 
REMARK  5 active torsions:
REMARK  status: ('A' for Active; 'I' for Inactive)
REMARK    1  A    between atoms: C_4  and  S_5
REMARK    2  A    between atoms: S_5  and  C_6
REMARK    3  A    between atoms: C_6  and  C_7
REMARK    4  A    between atoms: C_7  and  O_8
REMARK    5  A    between atoms: C_10  and  C_11
REMARK                            x       y       z     vdW  Elec       q    Type
REMARK                         _______ _______ _______ _____ _____    ______ ____
ROOT
ATOM      1  N   UNL     1       2.639   2.611  17.047  0.00  0.00    +0.000 N 
ATOM      2  C   UNL     1       3.175   3.841  17.367  0.00  0.00    +0.000 A 
ATOM      3  N   UNL     1       4.304   4.187  16.778  0.00  0.00    +0.000 NA
ATOM      4  C   UNL     1       4.731   5.403  17.089  0.00  0.00    +0.000 A 
ATOM      5  N   UNL     1       4.091   6.283  17.848  0.00  0.00    +0.000 NA
ATOM      6  C   UNL     1       2.977   5.828  18.415  0.00  0.00    +0.000 A 
ATOM      7  N   UNL     1       2.494   4.603  18.206  0.00  0.00    +0.000 NA
ATOM      8  H   UNL     1       2.986   2.286  16.154  0.00  0.00    +0.000 HD
ATOM      9  H   UNL     1       1.636   2.621  17.175  0.00  0.00    +0.000 HD
ENDROOT
BRANCH   6  10
ATOM     10  C   UNL     1       2.251   6.715  19.360  0.00  0.00    +0.000 A 
ATOM     11  C   UNL     1       1.826   6.232  20.623  0.00  0.00    +0.000 A 
ATOM     12 CL   UNL     1       2.004   4.578  21.134  0.00  0.00    +0.000 Cl
ATOM     13  C   UNL     1       1.185   7.060  21.547  0.00  0.00    +0.000 A 
ATOM     14  C   UNL     1       0.904   8.389  21.235  0.00  0.00    +0.000 A 
ATOM     15  C   UNL     1       1.288   8.911  19.994  0.00  0.00    +0.000 A 
ATOM     16  C   UNL     1       0.987  10.261  19.722  0.00  0.00    +0.000 A 
ATOM     17  C   UNL     1       1.364  10.842  18.509  0.00  0.00    +0.000 A 
ATOM     18  C   UNL     1       2.031  10.084  17.563  0.00  0.00    +0.000 A 
ATOM     19  C   UNL     1       2.334   8.746  17.831  0.00  0.00    +0.000 A 
ATOM     20  C   UNL     1       1.968   8.097  19.043  0.00  0.00    +0.000 A 
ATOM     21  C   UNL     1       0.304  11.106  20.768  0.00  0.00    +0.000 C 
ATOM     22  O   UNL     1      -0.517  10.309  21.618  0.00  0.00    +0.000 OA
ATOM     23  C   UNL     1       0.233   9.275  22.253  0.00  0.00    +0.000 C 
ENDBRANCH   6  10
BRANCH   4  24
ATOM     24  S   UNL     1       6.305   5.912  16.452  0.00  0.00    +0.000 S 
BRANCH  24  25
ATOM     25  C   UNL     1       7.020   6.581  17.990  0.00  0.00    +0.000 C 
BRANCH  25  26
ATOM     26  C   UNL     1       7.710   5.500  18.818  0.00  0.00    +0.000 C 
BRANCH  26  27
ATOM     27  O   UNL     1       7.812   4.276  18.096  0.00  0.00    +0.000 OA
ATOM     28  H   UNL     1       7.218   3.637  18.530  0.00  0.00    +0.000 HD
ENDBRANCH  26  27
ENDBRANCH  25  26
ENDBRANCH  24  25
ENDBRANCH   4  24
TORSDOF 5
ENDMDL
MODEL 3
REMARK VINA RESULT:      -7.0      4.070      7.398
REMARK  Name = 
REMARK  5 active torsions:
REMARK  status: ('A' for Active; 'I' for Inactive)
REMARK    1  A    between atoms: C_4  and  S_5
REMARK    2  A    between atoms: S_5  and  C_6
REMARK    3  A    between atoms: C_6  and  C_7
REMARK    4  A    between atoms: C_7  and  O_8
REMARK    5  A    between atoms: C_10  and  C_11
REMARK                            x       y       z     vdW  Elec       q    Type
REMARK                         _______ _______ _______ _____ _____    ______ ____
ROOT
ATOM      1  N   UNL     1       0.261   9.352  23.318  0.00  0.00    +0.000 N 
ATOM      2  C   UNL     1       0.251   9.333  21.939  0.00  0.00    +0.000 A 
ATOM      3  N   UNL     1      -0.560  10.172  21.323  0.00  0.00    +0.000 NA
ATOM      4  C   UNL     1      -0.477  10.140  20.001  0.00  0.00    +0.000 A 
ATOM      5  N   UNL     1       0.382   9.418  19.291  0.00  0.00    +0.000 NA
ATOM      6  C   UNL     1       1.137   8.587  20.004  0.00  0.00    +0.000 A 
ATOM      7  N   UNL     1       1.089   8.508  21.334  0.00  0.00    +0.000 NA
ATOM      8  H   UNL     1      -0.087  10.233  23.671  0.00  0.00    +0.000 HD
ATOM      9  H   UNL     1       1.158   9.038  23.666  0.00  0.00    +0.000 HD
ENDROOT
BRANCH   6  10
ATOM     10  C   UNL     1       2.054   7.669  19.281  0.00  0.00    +0.000 A 
ATOM     11  C   UNL     1       2.783   8.116  18.151  0.00  0.00    +0.000 A 
ATOM     12 CL   UNL     1       2.601   9.698  17.450  0.00  0.00    +0.000 Cl
ATOM     13  C   UNL     1       3.687   7.285  17.485  0.00  0.00    +0.000 A 
ATOM     14  C   UNL     1       3.870   5.965  17.892  0.00  0.00    +0.000 A 
ATOM     15  C   UNL     1       3.162   5.468  18.992  0.00  0.00    +0.000 A 
ATOM     16  C   UNL     1       3.380   4.128  19.370  0.00  0.00    +0.000 A 
ATOM     17  C   UNL     1       2.717   3.583  20.473  0.00  0.00    +0.000 A 
ATOM     18  C   UNL     1       1.833   4.365  21.195  0.00  0.00    +0.000 A 
ATOM     19  C   UNL     1       1.616   5.695  20.825  0.00  0.00    +0.000 A 
ATOM     20  C   UNL     1       2.253   6.301  19.708  0.00  0.00    +0.000 A 
ATOM     21  C   UNL     1       4.380   3.287  18.617  0.00  0.00    +0.000 C 
ATOM     22  O   UNL     1       4.497   3.715  17.263  0.00  0.00    +0.000 OA
ATOM     23  C   UNL     1       4.867   5.088  17.176  0.00  0.00    +0.000 C 
ENDBRANCH   6  10
BRANCH   4  24
ATOM     24  S   UNL     1      -1.617  11.135  19.078  0.00  0.00    +0.000 S 
BRANCH  24  25
ATOM     25  C   UNL     1      -1.864  10.021  17.656  0.00  0.00    +0.000 C 
BRANCH  25  26
ATOM     26  C   UNL     1      -2.887  10.575  16.666  0.00  0.00    +0.000 C 
BRANCH  26  27
ATOM     27  O   UNL     1      -2.292  11.507  15.768  0.00  0.00    +0.000 OA
ATOM     28  H   UNL     1      -2.586  11.267  14.871  0.00  0.00    +0.000 HD
ENDBRANCH  26  27
ENDBRANCH  25  26
ENDBRANCH  24  25
ENDBRANCH   4  24
TORSDOF 5
ENDMDL
MODEL 4
REMARK VINA RESULT:      -6.9      3.476      7.657
REMARK  Name = 
REMARK  5 active torsions:
REMARK  status: ('A' for Active; 'I' for Inactive)
REMARK    1  A    between atoms: C_4  and  S_5
REMARK    2  A    between atoms: S_5  and  C_6
REMARK    3  A    between atoms: C_6  and  C_7
REMARK    4  A    between atoms: C_7  and  O_8
REMARK    5  A    between atoms: C_10  and  C_11
REMARK                            x       y       z     vdW  Elec       q    Type
REMARK                         _______ _______ _______ _____ _____    ______ ____
ROOT
ATOM      1  N   UNL     1       0.311  10.642  17.991  0.00  0.00    +0.000 N 
ATOM      2  C   UNL     1       0.851   9.750  18.894  0.00  0.00    +0.000 A 
ATOM      3  N   UNL     1       0.698  10.012  20.178  0.00  0.00    +0.000 NA
ATOM      4  C   UNL     1       1.192   9.085  20.987  0.00  0.00    +0.000 A 
ATOM      5  N   UNL     1       1.729   7.931  20.613  0.00  0.00    +0.000 NA
ATOM      6  C   UNL     1       1.862   7.774  19.298  0.00  0.00    +0.000 A 
ATOM      7  N   UNL     1       1.445   8.673  18.407  0.00  0.00    +0.000 NA
ATOM      8  H   UNL     1      -0.426  11.187  18.419  0.00  0.00    +0.000 HD
ATOM      9  H   UNL     1       0.091  10.172  17.123  0.00  0.00    +0.000 HD
ENDROOT
BRANCH   6  10
ATOM     10  C   UNL     1       2.546   6.556  18.796  0.00  0.00    +0.000 A 
ATOM     11  C   UNL     1       3.578   6.651  17.830  0.00  0.00    +0.000 A 
ATOM     12 CL   UNL     1       4.058   8.144  17.074  0.00  0.00    +0.000 Cl
ATOM     13  C   UNL     1       4.268   5.523  17.379  0.00  0.00    +0.000 A 
ATOM     14  C   UNL     1       3.929   4.252  17.840  0.00  0.00    +0.000 A 
ATOM     15  C   UNL     1       2.905   4.101  18.783  0.00  0.00    +0.000 A 
ATOM     16  C   UNL     1       2.599   2.798  19.224  0.00  0.00    +0.000 A 
ATOM     17  C   UNL     1       1.601   2.588  20.179  0.00  0.00    +0.000 A 
ATOM     18  C   UNL     1       0.903   3.667  20.690  0.00  0.00    +0.000 A 
ATOM     19  C   UNL     1       1.206   4.961  20.257  0.00  0.00    +0.000 A 
ATOM     20  C   UNL     1       2.203   5.237  19.281  0.00  0.00    +0.000 A 
ATOM     21  C   UNL     1       3.390   1.623  18.708  0.00  0.00    +0.000 C 
ATOM     22  O   UNL     1       3.891   1.875  17.397  0.00  0.00    +0.000 OA
ATOM     23  C   UNL     1       4.699   3.048  17.361  0.00  0.00    +0.000 C 
ENDBRANCH   6  10
BRANCH   4  24
ATOM     24  S   UNL     1       1.152   9.406  22.730  0.00  0.00    +0.000 S 
BRANCH  24  25
ATOM     25  C   UNL     1      -0.656   9.463  22.957  0.00  0.00    +0.000 C 
BRANCH  25  26
ATOM     26  C   UNL     1      -1.173  10.895  23.071  0.00  0.00    +0.000 C 
BRANCH  26  27
ATOM     27  O   UNL     1      -0.180  11.840  22.683  0.00  0.00    +0.000 OA
ATOM     28  H   UNL     1       0.553  11.337  22.285  0.00  0.00    +0.000 HD
ENDBRANCH  26  27
ENDBRANCH  25  26
ENDBRANCH  24  25
ENDBRANCH   4  24
TORSDOF 5
ENDMDL
MODEL 5
REMARK VINA RESULT:      -6.9      3.678      7.153
REMARK  Name = 
REMARK  5 active torsions:
REMARK  status: ('A' for Active; 'I' for Inactive)
REMARK    1  A    between atoms: C_4  and  S_5
REMARK    2  A    between atoms: S_5  and  C_6
REMARK    3  A    between atoms: C_6  and  C_7
REMARK    4  A    between atoms: C_7  and  O_8
REMARK    5  A    between atoms: C_10  and  C_11
REMARK                            x       y       z     vdW  Elec       q    Type
REMARK                         _______ _______ _______ _____ _____    ______ ____
ROOT
ATOM      1  N   UNL     1       1.297   9.120  22.911  0.00  0.00    +0.000 N 
ATOM      2  C   UNL     1       1.238   8.962  21.543  0.00  0.00    +0.000 A 
ATOM      3  N   UNL     1       0.637   9.906  20.844  0.00  0.00    +0.000 NA
ATOM      4  C   UNL     1       0.666   9.718  19.533  0.00  0.00    +0.000 A 
ATOM      5  N   UNL     1       1.299   8.737  18.901  0.00  0.00    +0.000 NA
ATOM      6  C   UNL     1       1.851   7.824  19.695  0.00  0.00    +0.000 A 
ATOM      7  N   UNL     1       1.829   7.898  21.025  0.00  0.00    +0.000 NA
ATOM      8  H   UNL     1       1.187  10.092  23.169  0.00  0.00    +0.000 HD
ATOM      9  H   UNL     1       2.101   8.634  23.286  0.00  0.00    +0.000 HD
ENDROOT
BRANCH   6  10
ATOM     10  C   UNL     1       2.493   6.638  19.071  0.00  0.00    +0.000 A 
ATOM     11  C   UNL     1       3.411   6.792  18.002  0.00  0.00    +0.000 A 
ATOM     12 CL   UNL     1       3.784   8.321  17.262  0.00  0.00    +0.000 Cl
ATOM     13  C   UNL     1       4.062   5.695  17.432  0.00  0.00    +0.000 A 
ATOM     14  C   UNL     1       3.794   4.401  17.873  0.00  0.00    +0.000 A 
ATOM     15  C   UNL     1       2.882   4.193  18.915  0.00  0.00    +0.000 A 
ATOM     16  C   UNL     1       2.643   2.868  19.332  0.00  0.00    +0.000 A 
ATOM     17  C   UNL     1       1.759   2.602  20.381  0.00  0.00    +0.000 A 
ATOM     18  C   UNL     1       1.107   3.647  21.010  0.00  0.00    +0.000 A 
ATOM     19  C   UNL     1       1.343   4.962  20.601  0.00  0.00    +0.000 A 
ATOM     20  C   UNL     1       2.223   5.296  19.534  0.00  0.00    +0.000 A 
ATOM     21  C   UNL     1       3.389   1.729  18.684  0.00  0.00    +0.000 C 
ATOM     22  O   UNL     1       3.739   2.043  17.338  0.00  0.00    +0.000 OA
ATOM     23  C   UNL     1       4.523   3.231  17.263  0.00  0.00    +0.000 C 
ENDBRANCH   6  10
BRANCH   4  24
ATOM     24  S   UNL     1      -0.226  10.861  18.514  0.00  0.00    +0.000 S 
BRANCH  24  25
ATOM     25  C   UNL     1       0.624  12.395  19.014  0.00  0.00    +0.000 C 
BRANCH  25  26
ATOM     26  C   UNL     1       2.124  12.335  18.733  0.00  0.00    +0.000 C 
BRANCH  26  27
ATOM     27  O   UNL     1       2.387  12.201  17.340  0.00  0.00    +0.000 OA
ATOM     28  H   UNL     1       2.213  13.068  16.930  0.00  0.00    +0.000 HD
ENDBRANCH  26  27
ENDBRANCH  25  26
ENDBRANCH  24  25
ENDBRANCH   4  24
TORSDOF 5
ENDMDL
MODEL 6
REMARK VINA RESULT:      -6.9      4.480      7.074
REMARK  Name = 
REMARK  5 active torsions:
REMARK  status: ('A' for Active; 'I' for Inactive)
REMARK    1  A    between atoms: C_4  and  S_5
REMARK    2  A    between atoms: S_5  and  C_6
REMARK    3  A    between atoms: C_6  and  C_7
REMARK    4  A    between atoms: C_7  and  O_8
REMARK    5  A    between atoms: C_10  and  C_11
REMARK                            x       y       z     vdW  Elec       q    Type
REMARK                         _______ _______ _______ _____ _____    ______ ____
ROOT
ATOM      1  N   UNL     1       1.588  13.376  19.883  0.00  0.00    +0.000 N 
ATOM      2  C   UNL     1       0.818  12.273  19.581  0.00  0.00    +0.000 A 
ATOM      3  N   UNL     1      -0.333  12.481  18.970  0.00  0.00    +0.000 NA
ATOM      4  C   UNL     1      -0.994  11.375  18.660  0.00  0.00    +0.000 A 
ATOM      5  N   UNL     1      -0.561  10.133  18.837  0.00  0.00    +0.000 NA
ATOM      6  C   UNL     1       0.597  10.031  19.484  0.00  0.00    +0.000 A 
ATOM      7  N   UNL     1       1.310  11.084  19.883  0.00  0.00    +0.000 NA
ATOM      8  H   UNL     1       1.343  14.161  19.295  0.00  0.00    +0.000 HD
ATOM      9  H   UNL     1       2.566  13.120  19.926  0.00  0.00    +0.000 HD
ENDROOT
BRANCH   6  10
ATOM     10  C   UNL     1       1.105   8.675  19.814  0.00  0.00    +0.000 A 
ATOM     11  C   UNL     1       0.643   7.990  20.965  0.00  0.00    +0.000 A 
ATOM     12 CL   UNL     1      -0.445   8.686  22.131  0.00  0.00    +0.000 Cl
ATOM     13  C   UNL     1       1.071   6.695  21.270  0.00  0.00    +0.000 A 
ATOM     14  C   UNL     1       2.007   6.049  20.464  0.00  0.00    +0.000 A 
ATOM     15  C   UNL     1       2.508   6.688  19.324  0.00  0.00    +0.000 A 
ATOM     16  C   UNL     1       3.450   5.996  18.537  0.00  0.00    +0.000 A 
ATOM     17  C   UNL     1       3.969   6.576  17.376  0.00  0.00    +0.000 A 
ATOM     18  C   UNL     1       3.561   7.844  17.002  0.00  0.00    +0.000 A 
ATOM     19  C   UNL     1       2.625   8.532  17.779  0.00  0.00    +0.000 A 
ATOM     20  C   UNL     1       2.068   7.998  18.974  0.00  0.00    +0.000 A 
ATOM     21  C   UNL     1       3.861   4.595  18.912  0.00  0.00    +0.000 C 
ATOM     22  O   UNL     1       3.760   4.389  20.320  0.00  0.00    +0.000 OA
ATOM     23  C   UNL     1       2.440   4.643  20.794  0.00  0.00    +0.000 C 
ENDBRANCH   6  10
BRANCH   4  24
ATOM     24  S   UNL     1      -2.611  11.550  17.955  0.00  0.00    +0.000 S 
BRANCH  24  25
ATOM     25  C   UNL     1      -2.695   9.963  17.063  0.00  0.00    +0.000 C 
BRANCH  25  26
ATOM     26  C   UNL     1      -2.872  10.160  15.559  0.00  0.00    +0.000 C 
BRANCH  26  27
ATOM     27  O   UNL     1      -3.121  11.525  15.239  0.00  0.00    +0.000 OA
ATOM     28  H   UNL     1      -4.065  11.692  15.411  0.00  0.00    +0.000 HD
ENDBRANCH  26  27
ENDBRANCH  25  26
ENDBRANCH  24  25
ENDBRANCH   4  24
TORSDOF 5
ENDMDL
MODEL 7
REMARK VINA RESULT:      -6.8      6.268      8.697
REMARK  Name = 
REMARK  5 active torsions:
REMARK  status: ('A' for Active; 'I' for Inactive)
REMARK    1  A    between atoms: C_4  and  S_5
REMARK    2  A    between atoms: S_5  and  C_6
REMARK    3  A    between atoms: C_6  and  C_7
REMARK    4  A    between atoms: C_7  and  O_8
REMARK    5  A    between atoms: C_10  and  C_11
REMARK                            x       y       z     vdW  Elec       q    Type
REMARK                         _______ _______ _______ _____ _____    ______ ____
ROOT
ATOM      1  N   UNL     1       1.490  13.690  18.708  0.00  0.00    +0.000 N 
ATOM      2  C   UNL     1       0.667  12.630  19.026  0.00  0.00    +0.000 A 
ATOM      3  N   UNL     1       1.217  11.587  19.620  0.00  0.00    +0.000 NA
ATOM      4  C   UNL     1       0.360  10.631  19.948  0.00  0.00    +0.000 A 
ATOM      5  N   UNL     1      -0.959  10.683  19.802  0.00  0.00    +0.000 NA
ATOM      6  C   UNL     1      -1.410  11.763  19.170  0.00  0.00    +0.000 A 
ATOM      7  N   UNL     1      -0.621  12.754  18.755  0.00  0.00    +0.000 NA
ATOM      8  H   UNL     1       2.326  13.683  19.277  0.00  0.00    +0.000 HD
ATOM      9  H   UNL     1       0.958  14.550  18.681  0.00  0.00    +0.000 HD
ENDROOT
BRANCH   6  10
ATOM     10  C   UNL     1      -2.863  11.854  18.875  0.00  0.00    +0.000 A 
ATOM     11  C   UNL     1      -3.380  11.393  17.638  0.00  0.00    +0.000 A 
ATOM     12 CL   UNL     1      -2.388  10.796  16.339  0.00  0.00    +0.000 Cl
ATOM     13  C   UNL     1      -4.748  11.424  17.358  0.00  0.00    +0.000 A 
ATOM     14  C   UNL     1      -5.650  11.955  18.279  0.00  0.00    +0.000 A 
ATOM     15  C   UNL     1      -5.189  12.439  19.509  0.00  0.00    +0.000 A 
ATOM     16  C   UNL     1      -6.136  12.964  20.411  0.00  0.00    +0.000 A 
ATOM     17  C   UNL     1      -5.737  13.443  21.661  0.00  0.00    +0.000 A 
ATOM     18  C   UNL     1      -4.399  13.409  22.013  0.00  0.00    +0.000 A 
ATOM     19  C   UNL     1      -3.458  12.887  21.122  0.00  0.00    +0.000 A 
ATOM     20  C   UNL     1      -3.801  12.394  19.833  0.00  0.00    +0.000 A 
ATOM     21  C   UNL     1      -7.601  12.957  20.053  0.00  0.00    +0.000 C 
ATOM     22  O   UNL     1      -7.786  13.029  18.641  0.00  0.00    +0.000 OA
ATOM     23  C   UNL     1      -7.126  11.960  17.970  0.00  0.00    +0.000 C 
ENDBRANCH   6  10
BRANCH   4  24
ATOM     24  S   UNL     1       1.016   9.134  20.632  0.00  0.00    +0.000 S 
BRANCH  24  25
ATOM     25  C   UNL     1      -0.310   8.775  21.831  0.00  0.00    +0.000 C 
BRANCH  25  26
ATOM     26  C   UNL     1      -0.190   9.629  23.090  0.00  0.00    +0.000 C 
BRANCH  26  27
ATOM     27  O   UNL     1      -1.137  10.693  23.090  0.00  0.00    +0.000 OA
ATOM     28  H   UNL     1      -0.686  11.478  22.729  0.00  0.00    +0.000 HD
ENDBRANCH  26  27
ENDBRANCH  25  26
ENDBRANCH  24  25
ENDBRANCH   4  24
TORSDOF 5
ENDMDL
MODEL 8
REMARK VINA RESULT:      -6.7      2.175      3.304
REMARK  Name = 
REMARK  5 active torsions:
REMARK  status: ('A' for Active; 'I' for Inactive)
REMARK    1  A    between atoms: C_4  and  S_5
REMARK    2  A    between atoms: S_5  and  C_6
REMARK    3  A    between atoms: C_6  and  C_7
REMARK    4  A    between atoms: C_7  and  O_8
REMARK    5  A    between atoms: C_10  and  C_11
REMARK                            x       y       z     vdW  Elec       q    Type
REMARK                         _______ _______ _______ _____ _____    ______ ____
ROOT
ATOM      1  N   UNL     1       0.996   3.558  20.907  0.00  0.00    +0.000 N 
ATOM      2  C   UNL     1       1.897   4.486  20.429  0.00  0.00    +0.000 A 
ATOM      3  N   UNL     1       3.115   4.064  20.147  0.00  0.00    +0.000 NA
ATOM      4  C   UNL     1       3.911   4.995  19.639  0.00  0.00    +0.000 A 
ATOM      5  N   UNL     1       3.560   6.238  19.334  0.00  0.00    +0.000 NA
ATOM      6  C   UNL     1       2.320   6.571  19.681  0.00  0.00    +0.000 A 
ATOM      7  N   UNL     1       1.462   5.721  20.245  0.00  0.00    +0.000 NA
ATOM      8  H   UNL     1       1.272   2.619  20.651  0.00  0.00    +0.000 HD
ATOM      9  H   UNL     1       0.051   3.837  20.679  0.00  0.00    +0.000 HD
ENDROOT
BRANCH   6  10
ATOM     10  C   UNL     1       1.877   7.973  19.468  0.00  0.00    +0.000 A 
ATOM     11  C   UNL     1       2.126   8.630  18.237  0.00  0.00    +0.000 A 
ATOM     12 CL   UNL     1       3.042   7.928  16.935  0.00  0.00    +0.000 Cl
ATOM     13  C   UNL     1       1.678   9.931  17.997  0.00  0.00    +0.000 A 
ATOM     14  C   UNL     1       1.002  10.644  18.986  0.00  0.00    +0.000 A 
ATOM     15  C   UNL     1       0.745  10.046  20.225  0.00  0.00    +0.000 A 
ATOM     16  C   UNL     1       0.055  10.801  21.195  0.00  0.00    +0.000 A 
ATOM     17  C   UNL     1      -0.248  10.250  22.442  0.00  0.00    +0.000 A 
ATOM     18  C   UNL     1       0.140   8.954  22.731  0.00  0.00    +0.000 A 
ATOM     19  C   UNL     1       0.822   8.201  21.771  0.00  0.00    +0.000 A 
ATOM     20  C   UNL     1       1.166   8.710  20.489  0.00  0.00    +0.000 A 
ATOM     21  C   UNL     1      -0.414  12.197  20.868  0.00  0.00    +0.000 C 
ATOM     22  O   UNL     1       0.431  12.810  19.898  0.00  0.00    +0.000 OA
ATOM     23  C   UNL     1       0.504  12.038  18.702  0.00  0.00    +0.000 C 
ENDBRANCH   6  10
BRANCH   4  24
ATOM     24  S   UNL     1       5.605   4.563  19.349  0.00  0.00    +0.000 S 
BRANCH  24  25
ATOM     25  C   UNL     1       5.853   5.463  17.782  0.00  0.00    +0.000 C 
BRANCH  25  26
ATOM     26  C   UNL     1       7.188   6.203  17.753  0.00  0.00    +0.000 C 
BRANCH  26  27
ATOM     27  O   UNL     1       7.553   6.565  16.424  0.00  0.00    +0.000 OA
ATOM     28  H   UNL     1       7.993   5.791  16.028  0.00  0.00    +0.000 HD
ENDBRANCH  26  27
ENDBRANCH  25  26
ENDBRANCH  24  25
ENDBRANCH   4  24
TORSDOF 5
ENDMDL
MODEL 9
REMARK VINA RESULT:      -6.7      3.223      4.332
REMARK  Name = 
REMARK  5 active torsions:
REMARK  status: ('A' for Active; 'I' for Inactive)
REMARK    1  A    between atoms: C_4  and  S_5
REMARK    2  A    between atoms: S_5  and  C_6
REMARK    3  A    between atoms: C_6  and  C_7
REMARK    4  A    between atoms: C_7  and  O_8
REMARK    5  A    between atoms: C_10  and  C_11
REMARK                            x       y       z     vdW  Elec       q    Type
REMARK                         _______ _______ _______ _____ _____    ______ ____
ROOT
ATOM      1  N   UNL     1       5.661   5.023  19.364  0.00  0.00    +0.000 N 
ATOM      2  C   UNL     1       4.316   5.220  19.594  0.00  0.00    +0.000 A 
ATOM      3  N   UNL     1       3.622   4.203  20.069  0.00  0.00    +0.000 NA
ATOM      4  C   UNL     1       2.350   4.479  20.318  0.00  0.00    +0.000 A 
ATOM      5  N   UNL     1       1.775   5.670  20.207  0.00  0.00    +0.000 NA
ATOM      6  C   UNL     1       2.551   6.622  19.696  0.00  0.00    +0.000 A 
ATOM      7  N   UNL     1       3.828   6.428  19.364  0.00  0.00    +0.000 NA
ATOM      8  H   UNL     1       6.012   4.248  19.911  0.00  0.00    +0.000 HD
ATOM      9  H   UNL     1       6.161   5.900  19.435  0.00  0.00    +0.000 HD
ENDROOT
BRANCH   6  10
ATOM     10  C   UNL     1       1.958   7.959  19.443  0.00  0.00    +0.000 A 
ATOM     11  C   UNL     1       2.096   8.585  18.179  0.00  0.00    +0.000 A 
ATOM     12 CL   UNL     1       3.038   7.924  16.873  0.00  0.00    +0.000 Cl
ATOM     13  C   UNL     1       1.506   9.821  17.903  0.00  0.00    +0.000 A 
ATOM     14  C   UNL     1       0.792  10.502  18.887  0.00  0.00    +0.000 A 
ATOM     15  C   UNL     1       0.640   9.935  20.158  0.00  0.00    +0.000 A 
ATOM     16  C   UNL     1      -0.093  10.658  21.122  0.00  0.00    +0.000 A 
ATOM     17  C   UNL     1      -0.295  10.133  22.401  0.00  0.00    +0.000 A 
ATOM     18  C   UNL     1       0.236   8.898  22.727  0.00  0.00    +0.000 A 
ATOM     19  C   UNL     1       0.961   8.178  21.773  0.00  0.00    +0.000 A 
ATOM     20  C   UNL     1       1.208   8.663  20.459  0.00  0.00    +0.000 A 
ATOM     21  C   UNL     1      -0.716  11.981  20.757  0.00  0.00    +0.000 C 
ATOM     22  O   UNL     1       0.028  12.636  19.732  0.00  0.00    +0.000 OA
ATOM     23  C   UNL     1       0.142  11.824  18.566  0.00  0.00    +0.000 C 
ENDBRANCH   6  10
BRANCH   4  24
ATOM     24  S   UNL     1       1.302   3.146  20.835  0.00  0.00    +0.000 S 
BRANCH  24  25
ATOM     25  C   UNL     1       0.628   2.679  19.207  0.00  0.00    +0.000 C 
BRANCH  25  26
ATOM     26  C   UNL     1       1.732   2.384  18.194  0.00  0.00    +0.000 C 
BRANCH  26  27
ATOM     27  O   UNL     1       2.664   1.435  18.702  0.00  0.00    +0.000 OA
ATOM     28  H   UNL     1       2.401   1.238  19.619  0.00  0.00    +0.000 HD
ENDBRANCH  26  27
ENDBRANCH  25  26
ENDBRANCH  24  25
ENDBRANCH   4  24
TORSDOF 5
ENDMDL
