MODEL 1
REMARK VINA RESULT:      -6.7      0.000      0.000
REMARK  Name = 
REMARK  4 active torsions:
REMARK  status: ('A' for Active; 'I' for Inactive)
REMARK    1  A    between atoms: C_1  and  O_2
REMARK    2  A    between atoms: O_2  and  C_3
REMARK    3  A    between atoms: C_6  and  N_7
REMARK    4  A    between atoms: C_8  and  C_10
REMARK                            x       y       z     vdW  Elec       q    Type
REMARK                         _______ _______ _______ _____ _____    ______ ____
ROOT
ATOM      1  N   UNL     1       4.210   4.651  17.923  0.00  0.00    +0.000 N 
ATOM      2  C   UNL     1       4.370   4.008  19.142  0.00  0.00    +0.000 C 
ATOM      3  O   UNL     1       5.401   3.472  19.525  0.00  0.00    +0.000 OA
ATOM      4  H   UNL     1       3.300   5.049  17.721  0.00  0.00    +0.000 HD
ENDROOT
BRANCH   1   8
ATOM      5  C   UNL     1       7.141   5.225  15.062  0.00  0.00    +0.000 A 
ATOM      6  N   UNL     1       6.309   4.197  14.861  0.00  0.00    +0.000 NA
ATOM      7  C   UNL     1       5.350   4.014  15.800  0.00  0.00    +0.000 A 
ATOM      8  C   UNL     1       5.203   4.801  16.927  0.00  0.00    +0.000 A 
ATOM      9  C   UNL     1       6.147   5.808  17.032  0.00  0.00    +0.000 A 
ATOM     10  N   UNL     1       7.117   6.048  16.123  0.00  0.00    +0.000 NA
BRANCH   5  12
ATOM     11  C   UNL     1       7.604   5.084  12.798  0.00  0.00    +0.000 C 
ATOM     12  O   UNL     1       8.103   5.399  14.091  0.00  0.00    +0.000 OA
ENDBRANCH   5  12
ENDBRANCH   1   8
BRANCH   2  13
ATOM     13  C   UNL     1       3.124   4.067  20.021  0.00  0.00    +0.000 C 
ATOM     14  C   UNL     1       1.828   4.124  19.219  0.00  0.00    +0.000 C 
ATOM     15  C   UNL     1       0.755   3.765  20.238  0.00  0.00    +0.000 C 
ATOM     16  C   UNL     1       1.432   2.844  21.252  0.00  0.00    +0.000 C 
ATOM     17  C   UNL     1       2.913   2.819  20.880  0.00  0.00    +0.000 C 
ENDBRANCH   2  13
TORSDOF 3
ENDMDL
MODEL 2
REMARK VINA RESULT:      -6.7      0.591      1.605
REMARK  Name = 
REMARK  4 active torsions:
REMARK  status: ('A' for Active; 'I' for Inactive)
REMARK    1  A    between atoms: C_1  and  O_2
REMARK    2  A    between atoms: O_2  and  C_3
REMARK    3  A    between atoms: C_6  and  N_7
REMARK    4  A    between atoms: C_8  and  C_10
REMARK                            x       y       z     vdW  Elec       q    Type
REMARK                         _______ _______ _______ _____ _____    ______ ____
ROOT
ATOM      1  N   UNL     1       3.958   3.914  17.420  0.00  0.00    +0.000 N 
ATOM      2  C   UNL     1       4.136   3.432  18.709  0.00  0.00    +0.000 C 
ATOM      3  O   UNL     1       5.210   3.352  19.289  0.00  0.00    +0.000 OA
ATOM      4  H   UNL     1       3.014   3.920  17.050  0.00  0.00    +0.000 HD
ENDROOT
BRANCH   1   8
ATOM      5  C   UNL     1       6.978   5.182  14.895  0.00  0.00    +0.000 A 
ATOM      6  N   UNL     1       6.440   6.113  15.691  0.00  0.00    +0.000 NA
ATOM      7  C   UNL     1       5.452   5.692  16.517  0.00  0.00    +0.000 A 
ATOM      8  C   UNL     1       4.978   4.395  16.566  0.00  0.00    +0.000 A 
ATOM      9  C   UNL     1       5.595   3.539  15.670  0.00  0.00    +0.000 A 
ATOM     10  N   UNL     1       6.593   3.897  14.832  0.00  0.00    +0.000 NA
BRANCH   5  12
ATOM     11  C   UNL     1       7.807   5.179  12.734  0.00  0.00    +0.000 C 
ATOM     12  O   UNL     1       7.987   5.629  14.070  0.00  0.00    +0.000 OA
ENDBRANCH   5  12
ENDBRANCH   1   8
BRANCH   2  13
ATOM     13  C   UNL     1       2.827   3.041  19.391  0.00  0.00    +0.000 C 
ATOM     14  C   UNL     1       2.972   2.847  20.897  0.00  0.00    +0.000 C 
ATOM     15  C   UNL     1       1.538   2.880  21.406  0.00  0.00    +0.000 C 
ATOM     16  C   UNL     1       0.769   3.779  20.438  0.00  0.00    +0.000 C 
ATOM     17  C   UNL     1       1.742   4.117  19.310  0.00  0.00    +0.000 C 
ENDBRANCH   2  13
TORSDOF 3
ENDMDL
MODEL 3
REMARK VINA RESULT:      -6.6      0.587      1.156
REMARK  Name = 
REMARK  4 active torsions:
REMARK  status: ('A' for Active; 'I' for Inactive)
REMARK    1  A    between atoms: C_1  and  O_2
REMARK    2  A    between atoms: O_2  and  C_3
REMARK    3  A    between atoms: C_6  and  N_7
REMARK    4  A    between atoms: C_8  and  C_10
REMARK                            x       y       z     vdW  Elec       q    Type
REMARK                         _______ _______ _______ _____ _____    ______ ____
ROOT
ATOM      1  N   UNL     1       4.020   3.802  17.382  0.00  0.00    +0.000 N 
ATOM      2  C   UNL     1       4.162   3.468  18.721  0.00  0.00    +0.000 C 
ATOM      3  O   UNL     1       5.214   3.493  19.345  0.00  0.00    +0.000 OA
ATOM      4  H   UNL     1       3.092   3.731  16.979  0.00  0.00    +0.000 HD
ENDROOT
BRANCH   1   8
ATOM      5  C   UNL     1       7.020   5.194  14.899  0.00  0.00    +0.000 A 
ATOM      6  N   UNL     1       6.618   3.935  14.696  0.00  0.00    +0.000 NA
ATOM      7  C   UNL     1       5.635   3.483  15.510  0.00  0.00    +0.000 A 
ATOM      8  C   UNL     1       5.055   4.230  16.518  0.00  0.00    +0.000 A 
ATOM      9  C   UNL     1       5.583   5.504  16.645  0.00  0.00    +0.000 A 
ATOM     10  N   UNL     1       6.554   6.013  15.855  0.00  0.00    +0.000 NA
BRANCH   5  12
ATOM     11  C   UNL     1       7.818   5.168  12.726  0.00  0.00    +0.000 C 
ATOM     12  O   UNL     1       8.014   5.636  14.053  0.00  0.00    +0.000 OA
ENDBRANCH   5  12
ENDBRANCH   1   8
BRANCH   2  13
ATOM     13  C   UNL     1       2.841   3.100  19.392  0.00  0.00    +0.000 C 
ATOM     14  C   UNL     1       2.995   2.777  20.875  0.00  0.00    +0.000 C 
ATOM     15  C   UNL     1       1.571   2.852  21.411  0.00  0.00    +0.000 C 
ATOM     16  C   UNL     1       0.845   3.869  20.532  0.00  0.00    +0.000 C 
ATOM     17  C   UNL     1       1.821   4.240  19.417  0.00  0.00    +0.000 C 
ENDBRANCH   2  13
TORSDOF 3
ENDMDL
MODEL 4
REMARK VINA RESULT:      -6.6      0.666      1.383
REMARK  Name = 
REMARK  4 active torsions:
REMARK  status: ('A' for Active; 'I' for Inactive)
REMARK    1  A    between atoms: C_1  and  O_2
REMARK    2  A    between atoms: O_2  and  C_3
REMARK    3  A    between atoms: C_6  and  N_7
REMARK    4  A    between atoms: C_8  and  C_10
REMARK                            x       y       z     vdW  Elec       q    Type
REMARK                         _______ _______ _______ _____ _____    ______ ____
ROOT
ATOM      1  N   UNL     1       4.257   4.368  17.764  0.00  0.00    +0.000 N 
ATOM      2  C   UNL     1       4.493   3.826  19.019  0.00  0.00    +0.000 C 
ATOM      3  O   UNL     1       5.597   3.556  19.472  0.00  0.00    +0.000 OA
ATOM      4  H   UNL     1       3.292   4.538  17.503  0.00  0.00    +0.000 HD
ENDROOT
BRANCH   1   8
ATOM      5  C   UNL     1       7.105   5.226  14.890  0.00  0.00    +0.000 A 
ATOM      6  N   UNL     1       7.161   5.947  16.015  0.00  0.00    +0.000 NA
ATOM      7  C   UNL     1       6.228   5.662  16.954  0.00  0.00    +0.000 A 
ATOM      8  C   UNL     1       5.241   4.705  16.806  0.00  0.00    +0.000 A 
ATOM      9  C   UNL     1       5.273   4.054  15.584  0.00  0.00    +0.000 A 
ATOM     10  N   UNL     1       6.186   4.287  14.615  0.00  0.00    +0.000 NA
BRANCH   5  12
ATOM     11  C   UNL     1       7.697   5.076  12.657  0.00  0.00    +0.000 C 
ATOM     12  O   UNL     1       8.069   5.527  13.953  0.00  0.00    +0.000 OA
ENDBRANCH   5  12
ENDBRANCH   1   8
BRANCH   2  13
ATOM     13  C   UNL     1       3.221   3.630  19.839  0.00  0.00    +0.000 C 
ATOM     14  C   UNL     1       2.418   4.916  20.012  0.00  0.00    +0.000 C 
ATOM     15  C   UNL     1       1.050   4.429  20.470  0.00  0.00    +0.000 C 
ATOM     16  C   UNL     1       0.869   3.043  19.853  0.00  0.00    +0.000 C 
ATOM     17  C   UNL     1       2.198   2.701  19.182  0.00  0.00    +0.000 C 
ENDBRANCH   2  13
TORSDOF 3
ENDMDL
MODEL 5
REMARK VINA RESULT:      -6.4      1.474      1.895
REMARK  Name = 
REMARK  4 active torsions:
REMARK  status: ('A' for Active; 'I' for Inactive)
REMARK    1  A    between atoms: C_1  and  O_2
REMARK    2  A    between atoms: O_2  and  C_3
REMARK    3  A    between atoms: C_6  and  N_7
REMARK    4  A    between atoms: C_8  and  C_10
REMARK                            x       y       z     vdW  Elec       q    Type
REMARK                         _______ _______ _______ _____ _____    ______ ____
ROOT
ATOM      1  N   UNL     1       3.811   4.692  17.886  0.00  0.00    +0.000 N 
ATOM      2  C   UNL     1       2.598   4.019  17.845  0.00  0.00    +0.000 C 
ATOM      3  O   UNL     1       2.126   3.478  16.855  0.00  0.00    +0.000 OA
ATOM      4  H   UNL     1       4.086   5.105  18.770  0.00  0.00    +0.000 HD
ENDROOT
BRANCH   1   8
ATOM      5  C   UNL     1       6.476   5.048  14.744  0.00  0.00    +0.000 A 
ATOM      6  N   UNL     1       5.888   6.177  15.154  0.00  0.00    +0.000 NA
ATOM      7  C   UNL     1       5.017   6.056  16.185  0.00  0.00    +0.000 A 
ATOM      8  C   UNL     1       4.704   4.860  16.802  0.00  0.00    +0.000 A 
ATOM      9  C   UNL     1       5.354   3.764  16.262  0.00  0.00    +0.000 A 
ATOM     10  N   UNL     1       6.242   3.824  15.244  0.00  0.00    +0.000 NA
BRANCH   5  12
ATOM     11  C   UNL     1       7.072   4.304  12.634  0.00  0.00    +0.000 C 
ATOM     12  O   UNL     1       7.365   5.196  13.701  0.00  0.00    +0.000 OA
ENDBRANCH   5  12
ENDBRANCH   1   8
BRANCH   2  13
ATOM     13  C   UNL     1       1.895   3.964  19.199  0.00  0.00    +0.000 C 
ATOM     14  C   UNL     1       1.536   2.546  19.629  0.00  0.00    +0.000 C 
ATOM     15  C   UNL     1       1.246   2.680  21.117  0.00  0.00    +0.000 C 
ATOM     16  C   UNL     1       2.112   3.839  21.610  0.00  0.00    +0.000 C 
ATOM     17  C   UNL     1       2.762   4.441  20.366  0.00  0.00    +0.000 C 
ENDBRANCH   2  13
TORSDOF 3
ENDMDL
MODEL 6
REMARK VINA RESULT:      -6.4      1.247      1.835
REMARK  Name = 
REMARK  4 active torsions:
REMARK  status: ('A' for Active; 'I' for Inactive)
REMARK    1  A    between atoms: C_1  and  O_2
REMARK    2  A    between atoms: O_2  and  C_3
REMARK    3  A    between atoms: C_6  and  N_7
REMARK    4  A    between atoms: C_8  and  C_10
REMARK                            x       y       z     vdW  Elec       q    Type
REMARK                         _______ _______ _______ _____ _____    ______ ____
ROOT
ATOM      1  N   UNL     1       4.216   3.791  18.237  0.00  0.00    +0.000 N 
ATOM      2  C   UNL     1       3.630   2.534  18.280  0.00  0.00    +0.000 C 
ATOM      3  O   UNL     1       3.883   1.614  17.515  0.00  0.00    +0.000 OA
ATOM      4  H   UNL     1       3.912   4.471  18.925  0.00  0.00    +0.000 HD
ENDROOT
BRANCH   1   8
ATOM      5  C   UNL     1       7.002   5.002  15.431  0.00  0.00    +0.000 A 
ATOM      6  N   UNL     1       7.448   4.851  16.682  0.00  0.00    +0.000 NA
ATOM      7  C   UNL     1       6.532   4.453  17.598  0.00  0.00    +0.000 A 
ATOM      8  C   UNL     1       5.200   4.218  17.315  0.00  0.00    +0.000 A 
ATOM      9  C   UNL     1       4.861   4.443  15.992  0.00  0.00    +0.000 A 
ATOM     10  N   UNL     1       5.731   4.828  15.033  0.00  0.00    +0.000 NA
BRANCH   5  12
ATOM     11  C   UNL     1       7.573   5.055  13.188  0.00  0.00    +0.000 C 
ATOM     12  O   UNL     1       7.951   5.399  14.514  0.00  0.00    +0.000 OA
ENDBRANCH   5  12
ENDBRANCH   1   8
BRANCH   2  13
ATOM     13  C   UNL     1       2.643   2.369  19.433  0.00  0.00    +0.000 C 
ATOM     14  C   UNL     1       3.223   2.786  20.780  0.00  0.00    +0.000 C 
ATOM     15  C   UNL     1       1.998   2.936  21.671  0.00  0.00    +0.000 C 
ATOM     16  C   UNL     1       0.853   3.343  20.744  0.00  0.00    +0.000 C 
ATOM     17  C   UNL     1       1.409   3.267  19.324  0.00  0.00    +0.000 C 
ENDBRANCH   2  13
TORSDOF 3
ENDMDL
MODEL 7
REMARK VINA RESULT:      -6.4      1.090      1.119
REMARK  Name = 
REMARK  4 active torsions:
REMARK  status: ('A' for Active; 'I' for Inactive)
REMARK    1  A    between atoms: C_1  and  O_2
REMARK    2  A    between atoms: O_2  and  C_3
REMARK    3  A    between atoms: C_6  and  N_7
REMARK    4  A    between atoms: C_8  and  C_10
REMARK                            x       y       z     vdW  Elec       q    Type
REMARK                         _______ _______ _______ _____ _____    ______ ____
ROOT
ATOM      1  N   UNL     1       4.613   4.799  18.123  0.00  0.00    +0.000 N 
ATOM      2  C   UNL     1       3.887   3.650  18.403  0.00  0.00    +0.000 C 
ATOM      3  O   UNL     1       3.899   2.629  17.729  0.00  0.00    +0.000 OA
ATOM      4  H   UNL     1       4.509   5.583  18.758  0.00  0.00    +0.000 HD
ENDROOT
BRANCH   1   8
ATOM      5  C   UNL     1       7.279   5.295  15.001  0.00  0.00    +0.000 A 
ATOM      6  N   UNL     1       6.074   5.853  14.846  0.00  0.00    +0.000 NA
ATOM      7  C   UNL     1       5.204   5.689  15.872  0.00  0.00    +0.000 A 
ATOM      8  C   UNL     1       5.486   4.984  17.026  0.00  0.00    +0.000 A 
ATOM      9  C   UNL     1       6.754   4.429  17.047  0.00  0.00    +0.000 A 
ATOM     10  N   UNL     1       7.668   4.568  16.061  0.00  0.00    +0.000 NA
BRANCH   5  12
ATOM     11  C   UNL     1       7.589   5.044  12.720  0.00  0.00    +0.000 C 
ATOM     12  O   UNL     1       8.151   5.481  13.950  0.00  0.00    +0.000 OA
ENDBRANCH   5  12
ENDBRANCH   1   8
BRANCH   2  13
ATOM     13  C   UNL     1       3.080   3.748  19.695  0.00  0.00    +0.000 C 
ATOM     14  C   UNL     1       1.576   3.645  19.469  0.00  0.00    +0.000 C 
ATOM     15  C   UNL     1       1.020   3.352  20.856  0.00  0.00    +0.000 C 
ATOM     16  C   UNL     1       2.119   2.590  21.595  0.00  0.00    +0.000 C 
ATOM     17  C   UNL     1       3.335   2.598  20.672  0.00  0.00    +0.000 C 
ENDBRANCH   2  13
TORSDOF 3
ENDMDL
MODEL 8
REMARK VINA RESULT:      -6.4      1.248      1.412
REMARK  Name = 
REMARK  4 active torsions:
REMARK  status: ('A' for Active; 'I' for Inactive)
REMARK    1  A    between atoms: C_1  and  O_2
REMARK    2  A    between atoms: O_2  and  C_3
REMARK    3  A    between atoms: C_6  and  N_7
REMARK    4  A    between atoms: C_8  and  C_10
REMARK                            x       y       z     vdW  Elec       q    Type
REMARK                         _______ _______ _______ _____ _____    ______ ____
ROOT
ATOM      1  N   UNL     1       4.692   3.677  17.444  0.00  0.00    +0.000 N 
ATOM      2  C   UNL     1       3.728   4.425  18.105  0.00  0.00    +0.000 C 
ATOM      3  O   UNL     1       3.503   5.611  17.911  0.00  0.00    +0.000 OA
ATOM      4  H   UNL     1       4.785   2.701  17.704  0.00  0.00    +0.000 HD
ENDROOT
BRANCH   1   8
ATOM      5  C   UNL     1       7.301   5.160  14.599  0.00  0.00    +0.000 A 
ATOM      6  N   UNL     1       6.291   4.411  14.144  0.00  0.00    +0.000 NA
ATOM      7  C   UNL     1       5.438   3.929  15.079  0.00  0.00    +0.000 A 
ATOM      8  C   UNL     1       5.565   4.152  16.437  0.00  0.00    +0.000 A 
ATOM      9  C   UNL     1       6.669   4.913  16.778  0.00  0.00    +0.000 A 
ATOM     10  N   UNL     1       7.547   5.431  15.891  0.00  0.00    +0.000 NA
BRANCH   5  12
ATOM     11  C   UNL     1       7.789   5.188  12.336  0.00  0.00    +0.000 C 
ATOM     12  O   UNL     1       8.151   5.648  13.630  0.00  0.00    +0.000 OA
ENDBRANCH   5  12
ENDBRANCH   1   8
BRANCH   2  13
ATOM     13  C   UNL     1       2.908   3.605  19.098  0.00  0.00    +0.000 C 
ATOM     14  C   UNL     1       2.410   4.426  20.283  0.00  0.00    +0.000 C 
ATOM     15  C   UNL     1       1.317   3.559  20.891  0.00  0.00    +0.000 C 
ATOM     16  C   UNL     1       0.731   2.750  19.734  0.00  0.00    +0.000 C 
ATOM     17  C   UNL     1       1.602   3.058  18.518  0.00  0.00    +0.000 C 
ENDBRANCH   2  13
TORSDOF 3
ENDMDL
MODEL 9
REMARK VINA RESULT:      -6.4      1.283      1.329
REMARK  Name = 
REMARK  4 active torsions:
REMARK  status: ('A' for Active; 'I' for Inactive)
REMARK    1  A    between atoms: C_1  and  O_2
REMARK    2  A    between atoms: O_2  and  C_3
REMARK    3  A    between atoms: C_6  and  N_7
REMARK    4  A    between atoms: C_8  and  C_10
REMARK                            x       y       z     vdW  Elec       q    Type
REMARK                         _______ _______ _______ _____ _____    ______ ____
ROOT
ATOM      1  N   UNL     1       4.586   4.778  18.203  0.00  0.00    +0.000 N 
ATOM      2  C   UNL     1       3.411   4.043  18.134  0.00  0.00    +0.000 C 
ATOM      3  O   UNL     1       3.011   3.447  17.144  0.00  0.00    +0.000 OA
ATOM      4  H   UNL     1       4.802   5.232  19.083  0.00  0.00    +0.000 HD
ENDROOT
BRANCH   1   8
ATOM      5  C   UNL     1       7.194   5.357  15.046  0.00  0.00    +0.000 A 
ATOM      6  N   UNL     1       7.633   4.582  16.043  0.00  0.00    +0.000 NA
ATOM      7  C   UNL     1       6.775   4.394  17.074  0.00  0.00    +0.000 A 
ATOM      8  C   UNL     1       5.515   4.957  17.152  0.00  0.00    +0.000 A 
ATOM      9  C   UNL     1       5.196   5.763  16.072  0.00  0.00    +0.000 A 
ATOM     10  N   UNL     1       6.004   5.978  15.011  0.00  0.00    +0.000 NA
BRANCH   5  12
ATOM     11  C   UNL     1       7.556   5.015  12.784  0.00  0.00    +0.000 C 
ATOM     12  O   UNL     1       8.078   5.527  14.003  0.00  0.00    +0.000 OA
ENDBRANCH   5  12
ENDBRANCH   1   8
BRANCH   2  13
ATOM     13  C   UNL     1       2.654   3.994  19.459  0.00  0.00    +0.000 C 
ATOM     14  C   UNL     1       1.251   3.413  19.324  0.00  0.00    +0.000 C 
ATOM     15  C   UNL     1       0.858   3.080  20.757  0.00  0.00    +0.000 C 
ATOM     16  C   UNL     1       2.162   2.759  21.486  0.00  0.00    +0.000 C 
ATOM     17  C   UNL     1       3.286   3.065  20.498  0.00  0.00    +0.000 C 
ENDBRANCH   2  13
TORSDOF 3
ENDMDL
