MODEL 1
REMARK VINA RESULT:      -8.3      0.000      0.000
REMARK  Name = 
REMARK  4 active torsions:
REMARK  status: ('A' for Active; 'I' for Inactive)
REMARK    1  A    between atoms: S_2  and  N_4
REMARK    2  A    between atoms: S_2  and  C_18
REMARK    3  A    between atoms: N_4  and  N_5
REMARK    4  A    between atoms: C_6  and  C_7
REMARK                            x       y       z     vdW  Elec       q    Type
REMARK                         _______ _______ _______ _____ _____    ______ ____
ROOT
ATOM      1  N   UNL     1       5.379   4.196  17.969  0.00  0.00    +0.000 NA
ATOM      2  C   UNL     1       4.186   3.761  17.730  0.00  0.00    +0.000 C 
ENDROOT
BRANCH   2   3
ATOM      3  C   UNL     1       3.149   3.804  18.780  0.00  0.00    +0.000 A 
ATOM      4  C   UNL     1       2.622   5.012  19.328  0.00  0.00    +0.000 A 
ATOM      5  C   UNL     1       2.936   6.316  18.872  0.00  0.00    +0.000 A 
ATOM      6  C   UNL     1       2.398   7.458  19.465  0.00  0.00    +0.000 A 
ATOM      7  C   UNL     1       1.519   7.333  20.529  0.00  0.00    +0.000 A 
ATOM      8  C   UNL     1       1.166   6.065  20.987  0.00  0.00    +0.000 A 
ATOM      9  C   UNL     1       1.699   4.907  20.396  0.00  0.00    +0.000 A 
ATOM     10  C   UNL     1       1.310   3.649  20.862  0.00  0.00    +0.000 A 
ATOM     11  C   UNL     1       1.822   2.498  20.273  0.00  0.00    +0.000 A 
ATOM     12  N   UNL     1       2.735   2.554  19.236  0.00  0.00    +0.000 N 
ATOM     13  O   UNL     1       3.174   1.464  18.743  0.00  0.00    +0.000 OA
ENDBRANCH   2   3
BRANCH   1  14
ATOM     14  N   UNL     1       6.295   4.145  16.886  0.00  0.00    +0.000 N 
ATOM     15  H   UNL     1       6.799   3.308  16.589  0.00  0.00    +0.000 HD
BRANCH  14  17
ATOM     16  O   UNL     1       5.259   6.253  15.962  0.00  0.00    +0.000 OA
ATOM     17  S   UNL     1       6.496   5.502  15.889  0.00  0.00    +0.000 S 
ATOM     18  O   UNL     1       7.770   6.125  16.187  0.00  0.00    +0.000 OA
BRANCH  17  19
ATOM     19  C   UNL     1       6.594   4.766  14.275  0.00  0.00    +0.000 A 
ATOM     20  C   UNL     1       5.610   3.859  13.866  0.00  0.00    +0.000 A 
ATOM     21  C   UNL     1       5.662   3.323  12.579  0.00  0.00    +0.000 A 
ATOM     22  C   UNL     1       6.683   3.698  11.704  0.00  0.00    +0.000 A 
ATOM     23  C   UNL     1       7.659   4.609  12.112  0.00  0.00    +0.000 A 
ATOM     24  C   UNL     1       7.616   5.149  13.400  0.00  0.00    +0.000 A 
ENDBRANCH  17  19
ENDBRANCH  14  17
ENDBRANCH   1  14
TORSDOF 4
ENDMDL
MODEL 2
REMARK VINA RESULT:      -8.3      2.351      3.179
REMARK  Name = 
REMARK  4 active torsions:
REMARK  status: ('A' for Active; 'I' for Inactive)
REMARK    1  A    between atoms: S_2  and  N_4
REMARK    2  A    between atoms: S_2  and  C_18
REMARK    3  A    between atoms: N_4  and  N_5
REMARK    4  A    between atoms: C_6  and  C_7
REMARK                            x       y       z     vdW  Elec       q    Type
REMARK                         _______ _______ _______ _____ _____    ______ ____
ROOT
ATOM      1  N   UNL     1       4.920   3.764  17.234  0.00  0.00    +0.000 NA
ATOM      2  C   UNL     1       3.630   3.751  17.161  0.00  0.00    +0.000 C 
ENDROOT
BRANCH   2   3
ATOM      3  C   UNL     1       2.809   3.887  18.381  0.00  0.00    +0.000 A 
ATOM      4  C   UNL     1       2.460   5.140  18.967  0.00  0.00    +0.000 A 
ATOM      5  C   UNL     1       2.754   6.410  18.410  0.00  0.00    +0.000 A 
ATOM      6  C   UNL     1       2.398   7.599  19.045  0.00  0.00    +0.000 A 
ATOM      7  C   UNL     1       1.726   7.558  20.256  0.00  0.00    +0.000 A 
ATOM      8  C   UNL     1       1.396   6.328  20.822  0.00  0.00    +0.000 A 
ATOM      9  C   UNL     1       1.746   5.123  20.190  0.00  0.00    +0.000 A 
ATOM     10  C   UNL     1       1.383   3.905  20.769  0.00  0.00    +0.000 A 
ATOM     11  C   UNL     1       1.713   2.708  20.142  0.00  0.00    +0.000 A 
ATOM     12  N   UNL     1       2.420   2.678  18.954  0.00  0.00    +0.000 N 
ATOM     13  O   UNL     1       2.700   1.549  18.432  0.00  0.00    +0.000 OA
ENDBRANCH   2   3
BRANCH   1  14
ATOM     14  N   UNL     1       5.620   3.663  16.003  0.00  0.00    +0.000 N 
ATOM     15  H   UNL     1       5.617   2.839  15.398  0.00  0.00    +0.000 HD
BRANCH  14  17
ATOM     16  O   UNL     1       7.511   4.520  14.568  0.00  0.00    +0.000 OA
ATOM     17  S   UNL     1       6.414   5.021  15.371  0.00  0.00    +0.000 S 
ATOM     18  O   UNL     1       5.432   5.929  14.814  0.00  0.00    +0.000 OA
BRANCH  17  19
ATOM     19  C   UNL     1       7.100   5.763  16.833  0.00  0.00    +0.000 A 
ATOM     20  C   UNL     1       7.544   4.948  17.880  0.00  0.00    +0.000 A 
ATOM     21  C   UNL     1       8.130   5.531  19.004  0.00  0.00    +0.000 A 
ATOM     22  C   UNL     1       8.280   6.918  19.076  0.00  0.00    +0.000 A 
ATOM     23  C   UNL     1       7.844   7.727  18.026  0.00  0.00    +0.000 A 
ATOM     24  C   UNL     1       7.253   7.152  16.898  0.00  0.00    +0.000 A 
ENDBRANCH  17  19
ENDBRANCH  14  17
ENDBRANCH   1  14
TORSDOF 4
ENDMDL
MODEL 3
REMARK VINA RESULT:      -8.2      0.102      1.016
REMARK  Name = 
REMARK  4 active torsions:
REMARK  status: ('A' for Active; 'I' for Inactive)
REMARK    1  A    between atoms: S_2  and  N_4
REMARK    2  A    between atoms: S_2  and  C_18
REMARK    3  A    between atoms: N_4  and  N_5
REMARK    4  A    between atoms: C_6  and  C_7
REMARK                            x       y       z     vdW  Elec       q    Type
REMARK                         _______ _______ _______ _____ _____    ______ ____
ROOT
ATOM      1  N   UNL     1       5.470   4.222  17.986  0.00  0.00    +0.000 NA
ATOM      2  C   UNL     1       4.254   3.887  17.707  0.00  0.00    +0.000 C 
ENDROOT
BRANCH   2   3
ATOM      3  C   UNL     1       3.216   3.894  18.757  0.00  0.00    +0.000 A 
ATOM      4  C   UNL     1       2.654   5.084  19.310  0.00  0.00    +0.000 A 
ATOM      5  C   UNL     1       2.930   6.399  18.860  0.00  0.00    +0.000 A 
ATOM      6  C   UNL     1       2.359   7.522  19.458  0.00  0.00    +0.000 A 
ATOM      7  C   UNL     1       1.483   7.367  20.520  0.00  0.00    +0.000 A 
ATOM      8  C   UNL     1       1.167   6.087  20.972  0.00  0.00    +0.000 A 
ATOM      9  C   UNL     1       1.733   4.947  20.377  0.00  0.00    +0.000 A 
ATOM     10  C   UNL     1       1.381   3.677  20.836  0.00  0.00    +0.000 A 
ATOM     11  C   UNL     1       1.926   2.543  20.242  0.00  0.00    +0.000 A 
ATOM     12  N   UNL     1       2.838   2.631  19.206  0.00  0.00    +0.000 N 
ATOM     13  O   UNL     1       3.308   1.556  18.708  0.00  0.00    +0.000 OA
ENDBRANCH   2   3
BRANCH   1  14
ATOM     14  N   UNL     1       6.388   4.217  16.903  0.00  0.00    +0.000 N 
ATOM     15  H   UNL     1       6.939   3.408  16.611  0.00  0.00    +0.000 HD
BRANCH  14  17
ATOM     16  O   UNL     1       5.268   6.307  16.039  0.00  0.00    +0.000 OA
ATOM     17  S   UNL     1       6.511   5.577  15.898  0.00  0.00    +0.000 S 
ATOM     18  O   UNL     1       7.789   6.222  16.126  0.00  0.00    +0.000 OA
BRANCH  17  19
ATOM     19  C   UNL     1       6.534   4.843  14.280  0.00  0.00    +0.000 A 
ATOM     20  C   UNL     1       7.572   5.150  13.394  0.00  0.00    +0.000 A 
ATOM     21  C   UNL     1       7.615   4.531  12.144  0.00  0.00    +0.000 A 
ATOM     22  C   UNL     1       6.633   3.605  11.787  0.00  0.00    +0.000 A 
ATOM     23  C   UNL     1       5.602   3.295  12.676  0.00  0.00    +0.000 A 
ATOM     24  C   UNL     1       5.551   3.912  13.928  0.00  0.00    +0.000 A 
ENDBRANCH  17  19
ENDBRANCH  14  17
ENDBRANCH   1  14
TORSDOF 4
ENDMDL
MODEL 4
REMARK VINA RESULT:      -8.1      2.338      3.214
REMARK  Name = 
REMARK  4 active torsions:
REMARK  status: ('A' for Active; 'I' for Inactive)
REMARK    1  A    between atoms: S_2  and  N_4
REMARK    2  A    between atoms: S_2  and  C_18
REMARK    3  A    between atoms: N_4  and  N_5
REMARK    4  A    between atoms: C_6  and  C_7
REMARK                            x       y       z     vdW  Elec       q    Type
REMARK                         _______ _______ _______ _____ _____    ______ ____
ROOT
ATOM      1  N   UNL     1       4.158   4.293  16.616  0.00  0.00    +0.000 NA
ATOM      2  C   UNL     1       4.242   3.603  17.706  0.00  0.00    +0.000 C 
ENDROOT
BRANCH   2   3
ATOM      3  C   UNL     1       3.171   3.673  18.720  0.00  0.00    +0.000 A 
ATOM      4  C   UNL     1       2.675   4.893  19.269  0.00  0.00    +0.000 A 
ATOM      5  C   UNL     1       3.057   6.191  18.845  0.00  0.00    +0.000 A 
ATOM      6  C   UNL     1       2.545   7.344  19.438  0.00  0.00    +0.000 A 
ATOM      7  C   UNL     1       1.625   7.240  20.468  0.00  0.00    +0.000 A 
ATOM      8  C   UNL     1       1.205   5.981  20.893  0.00  0.00    +0.000 A 
ATOM      9  C   UNL     1       1.711   4.810  20.303  0.00  0.00    +0.000 A 
ATOM     10  C   UNL     1       1.255   3.563  20.734  0.00  0.00    +0.000 A 
ATOM     11  C   UNL     1       1.741   2.400  20.145  0.00  0.00    +0.000 A 
ATOM     12  N   UNL     1       2.691   2.435  19.140  0.00  0.00    +0.000 N 
ATOM     13  O   UNL     1       3.103   1.335  18.645  0.00  0.00    +0.000 OA
ENDBRANCH   2   3
BRANCH   1  14
ATOM     14  N   UNL     1       5.219   4.131  15.687  0.00  0.00    +0.000 N 
ATOM     15  H   UNL     1       5.431   3.264  15.190  0.00  0.00    +0.000 HD
BRANCH  14  17
ATOM     16  O   UNL     1       7.114   4.994  14.261  0.00  0.00    +0.000 OA
ATOM     17  S   UNL     1       6.143   5.475  15.223  0.00  0.00    +0.000 S 
ATOM     18  O   UNL     1       5.255   6.575  14.906  0.00  0.00    +0.000 OA
BRANCH  17  19
ATOM     19  C   UNL     1       7.009   5.867  16.724  0.00  0.00    +0.000 A 
ATOM     20  C   UNL     1       7.261   7.204  17.049  0.00  0.00    +0.000 A 
ATOM     21  C   UNL     1       7.895   7.511  18.254  0.00  0.00    +0.000 A 
ATOM     22  C   UNL     1       8.264   6.489  19.131  0.00  0.00    +0.000 A 
ATOM     23  C   UNL     1       8.004   5.156  18.808  0.00  0.00    +0.000 A 
ATOM     24  C   UNL     1       7.373   4.841  17.603  0.00  0.00    +0.000 A 
ENDBRANCH  17  19
ENDBRANCH  14  17
ENDBRANCH   1  14
TORSDOF 4
ENDMDL
MODEL 5
REMARK VINA RESULT:      -7.9      3.930      5.824
REMARK  Name = 
REMARK  4 active torsions:
REMARK  status: ('A' for Active; 'I' for Inactive)
REMARK    1  A    between atoms: S_2  and  N_4
REMARK    2  A    between atoms: S_2  and  C_18
REMARK    3  A    between atoms: N_4  and  N_5
REMARK    4  A    between atoms: C_6  and  C_7
REMARK                            x       y       z     vdW  Elec       q    Type
REMARK                         _______ _______ _______ _____ _____    ______ ____
ROOT
ATOM      1  N   UNL     1       1.871   6.598  20.238  0.00  0.00    +0.000 NA
ATOM      2  C   UNL     1       2.268   7.758  19.826  0.00  0.00    +0.000 C 
ENDROOT
BRANCH   2   3
ATOM      3  C   UNL     1       1.324   8.891  19.758  0.00  0.00    +0.000 A 
ATOM      4  C   UNL     1       0.616   9.405  20.885  0.00  0.00    +0.000 A 
ATOM      5  C   UNL     1       0.798   8.978  22.224  0.00  0.00    +0.000 A 
ATOM      6  C   UNL     1       0.059   9.511  23.279  0.00  0.00    +0.000 A 
ATOM      7  C   UNL     1      -0.882  10.498  23.032  0.00  0.00    +0.000 A 
ATOM      8  C   UNL     1      -1.069  10.962  21.732  0.00  0.00    +0.000 A 
ATOM      9  C   UNL     1      -0.329  10.435  20.660  0.00  0.00    +0.000 A 
ATOM     10  C   UNL     1      -0.522  10.935  19.370  0.00  0.00    +0.000 A 
ATOM     11  C   UNL     1       0.217  10.429  18.307  0.00  0.00    +0.000 A 
ATOM     12  N   UNL     1       1.141   9.415  18.480  0.00  0.00    +0.000 N 
ATOM     13  O   UNL     1       1.782   8.987  17.464  0.00  0.00    +0.000 OA
ENDBRANCH   2   3
BRANCH   1  14
ATOM     14  N   UNL     1       2.860   5.582  20.302  0.00  0.00    +0.000 N 
ATOM     15  H   UNL     1       3.272   5.225  21.166  0.00  0.00    +0.000 HD
BRANCH  14  17
ATOM     16  O   UNL     1       3.588   3.396  19.273  0.00  0.00    +0.000 OA
ATOM     17  S   UNL     1       3.322   4.767  18.889  0.00  0.00    +0.000 S 
ATOM     18  O   UNL     1       2.383   5.081  17.831  0.00  0.00    +0.000 OA
BRANCH  17  19
ATOM     19  C   UNL     1       4.877   5.539  18.507  0.00  0.00    +0.000 A 
ATOM     20  C   UNL     1       6.023   5.181  19.225  0.00  0.00    +0.000 A 
ATOM     21  C   UNL     1       7.251   5.750  18.888  0.00  0.00    +0.000 A 
ATOM     22  C   UNL     1       7.335   6.662  17.834  0.00  0.00    +0.000 A 
ATOM     23  C   UNL     1       6.191   7.010  17.113  0.00  0.00    +0.000 A 
ATOM     24  C   UNL     1       4.957   6.447  17.446  0.00  0.00    +0.000 A 
ENDBRANCH  17  19
ENDBRANCH  14  17
ENDBRANCH   1  14
TORSDOF 4
ENDMDL
MODEL 6
REMARK VINA RESULT:      -7.8      4.792      7.344
REMARK  Name = 
REMARK  4 active torsions:
REMARK  status: ('A' for Active; 'I' for Inactive)
REMARK    1  A    between atoms: S_2  and  N_4
REMARK    2  A    between atoms: S_2  and  C_18
REMARK    3  A    between atoms: N_4  and  N_5
REMARK    4  A    between atoms: C_6  and  C_7
REMARK                            x       y       z     vdW  Elec       q    Type
REMARK                         _______ _______ _______ _____ _____    ______ ____
ROOT
ATOM      1  N   UNL     1       1.629   8.338  20.618  0.00  0.00    +0.000 NA
ATOM      2  C   UNL     1       0.527   8.453  21.284  0.00  0.00    +0.000 C 
ENDROOT
BRANCH   2   3
ATOM      3  C   UNL     1      -0.185   9.745  21.337  0.00  0.00    +0.000 A 
ATOM      4  C   UNL     1      -0.747  10.390  20.195  0.00  0.00    +0.000 A 
ATOM      5  C   UNL     1      -0.796   9.838  18.890  0.00  0.00    +0.000 A 
ATOM      6  C   UNL     1      -1.345  10.531  17.812  0.00  0.00    +0.000 A 
ATOM      7  C   UNL     1      -1.875  11.796  18.004  0.00  0.00    +0.000 A 
ATOM      8  C   UNL     1      -1.869  12.361  19.278  0.00  0.00    +0.000 A 
ATOM      9  C   UNL     1      -1.321  11.672  20.374  0.00  0.00    +0.000 A 
ATOM     10  C   UNL     1      -1.349  12.253  21.643  0.00  0.00    +0.000 A 
ATOM     11  C   UNL     1      -0.822  11.572  22.735  0.00  0.00    +0.000 A 
ATOM     12  N   UNL     1      -0.241  10.323  22.603  0.00  0.00    +0.000 N 
ATOM     13  O   UNL     1       0.233   9.752  23.640  0.00  0.00    +0.000 OA
ENDBRANCH   2   3
BRANCH   1  14
ATOM     14  N   UNL     1       2.219   7.047  20.598  0.00  0.00    +0.000 N 
ATOM     15  H   UNL     1       2.231   6.401  21.389  0.00  0.00    +0.000 HD
BRANCH  14  17
ATOM     16  O   UNL     1       2.254   7.218  18.080  0.00  0.00    +0.000 OA
ATOM     17  S   UNL     1       2.834   6.425  19.145  0.00  0.00    +0.000 S 
ATOM     18  O   UNL     1       4.269   6.267  19.266  0.00  0.00    +0.000 OA
BRANCH  17  19
ATOM     19  C   UNL     1       2.093   4.811  19.090  0.00  0.00    +0.000 A 
ATOM     20  C   UNL     1       2.364   3.961  18.012  0.00  0.00    +0.000 A 
ATOM     21  C   UNL     1       1.823   2.675  17.998  0.00  0.00    +0.000 A 
ATOM     22  C   UNL     1       1.026   2.239  19.058  0.00  0.00    +0.000 A 
ATOM     23  C   UNL     1       0.764   3.086  20.136  0.00  0.00    +0.000 A 
ATOM     24  C   UNL     1       1.299   4.376  20.156  0.00  0.00    +0.000 A 
ENDBRANCH  17  19
ENDBRANCH  14  17
ENDBRANCH   1  14
TORSDOF 4
ENDMDL
MODEL 7
REMARK VINA RESULT:      -7.7      4.788      7.301
REMARK  Name = 
REMARK  4 active torsions:
REMARK  status: ('A' for Active; 'I' for Inactive)
REMARK    1  A    between atoms: S_2  and  N_4
REMARK    2  A    between atoms: S_2  and  C_18
REMARK    3  A    between atoms: N_4  and  N_5
REMARK    4  A    between atoms: C_6  and  C_7
REMARK                            x       y       z     vdW  Elec       q    Type
REMARK                         _______ _______ _______ _____ _____    ______ ____
ROOT
ATOM      1  N   UNL     1       1.596   8.364  20.507  0.00  0.00    +0.000 NA
ATOM      2  C   UNL     1       0.616   8.500  21.338  0.00  0.00    +0.000 C 
ENDROOT
BRANCH   2   3
ATOM      3  C   UNL     1      -0.147   9.762  21.396  0.00  0.00    +0.000 A 
ATOM      4  C   UNL     1      -0.712  10.402  20.252  0.00  0.00    +0.000 A 
ATOM      5  C   UNL     1      -0.713   9.869  18.939  0.00  0.00    +0.000 A 
ATOM      6  C   UNL     1      -1.269  10.556  17.861  0.00  0.00    +0.000 A 
ATOM      7  C   UNL     1      -1.851  11.797  18.060  0.00  0.00    +0.000 A 
ATOM      8  C   UNL     1      -1.892  12.341  19.343  0.00  0.00    +0.000 A 
ATOM      9  C   UNL     1      -1.339  11.658  20.439  0.00  0.00    +0.000 A 
ATOM     10  C   UNL     1      -1.415  12.218  21.716  0.00  0.00    +0.000 A 
ATOM     11  C   UNL     1      -0.882  11.541  22.808  0.00  0.00    +0.000 A 
ATOM     12  N   UNL     1      -0.250  10.318  22.669  0.00  0.00    +0.000 N 
ATOM     13  O   UNL     1       0.225   9.751  23.707  0.00  0.00    +0.000 OA
ENDBRANCH   2   3
BRANCH   1  14
ATOM     14  N   UNL     1       2.245   7.101  20.502  0.00  0.00    +0.000 N 
ATOM     15  H   UNL     1       2.322   6.483  21.313  0.00  0.00    +0.000 HD
BRANCH  14  17
ATOM     16  O   UNL     1       2.171   7.193  17.981  0.00  0.00    +0.000 OA
ATOM     17  S   UNL     1       2.825   6.458  19.045  0.00  0.00    +0.000 S 
ATOM     18  O   UNL     1       4.270   6.360  19.110  0.00  0.00    +0.000 OA
BRANCH  17  19
ATOM     19  C   UNL     1       2.149   4.814  19.069  0.00  0.00    +0.000 A 
ATOM     20  C   UNL     1       1.307   4.427  20.117  0.00  0.00    +0.000 A 
ATOM     21  C   UNL     1       0.737   3.154  20.106  0.00  0.00    +0.000 A 
ATOM     22  C   UNL     1       0.998   2.279  19.050  0.00  0.00    +0.000 A 
ATOM     23  C   UNL     1       1.831   2.671  18.001  0.00  0.00    +0.000 A 
ATOM     24  C   UNL     1       2.409   3.943  18.006  0.00  0.00    +0.000 A 
ENDBRANCH  17  19
ENDBRANCH  14  17
ENDBRANCH   1  14
TORSDOF 4
ENDMDL
MODEL 8
REMARK VINA RESULT:      -7.7      3.631      5.890
REMARK  Name = 
REMARK  4 active torsions:
REMARK  status: ('A' for Active; 'I' for Inactive)
REMARK    1  A    between atoms: S_2  and  N_4
REMARK    2  A    between atoms: S_2  and  C_18
REMARK    3  A    between atoms: N_4  and  N_5
REMARK    4  A    between atoms: C_6  and  C_7
REMARK                            x       y       z     vdW  Elec       q    Type
REMARK                         _______ _______ _______ _____ _____    ______ ____
ROOT
ATOM      1  N   UNL     1       1.583   6.213  20.613  0.00  0.00    +0.000 NA
ATOM      2  C   UNL     1       2.190   7.337  20.417  0.00  0.00    +0.000 C 
ENDROOT
BRANCH   2   3
ATOM      3  C   UNL     1       1.426   8.547  20.056  0.00  0.00    +0.000 A 
ATOM      4  C   UNL     1       0.643   9.299  20.983  0.00  0.00    +0.000 A 
ATOM      5  C   UNL     1       0.577   9.055  22.378  0.00  0.00    +0.000 A 
ATOM      6  C   UNL     1      -0.224   9.818  23.226  0.00  0.00    +0.000 A 
ATOM      7  C   UNL     1      -0.980  10.858  22.710  0.00  0.00    +0.000 A 
ATOM      8  C   UNL     1      -0.920  11.145  21.347  0.00  0.00    +0.000 A 
ATOM      9  C   UNL     1      -0.114  10.385  20.482  0.00  0.00    +0.000 A 
ATOM     10  C   UNL     1      -0.057  10.709  19.125  0.00  0.00    +0.000 A 
ATOM     11  C   UNL     1       0.749   9.971  18.264  0.00  0.00    +0.000 A 
ATOM     12  N   UNL     1       1.496   8.895  18.709  0.00  0.00    +0.000 N 
ATOM     13  O   UNL     1       2.209   8.252  17.870  0.00  0.00    +0.000 OA
ENDBRANCH   2   3
BRANCH   1  14
ATOM     14  N   UNL     1       2.400   5.115  20.991  0.00  0.00    +0.000 N 
ATOM     15  H   UNL     1       2.923   5.053  21.866  0.00  0.00    +0.000 HD
BRANCH  14  17
ATOM     16  O   UNL     1       2.921   2.648  20.873  0.00  0.00    +0.000 OA
ATOM     17  S   UNL     1       2.432   3.720  20.029  0.00  0.00    +0.000 S 
ATOM     18  O   UNL     1       1.172   3.601  19.321  0.00  0.00    +0.000 OA
BRANCH  17  19
ATOM     19  C   UNL     1       3.703   4.111  18.850  0.00  0.00    +0.000 A 
ATOM     20  C   UNL     1       3.574   3.683  17.524  0.00  0.00    +0.000 A 
ATOM     21  C   UNL     1       4.548   4.036  16.590  0.00  0.00    +0.000 A 
ATOM     22  C   UNL     1       5.638   4.820  16.976  0.00  0.00    +0.000 A 
ATOM     23  C   UNL     1       5.760   5.252  18.298  0.00  0.00    +0.000 A 
ATOM     24  C   UNL     1       4.790   4.900  19.240  0.00  0.00    +0.000 A 
ENDBRANCH  17  19
ENDBRANCH  14  17
ENDBRANCH   1  14
TORSDOF 4
ENDMDL
MODEL 9
REMARK VINA RESULT:      -7.7      3.521      5.776
REMARK  Name = 
REMARK  4 active torsions:
REMARK  status: ('A' for Active; 'I' for Inactive)
REMARK    1  A    between atoms: S_2  and  N_4
REMARK    2  A    between atoms: S_2  and  C_18
REMARK    3  A    between atoms: N_4  and  N_5
REMARK    4  A    between atoms: C_6  and  C_7
REMARK                            x       y       z     vdW  Elec       q    Type
REMARK                         _______ _______ _______ _____ _____    ______ ____
ROOT
ATOM      1  N   UNL     1       1.712   6.229  20.398  0.00  0.00    +0.000 NA
ATOM      2  C   UNL     1       2.255   7.388  20.217  0.00  0.00    +0.000 C 
ENDROOT
BRANCH   2   3
ATOM      3  C   UNL     1       1.417   8.576  19.962  0.00  0.00    +0.000 A 
ATOM      4  C   UNL     1       0.675   9.256  20.974  0.00  0.00    +0.000 A 
ATOM      5  C   UNL     1       0.724   8.957  22.358  0.00  0.00    +0.000 A 
ATOM      6  C   UNL     1      -0.043   9.651  23.294  0.00  0.00    +0.000 A 
ATOM      7  C   UNL     1      -0.877  10.676  22.878  0.00  0.00    +0.000 A 
ATOM      8  C   UNL     1      -0.931  11.016  21.527  0.00  0.00    +0.000 A 
ATOM      9  C   UNL     1      -0.161  10.327  20.575  0.00  0.00    +0.000 A 
ATOM     10  C   UNL     1      -0.219  10.704  19.231  0.00  0.00    +0.000 A 
ATOM     11  C   UNL     1       0.551  10.036  18.285  0.00  0.00    +0.000 A 
ATOM     12  N   UNL     1       1.372   8.978  18.629  0.00  0.00    +0.000 N 
ATOM     13  O   UNL     1       2.046   8.400  17.715  0.00  0.00    +0.000 OA
ENDBRANCH   2   3
BRANCH   1  14
ATOM     14  N   UNL     1       2.599   5.155  20.671  0.00  0.00    +0.000 N 
ATOM     15  H   UNL     1       3.165   5.068  21.517  0.00  0.00    +0.000 HD
BRANCH  14  17
ATOM     16  O   UNL     1       3.049   2.684  20.425  0.00  0.00    +0.000 OA
ATOM     17  S   UNL     1       2.655   3.824  19.622  0.00  0.00    +0.000 S 
ATOM     18  O   UNL     1       1.446   3.796  18.824  0.00  0.00    +0.000 OA
BRANCH  17  19
ATOM     19  C   UNL     1       4.019   4.243  18.563  0.00  0.00    +0.000 A 
ATOM     20  C   UNL     1       5.099   4.969  19.078  0.00  0.00    +0.000 A 
ATOM     21  C   UNL     1       6.191   5.251  18.257  0.00  0.00    +0.000 A 
ATOM     22  C   UNL     1       6.208   4.803  16.935  0.00  0.00    +0.000 A 
ATOM     23  C   UNL     1       5.133   4.072  16.426  0.00  0.00    +0.000 A 
ATOM     24  C   UNL     1       4.034   3.788  17.240  0.00  0.00    +0.000 A 
ENDBRANCH  17  19
ENDBRANCH  14  17
ENDBRANCH   1  14
TORSDOF 4
ENDMDL
