MODEL 1
REMARK VINA RESULT:      -9.1      0.000      0.000
REMARK  Name = 
REMARK  4 active torsions:
REMARK  status: ('A' for Active; 'I' for Inactive)
REMARK    1  A    between atoms: C_6  and  N_7
REMARK    2  A    between atoms: C_13  and  N_14
REMARK    3  A    between atoms: N_14  and  C_15
REMARK    4  A    between atoms: C_15  and  C_16
REMARK                            x       y       z     vdW  Elec       q    Type
REMARK                         _______ _______ _______ _____ _____    ______ ____
ROOT
ATOM      1  N   UNL     1       2.491   6.628  20.481  0.00  0.00    +0.000 N 
ATOM      2  C   UNL     1       2.761   5.396  19.881  0.00  0.00    +0.000 A 
ATOM      3  N   UNL     1       2.588   4.302  20.639  0.00  0.00    +0.000 NA
ATOM      4  C   UNL     1       2.864   3.121  20.049  0.00  0.00    +0.000 A 
ATOM      5  C   UNL     1       3.302   2.989  18.753  0.00  0.00    +0.000 A 
ATOM      6 CL   UNL     1       3.663   1.437  18.109  0.00  0.00    +0.000 Cl
ATOM      7  C   UNL     1       3.481   4.172  18.046  0.00  0.00    +0.000 A 
ATOM      8  N   UNL     1       3.208   5.362  18.611  0.00  0.00    +0.000 NA
ATOM      9  H   UNL     1       2.087   6.457  21.396  0.00  0.00    +0.000 HD
ENDROOT
BRANCH   1  15
ATOM     10  O   UNL     1      -0.976  12.821  19.142  0.00  0.00    +0.000 OA
ATOM     11  C   UNL     1      -0.347  11.775  19.208  0.00  0.00    +0.000 C 
ATOM     12  C   UNL     1      -0.248  10.845  20.422  0.00  0.00    +0.000 C 
ATOM     13  C   UNL     1       0.638   9.747  19.903  0.00  0.00    +0.000 A 
ATOM     14  C   UNL     1       1.105   8.611  20.536  0.00  0.00    +0.000 A 
ATOM     15  C   UNL     1       1.987   7.771  19.837  0.00  0.00    +0.000 A 
ATOM     16  C   UNL     1       2.316   8.073  18.494  0.00  0.00    +0.000 A 
ATOM     17  C   UNL     1       1.824   9.214  17.854  0.00  0.00    +0.000 A 
ATOM     18  C   UNL     1       0.998  10.032  18.591  0.00  0.00    +0.000 A 
ATOM     19  N   UNL     1       0.411  11.219  18.188  0.00  0.00    +0.000 N 
ATOM     20  H   UNL     1       0.512  11.650  17.280  0.00  0.00    +0.000 HD
ENDBRANCH   1  15
BRANCH   7  21
ATOM     21  N   UNL     1       4.050   4.150  16.775  0.00  0.00    +0.000 N 
ATOM     22  H   UNL     1       3.786   4.932  16.180  0.00  0.00    +0.000 HD
BRANCH  21  23
ATOM     23  C   UNL     1       5.458   3.800  16.650  0.00  0.00    +0.000 C 
BRANCH  23  24
ATOM     24  C   UNL     1       6.314   4.885  17.291  0.00  0.00    +0.000 A 
ATOM     25  C   UNL     1       6.421   6.137  16.682  0.00  0.00    +0.000 A 
ATOM     26  C   UNL     1       7.207   7.117  17.283  0.00  0.00    +0.000 A 
ATOM     27  C   UNL     1       7.868   6.827  18.469  0.00  0.00    +0.000 A 
ATOM     28  C   UNL     1       7.722   5.560  19.006  0.00  0.00    +0.000 A 
ATOM     29  N   UNL     1       6.979   4.581  18.442  0.00  0.00    +0.000 NA
ENDBRANCH  23  24
ENDBRANCH  21  23
ENDBRANCH   7  21
TORSDOF 4
ENDMDL
MODEL 2
REMARK VINA RESULT:      -8.8      1.424      2.103
REMARK  Name = 
REMARK  4 active torsions:
REMARK  status: ('A' for Active; 'I' for Inactive)
REMARK    1  A    between atoms: C_6  and  N_7
REMARK    2  A    between atoms: C_13  and  N_14
REMARK    3  A    between atoms: N_14  and  C_15
REMARK    4  A    between atoms: C_15  and  C_16
REMARK                            x       y       z     vdW  Elec       q    Type
REMARK                         _______ _______ _______ _____ _____    ______ ____
ROOT
ATOM      1  N   UNL     1       2.014   6.131  20.825  0.00  0.00    +0.000 N 
ATOM      2  C   UNL     1       2.681   4.943  20.517  0.00  0.00    +0.000 A 
ATOM      3  N   UNL     1       2.158   3.810  21.012  0.00  0.00    +0.000 NA
ATOM      4  C   UNL     1       2.820   2.672  20.716  0.00  0.00    +0.000 A 
ATOM      5  C   UNL     1       3.966   2.621  19.961  0.00  0.00    +0.000 A 
ATOM      6 CL   UNL     1       4.754   1.120  19.675  0.00  0.00    +0.000 Cl
ATOM      7  C   UNL     1       4.456   3.840  19.509  0.00  0.00    +0.000 A 
ATOM      8  N   UNL     1       3.812   4.988  19.788  0.00  0.00    +0.000 NA
ATOM      9  H   UNL     1       1.148   5.899  21.300  0.00  0.00    +0.000 HD
ENDROOT
BRANCH   1  15
ATOM     10  O   UNL     1       0.724  12.824  18.437  0.00  0.00    +0.000 OA
ATOM     11  C   UNL     1       0.992  11.659  18.686  0.00  0.00    +0.000 C 
ATOM     12  C   UNL     1       0.724  10.922  20.002  0.00  0.00    +0.000 C 
ATOM     13  C   UNL     1       1.257   9.548  19.706  0.00  0.00    +0.000 A 
ATOM     14  C   UNL     1       1.309   8.425  20.510  0.00  0.00    +0.000 A 
ATOM     15  C   UNL     1       1.930   7.270  20.005  0.00  0.00    +0.000 A 
ATOM     16  C   UNL     1       2.418   7.269  18.677  0.00  0.00    +0.000 A 
ATOM     17  C   UNL     1       2.345   8.402  17.864  0.00  0.00    +0.000 A 
ATOM     18  C   UNL     1       1.768   9.525  18.414  0.00  0.00    +0.000 A 
ATOM     19  N   UNL     1       1.603  10.763  17.819  0.00  0.00    +0.000 N 
ATOM     20  H   UNL     1       1.889  11.013  16.883  0.00  0.00    +0.000 HD
ENDBRANCH   1  15
BRANCH   7  21
ATOM     21  N   UNL     1       5.683   3.904  18.853  0.00  0.00    +0.000 N 
ATOM     22  H   UNL     1       5.915   3.076  18.311  0.00  0.00    +0.000 HD
BRANCH  21  23
ATOM     23  C   UNL     1       6.043   5.140  18.171  0.00  0.00    +0.000 C 
BRANCH  23  24
ATOM     24  C   UNL     1       6.174   4.880  16.676  0.00  0.00    +0.000 A 
ATOM     25  C   UNL     1       5.092   4.360  15.963  0.00  0.00    +0.000 A 
ATOM     26  C   UNL     1       5.228   4.131  14.596  0.00  0.00    +0.000 A 
ATOM     27  C   UNL     1       6.436   4.420  13.975  0.00  0.00    +0.000 A 
ATOM     28  C   UNL     1       7.467   4.923  14.751  0.00  0.00    +0.000 A 
ATOM     29  N   UNL     1       7.372   5.145  16.082  0.00  0.00    +0.000 NA
ENDBRANCH  23  24
ENDBRANCH  21  23
ENDBRANCH   7  21
TORSDOF 4
ENDMDL
MODEL 3
REMARK VINA RESULT:      -8.7      0.942      1.200
REMARK  Name = 
REMARK  4 active torsions:
REMARK  status: ('A' for Active; 'I' for Inactive)
REMARK    1  A    between atoms: C_6  and  N_7
REMARK    2  A    between atoms: C_13  and  N_14
REMARK    3  A    between atoms: N_14  and  C_15
REMARK    4  A    between atoms: C_15  and  C_16
REMARK                            x       y       z     vdW  Elec       q    Type
REMARK                         _______ _______ _______ _____ _____    ______ ____
ROOT
ATOM      1  N   UNL     1       1.962   6.710  20.706  0.00  0.00    +0.000 N 
ATOM      2  C   UNL     1       2.329   5.474  20.169  0.00  0.00    +0.000 A 
ATOM      3  N   UNL     1       1.872   4.381  20.799  0.00  0.00    +0.000 NA
ATOM      4  C   UNL     1       2.245   3.195  20.276  0.00  0.00    +0.000 A 
ATOM      5  C   UNL     1       3.045   3.058  19.167  0.00  0.00    +0.000 A 
ATOM      6 CL   UNL     1       3.493   1.497  18.604  0.00  0.00    +0.000 Cl
ATOM      7  C   UNL     1       3.496   4.239  18.589  0.00  0.00    +0.000 A 
ATOM      8  N   UNL     1       3.135   5.434  19.091  0.00  0.00    +0.000 NA
ATOM      9  H   UNL     1       1.292   6.551  21.450  0.00  0.00    +0.000 HD
ENDROOT
BRANCH   1  15
ATOM     10  O   UNL     1      -0.099  13.386  18.875  0.00  0.00    +0.000 OA
ATOM     11  C   UNL     1       0.302  12.242  19.028  0.00  0.00    +0.000 C 
ATOM     12  C   UNL     1       0.129  11.374  20.279  0.00  0.00    +0.000 C 
ATOM     13  C   UNL     1       0.812  10.099  19.871  0.00  0.00    +0.000 A 
ATOM     14  C   UNL     1       0.998   8.927  20.580  0.00  0.00    +0.000 A 
ATOM     15  C   UNL     1       1.742   7.896  19.983  0.00  0.00    +0.000 A 
ATOM     16  C   UNL     1       2.218   8.059  18.660  0.00  0.00    +0.000 A 
ATOM     17  C   UNL     1       2.009   9.240  17.943  0.00  0.00    +0.000 A 
ATOM     18  C   UNL     1       1.313  10.241  18.583  0.00  0.00    +0.000 A 
ATOM     19  N   UNL     1       1.004  11.497  18.092  0.00  0.00    +0.000 N 
ATOM     20  H   UNL     1       1.252  11.853  17.180  0.00  0.00    +0.000 HD
ENDBRANCH   1  15
BRANCH   7  21
ATOM     21  N   UNL     1       4.419   4.202  17.548  0.00  0.00    +0.000 N 
ATOM     22  H   UNL     1       4.317   3.408  16.920  0.00  0.00    +0.000 HD
BRANCH  21  23
ATOM     23  C   UNL     1       4.719   5.439  16.840  0.00  0.00    +0.000 C 
BRANCH  23  24
ATOM     24  C   UNL     1       5.974   6.074  17.426  0.00  0.00    +0.000 A 
ATOM     25  C   UNL     1       6.676   5.419  18.440  0.00  0.00    +0.000 A 
ATOM     26  C   UNL     1       7.822   6.012  18.962  0.00  0.00    +0.000 A 
ATOM     27  C   UNL     1       8.238   7.242  18.468  0.00  0.00    +0.000 A 
ATOM     28  C   UNL     1       7.482   7.835  17.471  0.00  0.00    +0.000 A 
ATOM     29  N   UNL     1       6.358   7.292  16.951  0.00  0.00    +0.000 NA
ENDBRANCH  23  24
ENDBRANCH  21  23
ENDBRANCH   7  21
TORSDOF 4
ENDMDL
MODEL 4
REMARK VINA RESULT:      -8.7      2.572      6.227
REMARK  Name = 
REMARK  4 active torsions:
REMARK  status: ('A' for Active; 'I' for Inactive)
REMARK    1  A    between atoms: C_6  and  N_7
REMARK    2  A    between atoms: C_13  and  N_14
REMARK    3  A    between atoms: N_14  and  C_15
REMARK    4  A    between atoms: C_15  and  C_16
REMARK                            x       y       z     vdW  Elec       q    Type
REMARK                         _______ _______ _______ _____ _____    ______ ____
ROOT
ATOM      1  N   UNL     1       5.435   4.465  16.915  0.00  0.00    +0.000 N 
ATOM      2  C   UNL     1       4.245   4.010  17.488  0.00  0.00    +0.000 A 
ATOM      3  N   UNL     1       3.861   2.762  17.175  0.00  0.00    +0.000 NA
ATOM      4  C   UNL     1       2.704   2.342  17.727  0.00  0.00    +0.000 A 
ATOM      5  C   UNL     1       1.925   3.106  18.562  0.00  0.00    +0.000 A 
ATOM      6 CL   UNL     1       0.446   2.486  19.181  0.00  0.00    +0.000 Cl
ATOM      7  C   UNL     1       2.381   4.394  18.814  0.00  0.00    +0.000 A 
ATOM      8  N   UNL     1       3.534   4.835  18.279  0.00  0.00    +0.000 NA
ATOM      9  H   UNL     1       5.873   3.691  16.428  0.00  0.00    +0.000 HD
ENDROOT
BRANCH   1  15
ATOM     10  O   UNL     1       9.114  10.459  18.560  0.00  0.00    +0.000 OA
ATOM     11  C   UNL     1       8.594   9.367  18.387  0.00  0.00    +0.000 C 
ATOM     12  C   UNL     1       7.494   9.030  17.375  0.00  0.00    +0.000 C 
ATOM     13  C   UNL     1       7.276   7.564  17.625  0.00  0.00    +0.000 A 
ATOM     14  C   UNL     1       6.397   6.683  17.024  0.00  0.00    +0.000 A 
ATOM     15  C   UNL     1       6.347   5.362  17.499  0.00  0.00    +0.000 A 
ATOM     16  C   UNL     1       7.236   4.958  18.522  0.00  0.00    +0.000 A 
ATOM     17  C   UNL     1       8.136   5.850  19.111  0.00  0.00    +0.000 A 
ATOM     18  C   UNL     1       8.122   7.145  18.645  0.00  0.00    +0.000 A 
ATOM     19  N   UNL     1       8.895   8.205  19.083  0.00  0.00    +0.000 N 
ATOM     20  H   UNL     1       9.589   8.169  19.816  0.00  0.00    +0.000 HD
ENDBRANCH   1  15
BRANCH   7  21
ATOM     21  N   UNL     1       1.594   5.288  19.537  0.00  0.00    +0.000 N 
ATOM     22  H   UNL     1       0.836   4.855  20.060  0.00  0.00    +0.000 HD
BRANCH  21  23
ATOM     23  C   UNL     1       2.255   6.350  20.282  0.00  0.00    +0.000 C 
BRANCH  23  24
ATOM     24  C   UNL     1       1.875   7.703  19.692  0.00  0.00    +0.000 A 
ATOM     25  C   UNL     1       2.308   8.049  18.411  0.00  0.00    +0.000 A 
ATOM     26  C   UNL     1       1.950   9.288  17.887  0.00  0.00    +0.000 A 
ATOM     27  C   UNL     1       1.177  10.152  18.651  0.00  0.00    +0.000 A 
ATOM     28  C   UNL     1       0.796   9.743  19.917  0.00  0.00    +0.000 A 
ATOM     29  N   UNL     1       1.137   8.553  20.461  0.00  0.00    +0.000 NA
ENDBRANCH  23  24
ENDBRANCH  21  23
ENDBRANCH   7  21
TORSDOF 4
ENDMDL
MODEL 5
REMARK VINA RESULT:      -8.6      2.220      4.349
REMARK  Name = 
REMARK  4 active torsions:
REMARK  status: ('A' for Active; 'I' for Inactive)
REMARK    1  A    between atoms: C_6  and  N_7
REMARK    2  A    between atoms: C_13  and  N_14
REMARK    3  A    between atoms: N_14  and  C_15
REMARK    4  A    between atoms: C_15  and  C_16
REMARK                            x       y       z     vdW  Elec       q    Type
REMARK                         _______ _______ _______ _____ _____    ______ ____
ROOT
ATOM      1  N   UNL     1       3.130   7.747  16.992  0.00  0.00    +0.000 N 
ATOM      2  C   UNL     1       4.250   6.936  17.188  0.00  0.00    +0.000 A 
ATOM      3  N   UNL     1       5.177   6.940  16.217  0.00  0.00    +0.000 NA
ATOM      4  C   UNL     1       6.248   6.144  16.416  0.00  0.00    +0.000 A 
ATOM      5  C   UNL     1       6.426   5.353  17.526  0.00  0.00    +0.000 A 
ATOM      6 CL   UNL     1       7.811   4.344  17.663  0.00  0.00    +0.000 Cl
ATOM      7  C   UNL     1       5.408   5.389  18.471  0.00  0.00    +0.000 A 
ATOM      8  N   UNL     1       4.333   6.178  18.298  0.00  0.00    +0.000 NA
ATOM      9  H   UNL     1       3.279   8.304  16.158  0.00  0.00    +0.000 HD
ENDROOT
BRANCH   1  15
ATOM     10  O   UNL     1      -0.171   9.287  23.230  0.00  0.00    +0.000 OA
ATOM     11  C   UNL     1       0.326   9.171  22.120  0.00  0.00    +0.000 C 
ATOM     12  C   UNL     1       1.081   7.951  21.580  0.00  0.00    +0.000 C 
ATOM     13  C   UNL     1       1.438   8.393  20.189  0.00  0.00    +0.000 A 
ATOM     14  C   UNL     1       2.136   7.728  19.199  0.00  0.00    +0.000 A 
ATOM     15  C   UNL     1       2.396   8.404  17.996  0.00  0.00    +0.000 A 
ATOM     16  C   UNL     1       1.882   9.709  17.807  0.00  0.00    +0.000 A 
ATOM     17  C   UNL     1       1.161  10.368  18.806  0.00  0.00    +0.000 A 
ATOM     18  C   UNL     1       0.967   9.685  19.986  0.00  0.00    +0.000 A 
ATOM     19  N   UNL     1       0.311  10.132  21.119  0.00  0.00    +0.000 N 
ATOM     20  H   UNL     1      -0.124  11.036  21.233  0.00  0.00    +0.000 HD
ENDBRANCH   1  15
BRANCH   7  21
ATOM     21  N   UNL     1       5.434   4.523  19.562  0.00  0.00    +0.000 N 
ATOM     22  H   UNL     1       5.193   4.956  20.450  0.00  0.00    +0.000 HD
BRANCH  21  23
ATOM     23  C   UNL     1       4.853   3.196  19.409  0.00  0.00    +0.000 C 
BRANCH  23  24
ATOM     24  C   UNL     1       3.342   3.275  19.585  0.00  0.00    +0.000 A 
ATOM     25  C   UNL     1       2.802   4.014  20.639  0.00  0.00    +0.000 A 
ATOM     26  C   UNL     1       1.418   4.077  20.784  0.00  0.00    +0.000 A 
ATOM     27  C   UNL     1       0.609   3.400  19.882  0.00  0.00    +0.000 A 
ATOM     28  C   UNL     1       1.218   2.678  18.870  0.00  0.00    +0.000 A 
ATOM     29  N   UNL     1       2.558   2.586  18.709  0.00  0.00    +0.000 NA
ENDBRANCH  23  24
ENDBRANCH  21  23
ENDBRANCH   7  21
TORSDOF 4
ENDMDL
MODEL 6
REMARK VINA RESULT:      -8.6      1.996      4.211
REMARK  Name = 
REMARK  4 active torsions:
REMARK  status: ('A' for Active; 'I' for Inactive)
REMARK    1  A    between atoms: C_6  and  N_7
REMARK    2  A    between atoms: C_13  and  N_14
REMARK    3  A    between atoms: N_14  and  C_15
REMARK    4  A    between atoms: C_15  and  C_16
REMARK                            x       y       z     vdW  Elec       q    Type
REMARK                         _______ _______ _______ _____ _____    ______ ____
ROOT
ATOM      1  N   UNL     1       2.950   7.617  17.469  0.00  0.00    +0.000 N 
ATOM      2  C   UNL     1       4.104   6.834  17.540  0.00  0.00    +0.000 A 
ATOM      3  N   UNL     1       5.014   7.009  16.569  0.00  0.00    +0.000 NA
ATOM      4  C   UNL     1       6.118   6.238  16.645  0.00  0.00    +0.000 A 
ATOM      5  C   UNL     1       6.345   5.310  17.633  0.00  0.00    +0.000 A 
ATOM      6 CL   UNL     1       7.771   4.349  17.614  0.00  0.00    +0.000 Cl
ATOM      7  C   UNL     1       5.342   5.173  18.584  0.00  0.00    +0.000 A 
ATOM      8  N   UNL     1       4.233   5.934  18.533  0.00  0.00    +0.000 NA
ATOM      9  H   UNL     1       3.063   8.290  16.719  0.00  0.00    +0.000 HD
ENDROOT
BRANCH   1  15
ATOM     10  O   UNL     1      -1.340  11.662  21.642  0.00  0.00    +0.000 OA
ATOM     11  C   UNL     1      -0.592  10.883  21.070  0.00  0.00    +0.000 C 
ATOM     12  C   UNL     1      -0.050  11.019  19.643  0.00  0.00    +0.000 C 
ATOM     13  C   UNL     1       0.800   9.786  19.513  0.00  0.00    +0.000 A 
ATOM     14  C   UNL     1       1.551   9.335  18.443  0.00  0.00    +0.000 A 
ATOM     15  C   UNL     1       2.206   8.099  18.562  0.00  0.00    +0.000 A 
ATOM     16  C   UNL     1       2.136   7.389  19.784  0.00  0.00    +0.000 A 
ATOM     17  C   UNL     1       1.391   7.861  20.867  0.00  0.00    +0.000 A 
ATOM     18  C   UNL     1       0.729   9.055  20.693  0.00  0.00    +0.000 A 
ATOM     19  N   UNL     1      -0.084   9.707  21.604  0.00  0.00    +0.000 N 
ATOM     20  H   UNL     1      -0.302   9.388  22.537  0.00  0.00    +0.000 HD
ENDBRANCH   1  15
BRANCH   7  21
ATOM     21  N   UNL     1       5.418   4.167  19.544  0.00  0.00    +0.000 N 
ATOM     22  H   UNL     1       5.259   4.480  20.498  0.00  0.00    +0.000 HD
BRANCH  21  23
ATOM     23  C   UNL     1       4.783   2.887  19.262  0.00  0.00    +0.000 C 
BRANCH  23  24
ATOM     24  C   UNL     1       3.285   2.989  19.524  0.00  0.00    +0.000 A 
ATOM     25  C   UNL     1       2.817   3.149  20.830  0.00  0.00    +0.000 A 
ATOM     26  C   UNL     1       1.446   3.243  21.051  0.00  0.00    +0.000 A 
ATOM     27  C   UNL     1       0.576   3.171  19.971  0.00  0.00    +0.000 A 
ATOM     28  C   UNL     1       1.115   3.000  18.707  0.00  0.00    +0.000 A 
ATOM     29  N   UNL     1       2.440   2.892  18.459  0.00  0.00    +0.000 NA
ENDBRANCH  23  24
ENDBRANCH  21  23
ENDBRANCH   7  21
TORSDOF 4
ENDMDL
MODEL 7
REMARK VINA RESULT:      -8.5      2.138      4.277
REMARK  Name = 
REMARK  4 active torsions:
REMARK  status: ('A' for Active; 'I' for Inactive)
REMARK    1  A    between atoms: C_6  and  N_7
REMARK    2  A    between atoms: C_13  and  N_14
REMARK    3  A    between atoms: N_14  and  C_15
REMARK    4  A    between atoms: C_15  and  C_16
REMARK                            x       y       z     vdW  Elec       q    Type
REMARK                         _______ _______ _______ _____ _____    ______ ____
ROOT
ATOM      1  N   UNL     1       2.912   7.783  17.534  0.00  0.00    +0.000 N 
ATOM      2  C   UNL     1       3.989   6.917  17.329  0.00  0.00    +0.000 A 
ATOM      3  N   UNL     1       4.896   7.286  16.411  0.00  0.00    +0.000 NA
ATOM      4  C   UNL     1       5.923   6.434  16.216  0.00  0.00    +0.000 A 
ATOM      5  C   UNL     1       6.078   5.245  16.887  0.00  0.00    +0.000 A 
ATOM      6 CL   UNL     1       7.406   4.212  16.535  0.00  0.00    +0.000 Cl
ATOM      7  C   UNL     1       5.081   4.926  17.802  0.00  0.00    +0.000 A 
ATOM      8  N   UNL     1       4.048   5.761  18.017  0.00  0.00    +0.000 NA
ATOM      9  H   UNL     1       3.076   8.631  17.002  0.00  0.00    +0.000 HD
ENDROOT
BRANCH   1  15
ATOM     10  O   UNL     1      -1.132  10.699  22.761  0.00  0.00    +0.000 OA
ATOM     11  C   UNL     1      -0.417  10.083  21.984  0.00  0.00    +0.000 C 
ATOM     12  C   UNL     1       0.037  10.548  20.596  0.00  0.00    +0.000 C 
ATOM     13  C   UNL     1       0.883   9.393  20.140  0.00  0.00    +0.000 A 
ATOM     14  C   UNL     1       1.568   9.210  18.953  0.00  0.00    +0.000 A 
ATOM     15  C   UNL     1       2.235   7.991  18.749  0.00  0.00    +0.000 A 
ATOM     16  C   UNL     1       2.243   7.022  19.779  0.00  0.00    +0.000 A 
ATOM     17  C   UNL     1       1.563   7.222  20.984  0.00  0.00    +0.000 A 
ATOM     18  C   UNL     1       0.886   8.413  21.125  0.00  0.00    +0.000 A 
ATOM     19  N   UNL     1       0.129   8.826  22.206  0.00  0.00    +0.000 N 
ATOM     20  H   UNL     1      -0.031   8.300  23.053  0.00  0.00    +0.000 HD
ENDBRANCH   1  15
BRANCH   7  21
ATOM     21  N   UNL     1       5.078   3.683  18.430  0.00  0.00    +0.000 N 
ATOM     22  H   UNL     1       5.351   3.705  19.410  0.00  0.00    +0.000 HD
BRANCH  21  23
ATOM     23  C   UNL     1       3.964   2.780  18.178  0.00  0.00    +0.000 C 
BRANCH  23  24
ATOM     24  C   UNL     1       2.979   2.845  19.339  0.00  0.00    +0.000 A 
ATOM     25  C   UNL     1       1.649   3.200  19.104  0.00  0.00    +0.000 A 
ATOM     26  C   UNL     1       0.762   3.253  20.176  0.00  0.00    +0.000 A 
ATOM     27  C   UNL     1       1.221   2.956  21.453  0.00  0.00    +0.000 A 
ATOM     28  C   UNL     1       2.555   2.624  21.608  0.00  0.00    +0.000 A 
ATOM     29  N   UNL     1       3.446   2.577  20.591  0.00  0.00    +0.000 NA
ENDBRANCH  23  24
ENDBRANCH  21  23
ENDBRANCH   7  21
TORSDOF 4
ENDMDL
MODEL 8
REMARK VINA RESULT:      -8.5      1.452      2.103
REMARK  Name = 
REMARK  4 active torsions:
REMARK  status: ('A' for Active; 'I' for Inactive)
REMARK    1  A    between atoms: C_6  and  N_7
REMARK    2  A    between atoms: C_13  and  N_14
REMARK    3  A    between atoms: N_14  and  C_15
REMARK    4  A    between atoms: C_15  and  C_16
REMARK                            x       y       z     vdW  Elec       q    Type
REMARK                         _______ _______ _______ _____ _____    ______ ____
ROOT
ATOM      1  N   UNL     1       2.329   6.446  20.663  0.00  0.00    +0.000 N 
ATOM      2  C   UNL     1       2.649   5.199  20.122  0.00  0.00    +0.000 A 
ATOM      3  N   UNL     1       2.341   4.122  20.861  0.00  0.00    +0.000 NA
ATOM      4  C   UNL     1       2.666   2.925  20.330  0.00  0.00    +0.000 A 
ATOM      5  C   UNL     1       3.280   2.763  19.111  0.00  0.00    +0.000 A 
ATOM      6 CL   UNL     1       3.687   1.192  18.543  0.00  0.00    +0.000 Cl
ATOM      7  C   UNL     1       3.588   3.930  18.422  0.00  0.00    +0.000 A 
ATOM      8  N   UNL     1       3.270   5.135  18.929  0.00  0.00    +0.000 NA
ATOM      9  H   UNL     1       1.795   6.300  21.513  0.00  0.00    +0.000 HD
ENDROOT
BRANCH   1  15
ATOM     10  O   UNL     1      -0.489  12.853  18.876  0.00  0.00    +0.000 OA
ATOM     11  C   UNL     1       0.033  11.757  19.019  0.00  0.00    +0.000 C 
ATOM     12  C   UNL     1       0.018  10.897  20.288  0.00  0.00    +0.000 C 
ATOM     13  C   UNL     1       0.802   9.689  19.857  0.00  0.00    +0.000 A 
ATOM     14  C   UNL     1       1.143   8.554  20.567  0.00  0.00    +0.000 A 
ATOM     15  C   UNL     1       1.952   7.592  19.940  0.00  0.00    +0.000 A 
ATOM     16  C   UNL     1       2.334   7.779  18.591  0.00  0.00    +0.000 A 
ATOM     17  C   UNL     1       1.969   8.921  17.873  0.00  0.00    +0.000 A 
ATOM     18  C   UNL     1       1.212   9.858  18.540  0.00  0.00    +0.000 A 
ATOM     19  N   UNL     1       0.753  11.069  18.053  0.00  0.00    +0.000 N 
ATOM     20  H   UNL     1       0.912  11.432  17.124  0.00  0.00    +0.000 HD
ENDBRANCH   1  15
BRANCH   7  21
ATOM     21  N   UNL     1       4.330   3.874  17.245  0.00  0.00    +0.000 N 
ATOM     22  H   UNL     1       3.779   3.712  16.405  0.00  0.00    +0.000 HD
BRANCH  21  23
ATOM     23  C   UNL     1       5.385   4.857  17.042  0.00  0.00    +0.000 C 
BRANCH  23  24
ATOM     24  C   UNL     1       5.953   4.717  15.635  0.00  0.00    +0.000 A 
ATOM     25  C   UNL     1       5.331   3.870  14.715  0.00  0.00    +0.000 A 
ATOM     26  C   UNL     1       5.862   3.755  13.433  0.00  0.00    +0.000 A 
ATOM     27  C   UNL     1       6.999   4.481  13.100  0.00  0.00    +0.000 A 
ATOM     28  C   UNL     1       7.565   5.290  14.069  0.00  0.00    +0.000 A 
ATOM     29  N   UNL     1       7.083   5.414  15.327  0.00  0.00    +0.000 NA
ENDBRANCH  23  24
ENDBRANCH  21  23
ENDBRANCH   7  21
TORSDOF 4
ENDMDL
MODEL 9
REMARK VINA RESULT:      -8.4      3.605      7.890
REMARK  Name = 
REMARK  4 active torsions:
REMARK  status: ('A' for Active; 'I' for Inactive)
REMARK    1  A    between atoms: C_6  and  N_7
REMARK    2  A    between atoms: C_13  and  N_14
REMARK    3  A    between atoms: N_14  and  C_15
REMARK    4  A    between atoms: C_15  and  C_16
REMARK                            x       y       z     vdW  Elec       q    Type
REMARK                         _______ _______ _______ _____ _____    ______ ____
ROOT
ATOM      1  N   UNL     1       3.516   4.569  18.225  0.00  0.00    +0.000 N 
ATOM      2  C   UNL     1       2.874   5.529  19.010  0.00  0.00    +0.000 A 
ATOM      3  N   UNL     1       2.357   5.109  20.176  0.00  0.00    +0.000 NA
ATOM      4  C   UNL     1       1.730   6.045  20.918  0.00  0.00    +0.000 A 
ATOM      5  C   UNL     1       1.597   7.362  20.548  0.00  0.00    +0.000 A 
ATOM      6 CL   UNL     1       0.744   8.467  21.551  0.00  0.00    +0.000 Cl
ATOM      7  C   UNL     1       2.138   7.708  19.315  0.00  0.00    +0.000 A 
ATOM      8  N   UNL     1       2.771   6.793  18.559  0.00  0.00    +0.000 NA
ATOM      9  H   UNL     1       3.574   3.706  18.755  0.00  0.00    +0.000 HD
ENDROOT
BRANCH   1  15
ATOM     10  O   UNL     1       7.813   4.764  12.423  0.00  0.00    +0.000 OA
ATOM     11  C   UNL     1       7.215   4.796  13.487  0.00  0.00    +0.000 C 
ATOM     12  C   UNL     1       5.820   4.225  13.768  0.00  0.00    +0.000 C 
ATOM     13  C   UNL     1       5.633   4.558  15.222  0.00  0.00    +0.000 A 
ATOM     14  C   UNL     1       4.560   4.308  16.057  0.00  0.00    +0.000 A 
ATOM     15  C   UNL     1       4.613   4.792  17.374  0.00  0.00    +0.000 A 
ATOM     16  C   UNL     1       5.779   5.457  17.824  0.00  0.00    +0.000 A 
ATOM     17  C   UNL     1       6.867   5.689  16.978  0.00  0.00    +0.000 A 
ATOM     18  C   UNL     1       6.755   5.235  15.683  0.00  0.00    +0.000 A 
ATOM     19  N   UNL     1       7.681   5.365  14.664  0.00  0.00    +0.000 N 
ATOM     20  H   UNL     1       8.581   5.818  14.736  0.00  0.00    +0.000 HD
ENDBRANCH   1  15
BRANCH   7  21
ATOM     21  N   UNL     1       1.935   8.983  18.794  0.00  0.00    +0.000 N 
ATOM     22  H   UNL     1       2.790   9.497  18.591  0.00  0.00    +0.000 HD
BRANCH  21  23
ATOM     23  C   UNL     1       0.917   9.160  17.767  0.00  0.00    +0.000 C 
BRANCH  23  24
ATOM     24  C   UNL     1      -0.139  10.142  18.257  0.00  0.00    +0.000 A 
ATOM     25  C   UNL     1      -1.422  10.115  17.708  0.00  0.00    +0.000 A 
ATOM     26  C   UNL     1      -2.376  11.018  18.169  0.00  0.00    +0.000 A 
ATOM     27  C   UNL     1      -2.029  11.928  19.159  0.00  0.00    +0.000 A 
ATOM     28  C   UNL     1      -0.733  11.902  19.646  0.00  0.00    +0.000 A 
ATOM     29  N   UNL     1       0.220  11.047  19.211  0.00  0.00    +0.000 NA
ENDBRANCH  23  24
ENDBRANCH  21  23
ENDBRANCH   7  21
TORSDOF 4
ENDMDL
