MODEL 1
REMARK VINA RESULT:      -8.9      0.000      0.000
REMARK  Name = 
REMARK  8 active torsions:
REMARK  status: ('A' for Active; 'I' for Inactive)
REMARK    1  A    between atoms: C_1  and  N_2
REMARK    2  A    between atoms: C_3  and  C_5
REMARK    3  A    between atoms: C_7  and  O_8
REMARK    4  A    between atoms: O_8  and  C_9
REMARK    5  A    between atoms: C_13  and  N_14
REMARK    6  A    between atoms: N_14  and  C_15
REMARK    7  A    between atoms: C_15  and  C_16
REMARK    8  A    between atoms: C_15  and  C_17
REMARK                            x       y       z     vdW  Elec       q    Type
REMARK                         _______ _______ _______ _____ _____    ______ ____
ROOT
ATOM      1  C   UNL     1       4.175   3.995  19.454  0.00  0.00    +0.000 A 
ATOM      2  C   UNL     1       3.343   2.906  19.208  0.00  0.00    +0.000 A 
ATOM      3  C   UNL     1       1.970   3.025  19.420  0.00  0.00    +0.000 A 
ATOM      4  C   UNL     1       1.434   4.235  19.876  0.00  0.00    +0.000 A 
ATOM      5  C   UNL     1       2.251   5.345  20.123  0.00  0.00    +0.000 A 
ATOM      6  C   UNL     1       3.619   5.208  19.875  0.00  0.00    +0.000 A 
ENDROOT
BRANCH   5   7
ATOM      7  N   UNL     1       1.676   6.499  20.641  0.00  0.00    +0.000 N 
ATOM      8  H   UNL     1       0.738   6.367  21.008  0.00  0.00    +0.000 HD
BRANCH   7   9
ATOM      9  C   UNL     1       2.002   7.834  20.138  0.00  0.00    +0.000 C 
ATOM     10  C   UNL     1       1.853   7.919  18.620  0.00  0.00    +0.000 C 
BRANCH   9  11
ATOM     11  C   UNL     1       1.043   8.846  20.777  0.00  0.00    +0.000 C 
ATOM     12  C   UNL     1      -0.183   8.285  21.543  0.00  0.00    +0.000 C 
ATOM     13  C   UNL     1       0.008   9.430  22.563  0.00  0.00    +0.000 C 
ATOM     14  F   UNL     1      -0.214   9.114  23.857  0.00  0.00    +0.000 F 
ATOM     15  F   UNL     1      -0.698  10.557  22.308  0.00  0.00    +0.000 F 
ATOM     16  C   UNL     1       1.489   9.473  22.123  0.00  0.00    +0.000 C 
ENDBRANCH   9  11
ENDBRANCH   7   9
ENDBRANCH   5   7
BRANCH   1  17
ATOM     17  O   UNL     1       5.520   3.808  19.209  0.00  0.00    +0.000 OA
BRANCH  17  20
ATOM     18  C   UNL     1       6.871   5.215  16.095  0.00  0.00    +0.000 A 
ATOM     19  C   UNL     1       6.153   4.356  16.913  0.00  0.00    +0.000 A 
ATOM     20  C   UNL     1       6.162   4.602  18.282  0.00  0.00    +0.000 A 
ATOM     21  C   UNL     1       6.805   5.734  18.772  0.00  0.00    +0.000 A 
ATOM     22  C   UNL     1       7.466   6.555  17.873  0.00  0.00    +0.000 A 
ATOM     23  N   UNL     1       7.536   6.319  16.545  0.00  0.00    +0.000 NA
BRANCH  18  26
ATOM     24  C   UNL     1       6.082   3.539  12.802  0.00  0.00    +0.000 C 
ATOM     25  N   UNL     1       6.057   3.990  14.165  0.00  0.00    +0.000 N 
ATOM     26  C   UNL     1       6.970   4.910  14.633  0.00  0.00    +0.000 C 
ATOM     27  O   UNL     1       7.810   5.456  13.924  0.00  0.00    +0.000 OA
ATOM     28  H   UNL     1       5.409   3.598  14.842  0.00  0.00    +0.000 HD
ENDBRANCH  18  26
ENDBRANCH  17  20
ENDBRANCH   1  17
TORSDOF 6
ENDMDL
MODEL 2
REMARK VINA RESULT:      -8.3      1.741      2.303
REMARK  Name = 
REMARK  8 active torsions:
REMARK  status: ('A' for Active; 'I' for Inactive)
REMARK    1  A    between atoms: C_1  and  N_2
REMARK    2  A    between atoms: C_3  and  C_5
REMARK    3  A    between atoms: C_7  and  O_8
REMARK    4  A    between atoms: O_8  and  C_9
REMARK    5  A    between atoms: C_13  and  N_14
REMARK    6  A    between atoms: N_14  and  C_15
REMARK    7  A    between atoms: C_15  and  C_16
REMARK    8  A    between atoms: C_15  and  C_17
REMARK                            x       y       z     vdW  Elec       q    Type
REMARK                         _______ _______ _______ _____ _____    ______ ____
ROOT
ATOM      1  C   UNL     1       3.703   4.482  19.394  0.00  0.00    +0.000 A 
ATOM      2  C   UNL     1       2.734   3.671  19.978  0.00  0.00    +0.000 A 
ATOM      3  C   UNL     1       1.608   4.251  20.560  0.00  0.00    +0.000 A 
ATOM      4  C   UNL     1       1.454   5.642  20.553  0.00  0.00    +0.000 A 
ATOM      5  C   UNL     1       2.412   6.477  19.965  0.00  0.00    +0.000 A 
ATOM      6  C   UNL     1       3.517   5.869  19.364  0.00  0.00    +0.000 A 
ENDROOT
BRANCH   5   7
ATOM      7  N   UNL     1       2.244   7.854  20.047  0.00  0.00    +0.000 N 
ATOM      8  H   UNL     1       3.114   8.376  20.095  0.00  0.00    +0.000 HD
BRANCH   7   9
ATOM      9  C   UNL     1       1.075   8.468  20.676  0.00  0.00    +0.000 C 
ATOM     10  C   UNL     1       1.359   8.878  22.120  0.00  0.00    +0.000 C 
BRANCH   9  11
ATOM     11  C   UNL     1       0.691   9.721  19.881  0.00  0.00    +0.000 C 
ATOM     12  C   UNL     1       0.736   9.629  18.334  0.00  0.00    +0.000 C 
ATOM     13  C   UNL     1      -0.523  10.524  18.306  0.00  0.00    +0.000 C 
ATOM     14  F   UNL     1      -1.444  10.221  17.366  0.00  0.00    +0.000 F 
ATOM     15  F   UNL     1      -0.287  11.854  18.208  0.00  0.00    +0.000 F 
ATOM     16  C   UNL     1      -0.824  10.017  19.734  0.00  0.00    +0.000 C 
ENDBRANCH   9  11
ENDBRANCH   7   9
ENDBRANCH   5   7
BRANCH   1  17
ATOM     17  O   UNL     1       4.783   3.838  18.826  0.00  0.00    +0.000 OA
BRANCH  17  20
ATOM     18  C   UNL     1       6.705   5.108  15.963  0.00  0.00    +0.000 A 
ATOM     19  C   UNL     1       5.763   4.357  16.648  0.00  0.00    +0.000 A 
ATOM     20  C   UNL     1       5.653   4.543  18.022  0.00  0.00    +0.000 A 
ATOM     21  C   UNL     1       6.417   5.526  18.644  0.00  0.00    +0.000 A 
ATOM     22  C   UNL     1       7.307   6.253  17.872  0.00  0.00    +0.000 A 
ATOM     23  N   UNL     1       7.490   6.061  16.547  0.00  0.00    +0.000 NA
BRANCH  18  26
ATOM     24  C   UNL     1       6.181   3.539  12.567  0.00  0.00    +0.000 C 
ATOM     25  N   UNL     1       6.048   3.948  13.937  0.00  0.00    +0.000 N 
ATOM     26  C   UNL     1       6.922   4.848  14.506  0.00  0.00    +0.000 C 
ATOM     27  O   UNL     1       7.817   5.412  13.884  0.00  0.00    +0.000 OA
ATOM     28  H   UNL     1       5.346   3.538  14.547  0.00  0.00    +0.000 HD
ENDBRANCH  18  26
ENDBRANCH  17  20
ENDBRANCH   1  17
TORSDOF 6
ENDMDL
MODEL 3
REMARK VINA RESULT:      -8.2      1.681      2.876
REMARK  Name = 
REMARK  8 active torsions:
REMARK  status: ('A' for Active; 'I' for Inactive)
REMARK    1  A    between atoms: C_1  and  N_2
REMARK    2  A    between atoms: C_3  and  C_5
REMARK    3  A    between atoms: C_7  and  O_8
REMARK    4  A    between atoms: O_8  and  C_9
REMARK    5  A    between atoms: C_13  and  N_14
REMARK    6  A    between atoms: N_14  and  C_15
REMARK    7  A    between atoms: C_15  and  C_16
REMARK    8  A    between atoms: C_15  and  C_17
REMARK                            x       y       z     vdW  Elec       q    Type
REMARK                         _______ _______ _______ _____ _____    ______ ____
ROOT
ATOM      1  C   UNL     1       3.216   4.271  18.225  0.00  0.00    +0.000 A 
ATOM      2  C   UNL     1       3.489   3.188  19.058  0.00  0.00    +0.000 A 
ATOM      3  C   UNL     1       3.022   3.193  20.371  0.00  0.00    +0.000 A 
ATOM      4  C   UNL     1       2.281   4.281  20.847  0.00  0.00    +0.000 A 
ATOM      5  C   UNL     1       1.989   5.377  20.026  0.00  0.00    +0.000 A 
ATOM      6  C   UNL     1       2.444   5.335  18.706  0.00  0.00    +0.000 A 
ENDROOT
BRANCH   5   7
ATOM      7  N   UNL     1       1.310   6.461  20.570  0.00  0.00    +0.000 N 
ATOM      8  H   UNL     1       0.298   6.378  20.532  0.00  0.00    +0.000 HD
BRANCH   7   9
ATOM      9  C   UNL     1       1.857   7.817  20.562  0.00  0.00    +0.000 C 
ATOM     10  C   UNL     1       1.609   8.519  19.228  0.00  0.00    +0.000 C 
BRANCH   9  11
ATOM     11  C   UNL     1       1.177   8.627  21.672  0.00  0.00    +0.000 C 
ATOM     12  C   UNL     1       1.050  10.159  21.464  0.00  0.00    +0.000 C 
ATOM     13  C   UNL     1      -0.335  10.074  22.144  0.00  0.00    +0.000 C 
ATOM     14  F   UNL     1      -1.299  10.865  21.625  0.00  0.00    +0.000 F 
ATOM     15  F   UNL     1      -0.337  10.281  23.482  0.00  0.00    +0.000 F 
ATOM     16  C   UNL     1      -0.372   8.591  21.711  0.00  0.00    +0.000 C 
ENDBRANCH   9  11
ENDBRANCH   7   9
ENDBRANCH   5   7
BRANCH   1  17
ATOM     17  O   UNL     1       3.698   4.192  16.935  0.00  0.00    +0.000 OA
BRANCH  17  20
ATOM     18  C   UNL     1       6.888   6.012  17.042  0.00  0.00    +0.000 A 
ATOM     19  C   UNL     1       5.656   5.551  17.477  0.00  0.00    +0.000 A 
ATOM     20  C   UNL     1       4.947   4.695  16.640  0.00  0.00    +0.000 A 
ATOM     21  C   UNL     1       5.527   4.264  15.451  0.00  0.00    +0.000 A 
ATOM     22  C   UNL     1       6.780   4.751  15.116  0.00  0.00    +0.000 A 
ATOM     23  N   UNL     1       7.474   5.632  15.870  0.00  0.00    +0.000 NA
BRANCH  18  26
ATOM     24  C   UNL     1       8.329   9.365  18.020  0.00  0.00    +0.000 C 
ATOM     25  N   UNL     1       7.605   8.306  17.375  0.00  0.00    +0.000 N 
ATOM     26  C   UNL     1       7.619   7.021  17.871  0.00  0.00    +0.000 C 
ATOM     27  O   UNL     1       8.178   6.702  18.917  0.00  0.00    +0.000 OA
ATOM     28  H   UNL     1       7.114   8.457  16.499  0.00  0.00    +0.000 HD
ENDBRANCH  18  26
ENDBRANCH  17  20
ENDBRANCH   1  17
TORSDOF 6
ENDMDL
MODEL 4
REMARK VINA RESULT:      -8.2      1.711      2.221
REMARK  Name = 
REMARK  8 active torsions:
REMARK  status: ('A' for Active; 'I' for Inactive)
REMARK    1  A    between atoms: C_1  and  N_2
REMARK    2  A    between atoms: C_3  and  C_5
REMARK    3  A    between atoms: C_7  and  O_8
REMARK    4  A    between atoms: O_8  and  C_9
REMARK    5  A    between atoms: C_13  and  N_14
REMARK    6  A    between atoms: N_14  and  C_15
REMARK    7  A    between atoms: C_15  and  C_16
REMARK    8  A    between atoms: C_15  and  C_17
REMARK                            x       y       z     vdW  Elec       q    Type
REMARK                         _______ _______ _______ _____ _____    ______ ____
ROOT
ATOM      1  C   UNL     1       3.429   4.218  19.514  0.00  0.00    +0.000 A 
ATOM      2  C   UNL     1       2.359   3.441  19.951  0.00  0.00    +0.000 A 
ATOM      3  C   UNL     1       1.239   4.058  20.505  0.00  0.00    +0.000 A 
ATOM      4  C   UNL     1       1.190   5.452  20.616  0.00  0.00    +0.000 A 
ATOM      5  C   UNL     1       2.250   6.254  20.177  0.00  0.00    +0.000 A 
ATOM      6  C   UNL     1       3.349   5.613  19.600  0.00  0.00    +0.000 A 
ENDROOT
BRANCH   5   7
ATOM      7  N   UNL     1       2.179   7.628  20.376  0.00  0.00    +0.000 N 
ATOM      8  H   UNL     1       3.082   8.074  20.511  0.00  0.00    +0.000 HD
BRANCH   7   9
ATOM      9  C   UNL     1       1.027   8.273  21.005  0.00  0.00    +0.000 C 
ATOM     10  C   UNL     1       1.426   9.040  22.265  0.00  0.00    +0.000 C 
BRANCH   9  11
ATOM     11  C   UNL     1       0.415   9.264  20.007  0.00  0.00    +0.000 C 
ATOM     12  C   UNL     1       0.546  10.776  20.328  0.00  0.00    +0.000 C 
ATOM     13  C   UNL     1       0.744  11.017  18.814  0.00  0.00    +0.000 C 
ATOM     14  F   UNL     1       1.647  11.963  18.479  0.00  0.00    +0.000 F 
ATOM     15  F   UNL     1      -0.385  11.288  18.118  0.00  0.00    +0.000 F 
ATOM     16  C   UNL     1       1.234   9.554  18.722  0.00  0.00    +0.000 C 
ENDBRANCH   9  11
ENDBRANCH   7   9
ENDBRANCH   5   7
BRANCH   1  17
ATOM     17  O   UNL     1       4.498   3.541  18.965  0.00  0.00    +0.000 OA
BRANCH  17  20
ATOM     18  C   UNL     1       6.615   4.892  16.282  0.00  0.00    +0.000 A 
ATOM     19  C   UNL     1       5.587   4.171  16.870  0.00  0.00    +0.000 A 
ATOM     20  C   UNL     1       5.453   4.235  18.252  0.00  0.00    +0.000 A 
ATOM     21  C   UNL     1       6.283   5.078  18.984  0.00  0.00    +0.000 A 
ATOM     22  C   UNL     1       7.260   5.789  18.306  0.00  0.00    +0.000 A 
ATOM     23  N   UNL     1       7.465   5.707  16.973  0.00  0.00    +0.000 NA
BRANCH  18  26
ATOM     24  C   UNL     1       6.274   3.478  12.796  0.00  0.00    +0.000 C 
ATOM     25  N   UNL     1       6.100   3.781  14.189  0.00  0.00    +0.000 N 
ATOM     26  C   UNL     1       6.851   4.753  14.812  0.00  0.00    +0.000 C 
ATOM     27  O   UNL     1       7.658   5.468  14.225  0.00  0.00    +0.000 OA
ATOM     28  H   UNL     1       5.464   3.245  14.772  0.00  0.00    +0.000 HD
ENDBRANCH  18  26
ENDBRANCH  17  20
ENDBRANCH   1  17
TORSDOF 6
ENDMDL
MODEL 5
REMARK VINA RESULT:      -8.2      1.556      2.649
REMARK  Name = 
REMARK  8 active torsions:
REMARK  status: ('A' for Active; 'I' for Inactive)
REMARK    1  A    between atoms: C_1  and  N_2
REMARK    2  A    between atoms: C_3  and  C_5
REMARK    3  A    between atoms: C_7  and  O_8
REMARK    4  A    between atoms: O_8  and  C_9
REMARK    5  A    between atoms: C_13  and  N_14
REMARK    6  A    between atoms: N_14  and  C_15
REMARK    7  A    between atoms: C_15  and  C_16
REMARK    8  A    between atoms: C_15  and  C_17
REMARK                            x       y       z     vdW  Elec       q    Type
REMARK                         _______ _______ _______ _____ _____    ______ ____
ROOT
ATOM      1  C   UNL     1       3.501   3.550  19.045  0.00  0.00    +0.000 A 
ATOM      2  C   UNL     1       3.455   2.629  20.089  0.00  0.00    +0.000 A 
ATOM      3  C   UNL     1       2.698   2.912  21.225  0.00  0.00    +0.000 A 
ATOM      4  C   UNL     1       1.986   4.113  21.311  0.00  0.00    +0.000 A 
ATOM      5  C   UNL     1       2.012   5.050  20.271  0.00  0.00    +0.000 A 
ATOM      6  C   UNL     1       2.755   4.731  19.132  0.00  0.00    +0.000 A 
ENDROOT
BRANCH   5   7
ATOM      7  N   UNL     1       1.343   6.257  20.439  0.00  0.00    +0.000 N 
ATOM      8  H   UNL     1       0.349   6.213  20.235  0.00  0.00    +0.000 HD
BRANCH   7   9
ATOM      9  C   UNL     1       1.996   7.552  20.243  0.00  0.00    +0.000 C 
ATOM     10  C   UNL     1       2.229   7.850  18.763  0.00  0.00    +0.000 C 
BRANCH   9  11
ATOM     11  C   UNL     1       1.095   8.648  20.823  0.00  0.00    +0.000 C 
ATOM     12  C   UNL     1      -0.158   8.198  21.619  0.00  0.00    +0.000 C 
ATOM     13  C   UNL     1       0.097   9.387  22.572  0.00  0.00    +0.000 C 
ATOM     14  F   UNL     1      -0.138   9.158  23.882  0.00  0.00    +0.000 F 
ATOM     15  F   UNL     1      -0.549  10.534  22.253  0.00  0.00    +0.000 F 
ATOM     16  C   UNL     1       1.577   9.327  22.131  0.00  0.00    +0.000 C 
ENDBRANCH   9  11
ENDBRANCH   7   9
ENDBRANCH   5   7
BRANCH   1  17
ATOM     17  O   UNL     1       4.260   3.198  17.947  0.00  0.00    +0.000 OA
BRANCH  17  20
ATOM     18  C   UNL     1       6.624   5.921  17.242  0.00  0.00    +0.000 A 
ATOM     19  C   UNL     1       5.929   4.983  17.989  0.00  0.00    +0.000 A 
ATOM     20  C   UNL     1       5.038   4.149  17.322  0.00  0.00    +0.000 A 
ATOM     21  C   UNL     1       4.939   4.220  15.936  0.00  0.00    +0.000 A 
ATOM     22  C   UNL     1       5.701   5.165  15.270  0.00  0.00    +0.000 A 
ATOM     23  N   UNL     1       6.531   6.036  15.885  0.00  0.00    +0.000 NA
BRANCH  18  26
ATOM     24  C   UNL     1       8.341   9.211  17.952  0.00  0.00    +0.000 C 
ATOM     25  N   UNL     1       7.490   8.180  17.429  0.00  0.00    +0.000 N 
ATOM     26  C   UNL     1       7.503   6.904  17.949  0.00  0.00    +0.000 C 
ATOM     27  O   UNL     1       8.174   6.574  18.923  0.00  0.00    +0.000 OA
ATOM     28  H   UNL     1       6.899   8.341  16.618  0.00  0.00    +0.000 HD
ENDBRANCH  18  26
ENDBRANCH  17  20
ENDBRANCH   1  17
TORSDOF 6
ENDMDL
MODEL 6
REMARK VINA RESULT:      -8.0      3.370      5.094
REMARK  Name = 
REMARK  8 active torsions:
REMARK  status: ('A' for Active; 'I' for Inactive)
REMARK    1  A    between atoms: C_1  and  N_2
REMARK    2  A    between atoms: C_3  and  C_5
REMARK    3  A    between atoms: C_7  and  O_8
REMARK    4  A    between atoms: O_8  and  C_9
REMARK    5  A    between atoms: C_13  and  N_14
REMARK    6  A    between atoms: N_14  and  C_15
REMARK    7  A    between atoms: C_15  and  C_16
REMARK    8  A    between atoms: C_15  and  C_17
REMARK                            x       y       z     vdW  Elec       q    Type
REMARK                         _______ _______ _______ _____ _____    ______ ____
ROOT
ATOM      1  C   UNL     1       2.967   6.939  18.378  0.00  0.00    +0.000 A 
ATOM      2  C   UNL     1       2.557   8.047  19.115  0.00  0.00    +0.000 A 
ATOM      3  C   UNL     1       1.754   7.868  20.241  0.00  0.00    +0.000 A 
ATOM      4  C   UNL     1       1.367   6.580  20.627  0.00  0.00    +0.000 A 
ATOM      5  C   UNL     1       1.773   5.451  19.905  0.00  0.00    +0.000 A 
ATOM      6  C   UNL     1       2.601   5.656  18.798  0.00  0.00    +0.000 A 
ENDROOT
BRANCH   5   7
ATOM      7  N   UNL     1       1.303   4.202  20.292  0.00  0.00    +0.000 N 
ATOM      8  H   UNL     1       0.296   4.158  20.418  0.00  0.00    +0.000 HD
BRANCH   7   9
ATOM      9  C   UNL     1       2.104   3.270  21.086  0.00  0.00    +0.000 C 
ATOM     10  C   UNL     1       1.254   2.523  22.111  0.00  0.00    +0.000 C 
BRANCH   9  11
ATOM     11  C   UNL     1       2.741   2.243  20.142  0.00  0.00    +0.000 C 
ATOM     12  C   UNL     1       2.271   2.242  18.664  0.00  0.00    +0.000 C 
ATOM     13  C   UNL     1       3.730   1.930  18.264  0.00  0.00    +0.000 C 
ATOM     14  F   UNL     1       4.181   2.537  17.145  0.00  0.00    +0.000 F 
ATOM     15  F   UNL     1       4.030   0.615  18.144  0.00  0.00    +0.000 F 
ATOM     16  C   UNL     1       4.156   2.577  19.601  0.00  0.00    +0.000 C 
ENDBRANCH   9  11
ENDBRANCH   7   9
ENDBRANCH   5   7
BRANCH   1  17
ATOM     17  O   UNL     1       3.770   7.191  17.284  0.00  0.00    +0.000 OA
BRANCH  17  20
ATOM     18  C   UNL     1       6.305   5.168  15.557  0.00  0.00    +0.000 A 
ATOM     19  C   UNL     1       5.263   6.071  15.707  0.00  0.00    +0.000 A 
ATOM     20  C   UNL     1       4.818   6.342  16.996  0.00  0.00    +0.000 A 
ATOM     21  C   UNL     1       5.478   5.779  18.084  0.00  0.00    +0.000 A 
ATOM     22  C   UNL     1       6.533   4.916  17.837  0.00  0.00    +0.000 A 
ATOM     23  N   UNL     1       6.957   4.576  16.599  0.00  0.00    +0.000 NA
BRANCH  18  26
ATOM     24  C   UNL     1       6.371   3.181  12.344  0.00  0.00    +0.000 C 
ATOM     25  N   UNL     1       6.026   3.722  13.629  0.00  0.00    +0.000 N 
ATOM     26  C   UNL     1       6.728   4.773  14.177  0.00  0.00    +0.000 C 
ATOM     27  O   UNL     1       7.635   5.361  13.596  0.00  0.00    +0.000 OA
ATOM     28  H   UNL     1       5.296   3.307  14.201  0.00  0.00    +0.000 HD
ENDBRANCH  18  26
ENDBRANCH  17  20
ENDBRANCH   1  17
TORSDOF 6
ENDMDL
MODEL 7
REMARK VINA RESULT:      -8.0      2.240      3.457
REMARK  Name = 
REMARK  8 active torsions:
REMARK  status: ('A' for Active; 'I' for Inactive)
REMARK    1  A    between atoms: C_1  and  N_2
REMARK    2  A    between atoms: C_3  and  C_5
REMARK    3  A    between atoms: C_7  and  O_8
REMARK    4  A    between atoms: O_8  and  C_9
REMARK    5  A    between atoms: C_13  and  N_14
REMARK    6  A    between atoms: N_14  and  C_15
REMARK    7  A    between atoms: C_15  and  C_16
REMARK    8  A    between atoms: C_15  and  C_17
REMARK                            x       y       z     vdW  Elec       q    Type
REMARK                         _______ _______ _______ _____ _____    ______ ____
ROOT
ATOM      1  C   UNL     1       3.222   4.346  18.812  0.00  0.00    +0.000 A 
ATOM      2  C   UNL     1       2.304   3.537  19.477  0.00  0.00    +0.000 A 
ATOM      3  C   UNL     1       1.380   4.113  20.347  0.00  0.00    +0.000 A 
ATOM      4  C   UNL     1       1.374   5.498  20.547  0.00  0.00    +0.000 A 
ATOM      5  C   UNL     1       2.283   6.332  19.884  0.00  0.00    +0.000 A 
ATOM      6  C   UNL     1       3.180   5.733  18.996  0.00  0.00    +0.000 A 
ENDROOT
BRANCH   5   7
ATOM      7  N   UNL     1       2.280   7.692  20.173  0.00  0.00    +0.000 N 
ATOM      8  H   UNL     1       3.193   8.068  20.408  0.00  0.00    +0.000 HD
BRANCH   7   9
ATOM      9  C   UNL     1       1.121   8.370  20.754  0.00  0.00    +0.000 C 
ATOM     10  C   UNL     1       1.393   8.828  22.185  0.00  0.00    +0.000 C 
BRANCH   9  11
ATOM     11  C   UNL     1       0.797   9.603  19.902  0.00  0.00    +0.000 C 
ATOM     12  C   UNL     1       0.894   9.454  18.361  0.00  0.00    +0.000 C 
ATOM     13  C   UNL     1      -0.341  10.377  18.257  0.00  0.00    +0.000 C 
ATOM     14  F   UNL     1      -1.236  10.062  17.296  0.00  0.00    +0.000 F 
ATOM     15  F   UNL     1      -0.069  11.696  18.121  0.00  0.00    +0.000 F 
ATOM     16  C   UNL     1      -0.704   9.929  19.690  0.00  0.00    +0.000 C 
ENDBRANCH   9  11
ENDBRANCH   7   9
ENDBRANCH   5   7
BRANCH   1  17
ATOM     17  O   UNL     1       4.097   3.710  17.957  0.00  0.00    +0.000 OA
BRANCH  17  20
ATOM     18  C   UNL     1       6.887   6.009  17.301  0.00  0.00    +0.000 A 
ATOM     19  C   UNL     1       5.929   5.325  18.033  0.00  0.00    +0.000 A 
ATOM     20  C   UNL     1       5.110   4.428  17.357  0.00  0.00    +0.000 A 
ATOM     21  C   UNL     1       5.331   4.180  16.006  0.00  0.00    +0.000 A 
ATOM     22  C   UNL     1       6.336   4.886  15.365  0.00  0.00    +0.000 A 
ATOM     23  N   UNL     1       7.113   5.812  15.969  0.00  0.00    +0.000 NA
BRANCH  18  26
ATOM     24  C   UNL     1       8.403   9.413  17.922  0.00  0.00    +0.000 C 
ATOM     25  N   UNL     1       7.615   8.319  17.427  0.00  0.00    +0.000 N 
ATOM     26  C   UNL     1       7.706   7.061  17.980  0.00  0.00    +0.000 C 
ATOM     27  O   UNL     1       8.395   6.798  18.961  0.00  0.00    +0.000 OA
ATOM     28  H   UNL     1       7.016   8.424  16.613  0.00  0.00    +0.000 HD
ENDBRANCH  18  26
ENDBRANCH  17  20
ENDBRANCH   1  17
TORSDOF 6
ENDMDL
MODEL 8
REMARK VINA RESULT:      -8.0      0.798      1.083
REMARK  Name = 
REMARK  8 active torsions:
REMARK  status: ('A' for Active; 'I' for Inactive)
REMARK    1  A    between atoms: C_1  and  N_2
REMARK    2  A    between atoms: C_3  and  C_5
REMARK    3  A    between atoms: C_7  and  O_8
REMARK    4  A    between atoms: O_8  and  C_9
REMARK    5  A    between atoms: C_13  and  N_14
REMARK    6  A    between atoms: N_14  and  C_15
REMARK    7  A    between atoms: C_15  and  C_16
REMARK    8  A    between atoms: C_15  and  C_17
REMARK                            x       y       z     vdW  Elec       q    Type
REMARK                         _______ _______ _______ _____ _____    ______ ____
ROOT
ATOM      1  C   UNL     1       4.527   3.865  19.484  0.00  0.00    +0.000 A 
ATOM      2  C   UNL     1       3.916   2.715  19.978  0.00  0.00    +0.000 A 
ATOM      3  C   UNL     1       2.579   2.758  20.371  0.00  0.00    +0.000 A 
ATOM      4  C   UNL     1       1.857   3.952  20.265  0.00  0.00    +0.000 A 
ATOM      5  C   UNL     1       2.448   5.118  19.765  0.00  0.00    +0.000 A 
ATOM      6  C   UNL     1       3.780   5.041  19.352  0.00  0.00    +0.000 A 
ENDROOT
BRANCH   5   7
ATOM      7  N   UNL     1       1.706   6.293  19.747  0.00  0.00    +0.000 N 
ATOM      8  H   UNL     1       0.763   6.183  19.384  0.00  0.00    +0.000 HD
BRANCH   7   9
ATOM      9  C   UNL     1       2.321   7.610  19.586  0.00  0.00    +0.000 C 
ATOM     10  C   UNL     1       2.080   8.181  18.190  0.00  0.00    +0.000 C 
BRANCH   9  11
ATOM     11  C   UNL     1       1.707   8.567  20.615  0.00  0.00    +0.000 C 
ATOM     12  C   UNL     1       1.061   9.873  20.082  0.00  0.00    +0.000 C 
ATOM     13  C   UNL     1      -0.023   9.708  21.170  0.00  0.00    +0.000 C 
ATOM     14  F   UNL     1      -1.280  10.042  20.809  0.00  0.00    +0.000 F 
ATOM     15  F   UNL     1       0.230  10.341  22.340  0.00  0.00    +0.000 F 
ATOM     16  C   UNL     1       0.304   8.197  21.160  0.00  0.00    +0.000 C 
ENDBRANCH   9  11
ENDBRANCH   7   9
ENDBRANCH   5   7
BRANCH   1  17
ATOM     17  O   UNL     1       5.848   3.744  19.102  0.00  0.00    +0.000 OA
BRANCH  17  20
ATOM     18  C   UNL     1       6.935   5.259  15.936  0.00  0.00    +0.000 A 
ATOM     19  C   UNL     1       6.349   4.332  16.784  0.00  0.00    +0.000 A 
ATOM     20  C   UNL     1       6.363   4.596  18.149  0.00  0.00    +0.000 A 
ATOM     21  C   UNL     1       6.876   5.805  18.608  0.00  0.00    +0.000 A 
ATOM     22  C   UNL     1       7.409   6.687  17.683  0.00  0.00    +0.000 A 
ATOM     23  N   UNL     1       7.472   6.442  16.355  0.00  0.00    +0.000 NA
BRANCH  18  26
ATOM     24  C   UNL     1       6.191   3.522  12.665  0.00  0.00    +0.000 C 
ATOM     25  N   UNL     1       6.160   3.982  14.025  0.00  0.00    +0.000 N 
ATOM     26  C   UNL     1       7.033   4.948  14.476  0.00  0.00    +0.000 C 
ATOM     27  O   UNL     1       7.838   5.528  13.753  0.00  0.00    +0.000 OA
ATOM     28  H   UNL     1       5.538   3.565  14.712  0.00  0.00    +0.000 HD
ENDBRANCH  18  26
ENDBRANCH  17  20
ENDBRANCH   1  17
TORSDOF 6
ENDMDL
MODEL 9
REMARK VINA RESULT:      -8.0      4.429      8.238
REMARK  Name = 
REMARK  8 active torsions:
REMARK  status: ('A' for Active; 'I' for Inactive)
REMARK    1  A    between atoms: C_1  and  N_2
REMARK    2  A    between atoms: C_3  and  C_5
REMARK    3  A    between atoms: C_7  and  O_8
REMARK    4  A    between atoms: O_8  and  C_9
REMARK    5  A    between atoms: C_13  and  N_14
REMARK    6  A    between atoms: N_14  and  C_15
REMARK    7  A    between atoms: C_15  and  C_16
REMARK    8  A    between atoms: C_15  and  C_17
REMARK                            x       y       z     vdW  Elec       q    Type
REMARK                         _______ _______ _______ _____ _____    ______ ____
ROOT
ATOM      1  C   UNL     1       2.632   5.391  19.647  0.00  0.00    +0.000 A 
ATOM      2  C   UNL     1       1.750   4.527  19.002  0.00  0.00    +0.000 A 
ATOM      3  C   UNL     1       2.250   3.536  18.157  0.00  0.00    +0.000 A 
ATOM      4  C   UNL     1       3.630   3.411  17.963  0.00  0.00    +0.000 A 
ATOM      5  C   UNL     1       4.535   4.263  18.607  0.00  0.00    +0.000 A 
ATOM      6  C   UNL     1       4.011   5.229  19.470  0.00  0.00    +0.000 A 
ENDROOT
BRANCH   5   7
ATOM      7  N   UNL     1       5.890   4.140  18.325  0.00  0.00    +0.000 N 
ATOM      8  H   UNL     1       6.344   3.366  18.800  0.00  0.00    +0.000 HD
BRANCH   7   9
ATOM      9  C   UNL     1       6.732   5.289  17.991  0.00  0.00    +0.000 C 
ATOM     10  C   UNL     1       8.089   5.219  18.690  0.00  0.00    +0.000 C 
BRANCH   9  11
ATOM     11  C   UNL     1       6.966   5.302  16.476  0.00  0.00    +0.000 C 
ATOM     12  C   UNL     1       6.841   3.952  15.721  0.00  0.00    +0.000 C 
ATOM     13  C   UNL     1       6.198   4.735  14.555  0.00  0.00    +0.000 C 
ATOM     14  F   UNL     1       5.180   4.117  13.918  0.00  0.00    +0.000 F 
ATOM     15  F   UNL     1       7.057   5.161  13.599  0.00  0.00    +0.000 F 
ATOM     16  C   UNL     1       5.793   5.804  15.594  0.00  0.00    +0.000 C 
ENDBRANCH   9  11
ENDBRANCH   7   9
ENDBRANCH   5   7
BRANCH   1  17
ATOM     17  O   UNL     1       2.068   6.337  20.478  0.00  0.00    +0.000 OA
BRANCH  17  20
ATOM     18  C   UNL     1       0.651   9.695  20.014  0.00  0.00    +0.000 A 
ATOM     19  C   UNL     1       0.950   8.503  20.654  0.00  0.00    +0.000 A 
ATOM     20  C   UNL     1       1.726   7.573  19.971  0.00  0.00    +0.000 A 
ATOM     21  C   UNL     1       2.245   7.898  18.722  0.00  0.00    +0.000 A 
ATOM     22  C   UNL     1       1.920   9.129  18.175  0.00  0.00    +0.000 A 
ATOM     23  N   UNL     1       1.119  10.035  18.777  0.00  0.00    +0.000 NA
BRANCH  18  26
ATOM     24  C   UNL     1      -1.046  11.547  22.836  0.00  0.00    +0.000 C 
ATOM     25  N   UNL     1      -0.171  10.721  22.053  0.00  0.00    +0.000 N 
ATOM     26  C   UNL     1      -0.274  10.665  20.680  0.00  0.00    +0.000 C 
ATOM     27  O   UNL     1      -1.054  11.353  20.028  0.00  0.00    +0.000 OA
ATOM     28  H   UNL     1       0.508  10.104  22.490  0.00  0.00    +0.000 HD
ENDBRANCH  18  26
ENDBRANCH  17  20
ENDBRANCH   1  17
TORSDOF 6
ENDMDL
