MODEL 1
REMARK VINA RESULT:      -9.7      0.000      0.000
REMARK  Name = 
REMARK  7 active torsions:
REMARK  status: ('A' for Active; 'I' for Inactive)
REMARK    1  A    between atoms: C_1  and  C_2
REMARK    2  A    between atoms: N_10  and  C_11
REMARK    3  A    between atoms: C_11  and  C_12
REMARK    4  A    between atoms: C_15  and  C_16
REMARK    5  A    between atoms: C_16  and  C_18
REMARK    6  A    between atoms: N_23  and  C_24
REMARK    7  A    between atoms: N_23  and  C_25
REMARK                            x       y       z     vdW  Elec       q    Type
REMARK                         _______ _______ _______ _____ _____    ______ ____
ROOT
ATOM      1  C   UNL     1       2.274   6.931  19.618  0.00  0.00    +0.000 A 
ATOM      2  C   UNL     1       1.628   7.648  20.637  0.00  0.00    +0.000 A 
ATOM      3  C   UNL     1       1.213   8.969  20.420  0.00  0.00    +0.000 A 
ATOM      4  C   UNL     1       1.416   9.587  19.179  0.00  0.00    +0.000 A 
ATOM      5  C   UNL     1       2.052   8.873  18.159  0.00  0.00    +0.000 A 
ATOM      6  C   UNL     1       2.471   7.557  18.378  0.00  0.00    +0.000 A 
ENDROOT
BRANCH   4   7
ATOM      7  C   UNL     1       0.990  11.009  19.010  0.00  0.00    +0.000 C 
ATOM      8  O   UNL     1       1.659  11.736  18.281  0.00  0.00    +0.000 OA
BRANCH   7   9
ATOM      9  C   UNL     1      -0.160  11.516  19.759  0.00  0.00    +0.000 A 
ATOM     10  C   UNL     1      -0.076  12.121  21.004  0.00  0.00    +0.000 A 
ATOM     11  N   UNL     1      -1.323  12.572  21.394  0.00  0.00    +0.000 N 
ATOM     12  C   UNL     1      -1.686  13.159  22.627  0.00  0.00    +0.000 C 
ATOM     13  O   UNL     1      -2.696  12.741  23.183  0.00  0.00    +0.000 OA
ATOM     14  N   UNL     1      -0.876  14.191  23.097  0.00  0.00    +0.000 N 
ATOM     15  C   UNL     1       0.117  14.949  22.342  0.00  0.00    +0.000 C 
ATOM     16  C   UNL     1      -1.280  14.806  24.354  0.00  0.00    +0.000 C 
ATOM     17  C   UNL     1      -2.233  12.226  20.395  0.00  0.00    +0.000 A 
ATOM     18  C   UNL     1      -3.616  12.492  20.319  0.00  0.00    +0.000 A 
ATOM     19  C   UNL     1      -4.337  12.073  19.202  0.00  0.00    +0.000 A 
ATOM     20  C   UNL     1      -3.700  11.374  18.188  0.00  0.00    +0.000 A 
ATOM     21  C   UNL     1      -2.331  11.110  18.276  0.00  0.00    +0.000 A 
ATOM     22 CL   UNL     1      -1.583  10.146  17.078  0.00  0.00    +0.000 Cl
ATOM     23  C   UNL     1      -1.549  11.564  19.366  0.00  0.00    +0.000 A 
ENDBRANCH   7   9
ENDBRANCH   4   7
BRANCH   1  24
ATOM     24  C   UNL     1       2.823   5.545  19.864  0.00  0.00    +0.000 C 
BRANCH  24  34
ATOM     25  C   UNL     1       1.551   3.862  17.629  0.00  0.00    +0.000 C 
ATOM     26  C   UNL     1       2.987   4.237  17.708  0.00  0.00    +0.000 A 
ATOM     27  N   UNL     1       3.902   3.883  16.830  0.00  0.00    +0.000 NA
ATOM     28  C   UNL     1       5.084   4.359  17.315  0.00  0.00    +0.000 A 
ATOM     29  N   UNL     1       6.286   4.193  16.722  0.00  0.00    +0.000 NA
ATOM     30  C   UNL     1       7.324   4.713  17.404  0.00  0.00    +0.000 A 
ATOM     31  C   UNL     1       7.242   5.360  18.631  0.00  0.00    +0.000 A 
ATOM     32  C   UNL     1       5.997   5.525  19.237  0.00  0.00    +0.000 A 
ATOM     33  C   UNL     1       4.906   5.017  18.528  0.00  0.00    +0.000 A 
ATOM     34  N   UNL     1       3.543   4.991  18.726  0.00  0.00    +0.000 N 
ENDBRANCH  24  34
ENDBRANCH   1  24
TORSDOF 4
ENDMDL
MODEL 2
REMARK VINA RESULT:      -9.1      1.992      3.607
REMARK  Name = 
REMARK  7 active torsions:
REMARK  status: ('A' for Active; 'I' for Inactive)
REMARK    1  A    between atoms: C_1  and  C_2
REMARK    2  A    between atoms: N_10  and  C_11
REMARK    3  A    between atoms: C_11  and  C_12
REMARK    4  A    between atoms: C_15  and  C_16
REMARK    5  A    between atoms: C_16  and  C_18
REMARK    6  A    between atoms: N_23  and  C_24
REMARK    7  A    between atoms: N_23  and  C_25
REMARK                            x       y       z     vdW  Elec       q    Type
REMARK                         _______ _______ _______ _____ _____    ______ ____
ROOT
ATOM      1  C   UNL     1       2.446   7.653  19.145  0.00  0.00    +0.000 A 
ATOM      2  C   UNL     1       1.719   8.131  20.246  0.00  0.00    +0.000 A 
ATOM      3  C   UNL     1       0.795   9.172  20.087  0.00  0.00    +0.000 A 
ATOM      4  C   UNL     1       0.566   9.738  18.826  0.00  0.00    +0.000 A 
ATOM      5  C   UNL     1       1.284   9.260  17.725  0.00  0.00    +0.000 A 
ATOM      6  C   UNL     1       2.209   8.225  17.885  0.00  0.00    +0.000 A 
ENDROOT
BRANCH   4   7
ATOM      7  C   UNL     1      -0.400  10.872  18.715  0.00  0.00    +0.000 C 
ATOM      8  O   UNL     1      -1.170  10.893  17.760  0.00  0.00    +0.000 OA
BRANCH   7   9
ATOM      9  C   UNL     1      -0.363  11.956  19.698  0.00  0.00    +0.000 A 
ATOM     10  C   UNL     1      -1.409  12.272  20.552  0.00  0.00    +0.000 A 
ATOM     11  N   UNL     1      -1.023  13.277  21.419  0.00  0.00    +0.000 N 
ATOM     12  C   UNL     1      -1.815  13.947  22.378  0.00  0.00    +0.000 C 
ATOM     13  O   UNL     1      -1.754  15.171  22.416  0.00  0.00    +0.000 OA
ATOM     14  N   UNL     1      -2.585  13.152  23.226  0.00  0.00    +0.000 N 
ATOM     15  C   UNL     1      -2.448  11.717  23.457  0.00  0.00    +0.000 C 
ATOM     16  C   UNL     1      -3.373  13.855  24.229  0.00  0.00    +0.000 C 
ATOM     17  C   UNL     1       0.286  13.636  21.098  0.00  0.00    +0.000 A 
ATOM     18  C   UNL     1       1.124  14.591  21.712  0.00  0.00    +0.000 A 
ATOM     19  C   UNL     1       2.424  14.770  21.241  0.00  0.00    +0.000 A 
ATOM     20  C   UNL     1       2.876  14.033  20.157  0.00  0.00    +0.000 A 
ATOM     21  C   UNL     1       2.036  13.095  19.552  0.00  0.00    +0.000 A 
ATOM     22 CL   UNL     1       2.564  12.281  18.145  0.00  0.00    +0.000 Cl
ATOM     23  C   UNL     1       0.728  12.841  20.031  0.00  0.00    +0.000 A 
ENDBRANCH   7   9
ENDBRANCH   4   7
BRANCH   1  24
ATOM     24  C   UNL     1       3.522   6.606  19.312  0.00  0.00    +0.000 C 
BRANCH  24  34
ATOM     25  C   UNL     1       4.783   5.827  16.619  0.00  0.00    +0.000 C 
ATOM     26  C   UNL     1       3.814   4.999  17.383  0.00  0.00    +0.000 A 
ATOM     27  N   UNL     1       3.363   3.825  16.993  0.00  0.00    +0.000 NA
ATOM     28  C   UNL     1       2.444   3.453  17.929  0.00  0.00    +0.000 A 
ATOM     29  N   UNL     1       1.724   2.311  17.893  0.00  0.00    +0.000 NA
ATOM     30  C   UNL     1       0.844   2.171  18.903  0.00  0.00    +0.000 A 
ATOM     31  C   UNL     1       0.627   3.094  19.918  0.00  0.00    +0.000 A 
ATOM     32  C   UNL     1       1.373   4.272  19.946  0.00  0.00    +0.000 A 
ATOM     33  C   UNL     1       2.311   4.419  18.922  0.00  0.00    +0.000 A 
ATOM     34  N   UNL     1       3.252   5.370  18.592  0.00  0.00    +0.000 N 
ENDBRANCH  24  34
ENDBRANCH   1  24
TORSDOF 4
ENDMDL
MODEL 3
REMARK VINA RESULT:      -9.1      1.512      1.781
REMARK  Name = 
REMARK  7 active torsions:
REMARK  status: ('A' for Active; 'I' for Inactive)
REMARK    1  A    between atoms: C_1  and  C_2
REMARK    2  A    between atoms: N_10  and  C_11
REMARK    3  A    between atoms: C_11  and  C_12
REMARK    4  A    between atoms: C_15  and  C_16
REMARK    5  A    between atoms: C_16  and  C_18
REMARK    6  A    between atoms: N_23  and  C_24
REMARK    7  A    between atoms: N_23  and  C_25
REMARK                            x       y       z     vdW  Elec       q    Type
REMARK                         _______ _______ _______ _____ _____    ______ ____
ROOT
ATOM      1  C   UNL     1       1.850   7.760  19.960  0.00  0.00    +0.000 A 
ATOM      2  C   UNL     1       1.132   8.493  20.917  0.00  0.00    +0.000 A 
ATOM      3  C   UNL     1       0.512   9.699  20.567  0.00  0.00    +0.000 A 
ATOM      4  C   UNL     1       0.581  10.183  19.253  0.00  0.00    +0.000 A 
ATOM      5  C   UNL     1       1.289   9.451  18.295  0.00  0.00    +0.000 A 
ATOM      6  C   UNL     1       1.912   8.250  18.647  0.00  0.00    +0.000 A 
ENDROOT
BRANCH   4   7
ATOM      7  C   UNL     1      -0.063  11.493  18.938  0.00  0.00    +0.000 C 
ATOM      8  O   UNL     1       0.594  12.339  18.339  0.00  0.00    +0.000 OA
BRANCH   7   9
ATOM      9  C   UNL     1      -1.424  11.764  19.405  0.00  0.00    +0.000 A 
ATOM     10  C   UNL     1      -1.729  12.343  20.627  0.00  0.00    +0.000 A 
ATOM     11  N   UNL     1      -3.093  12.550  20.723  0.00  0.00    +0.000 N 
ATOM     12  C   UNL     1      -3.821  13.030  21.835  0.00  0.00    +0.000 C 
ATOM     13  O   UNL     1      -4.835  12.422  22.160  0.00  0.00    +0.000 OA
ATOM     14  N   UNL     1      -3.338  14.181  22.456  0.00  0.00    +0.000 N 
ATOM     15  C   UNL     1      -2.359  15.126  21.926  0.00  0.00    +0.000 C 
ATOM     16  C   UNL     1      -4.116  14.681  23.581  0.00  0.00    +0.000 C 
ATOM     17  C   UNL     1      -3.680  12.068  19.553  0.00  0.00    +0.000 A 
ATOM     18  C   UNL     1      -5.037  12.079  19.168  0.00  0.00    +0.000 A 
ATOM     19  C   UNL     1      -5.404  11.563  17.926  0.00  0.00    +0.000 A 
ATOM     20  C   UNL     1      -4.441  11.017  17.090  0.00  0.00    +0.000 A 
ATOM     21  C   UNL     1      -3.101  11.005  17.485  0.00  0.00    +0.000 A 
ATOM     22 CL   UNL     1      -1.943  10.223  16.499  0.00  0.00    +0.000 Cl
ATOM     23  C   UNL     1      -2.676  11.567  18.713  0.00  0.00    +0.000 A 
ENDBRANCH   7   9
ENDBRANCH   4   7
BRANCH   1  24
ATOM     24  C   UNL     1       2.613   6.512  20.341  0.00  0.00    +0.000 C 
BRANCH  24  34
ATOM     25  C   UNL     1       0.859   4.003  20.067  0.00  0.00    +0.000 C 
ATOM     26  C   UNL     1       1.931   4.407  19.121  0.00  0.00    +0.000 A 
ATOM     27  N   UNL     1       2.274   3.729  18.045  0.00  0.00    +0.000 NA
ATOM     28  C   UNL     1       3.340   4.393  17.513  0.00  0.00    +0.000 A 
ATOM     29  N   UNL     1       4.011   4.014  16.405  0.00  0.00    +0.000 NA
ATOM     30  C   UNL     1       5.058   4.800  16.087  0.00  0.00    +0.000 A 
ATOM     31  C   UNL     1       5.482   5.910  16.808  0.00  0.00    +0.000 A 
ATOM     32  C   UNL     1       4.783   6.293  17.952  0.00  0.00    +0.000 A 
ATOM     33  C   UNL     1       3.676   5.506  18.278  0.00  0.00    +0.000 A 
ATOM     34  N   UNL     1       2.715   5.538  19.265  0.00  0.00    +0.000 N 
ENDBRANCH  24  34
ENDBRANCH   1  24
TORSDOF 4
ENDMDL
MODEL 4
REMARK VINA RESULT:      -8.9      1.724      2.890
REMARK  Name = 
REMARK  7 active torsions:
REMARK  status: ('A' for Active; 'I' for Inactive)
REMARK    1  A    between atoms: C_1  and  C_2
REMARK    2  A    between atoms: N_10  and  C_11
REMARK    3  A    between atoms: C_11  and  C_12
REMARK    4  A    between atoms: C_15  and  C_16
REMARK    5  A    between atoms: C_16  and  C_18
REMARK    6  A    between atoms: N_23  and  C_24
REMARK    7  A    between atoms: N_23  and  C_25
REMARK                            x       y       z     vdW  Elec       q    Type
REMARK                         _______ _______ _______ _____ _____    ______ ____
ROOT
ATOM      1  C   UNL     1       2.559   7.125  19.434  0.00  0.00    +0.000 A 
ATOM      2  C   UNL     1       2.471   7.687  18.151  0.00  0.00    +0.000 A 
ATOM      3  C   UNL     1       1.632   8.783  17.913  0.00  0.00    +0.000 A 
ATOM      4  C   UNL     1       0.885   9.350  18.955  0.00  0.00    +0.000 A 
ATOM      5  C   UNL     1       0.975   8.798  20.236  0.00  0.00    +0.000 A 
ATOM      6  C   UNL     1       1.808   7.700  20.471  0.00  0.00    +0.000 A 
ENDROOT
BRANCH   4   7
ATOM      7  C   UNL     1      -0.024  10.494  18.643  0.00  0.00    +0.000 C 
ATOM      8  O   UNL     1      -0.675  10.457  17.603  0.00  0.00    +0.000 OA
BRANCH   7   9
ATOM      9  C   UNL     1      -0.068  11.651  19.539  0.00  0.00    +0.000 A 
ATOM     10  C   UNL     1      -1.125  11.942  20.387  0.00  0.00    +0.000 A 
ATOM     11  N   UNL     1      -0.816  13.042  21.166  0.00  0.00    +0.000 N 
ATOM     12  C   UNL     1      -1.650  13.714  22.087  0.00  0.00    +0.000 C 
ATOM     13  O   UNL     1      -1.696  14.938  22.029  0.00  0.00    +0.000 OA
ATOM     14  N   UNL     1      -2.335  12.925  23.010  0.00  0.00    +0.000 N 
ATOM     15  C   UNL     1      -2.070  11.530  23.348  0.00  0.00    +0.000 C 
ATOM     16  C   UNL     1      -3.167  13.634  23.972  0.00  0.00    +0.000 C 
ATOM     17  C   UNL     1       0.452  13.486  20.790  0.00  0.00    +0.000 A 
ATOM     18  C   UNL     1       1.211  14.555  21.311  0.00  0.00    +0.000 A 
ATOM     19  C   UNL     1       2.483  14.808  20.800  0.00  0.00    +0.000 A 
ATOM     20  C   UNL     1       2.982  14.030  19.767  0.00  0.00    +0.000 A 
ATOM     21  C   UNL     1       2.219  12.978  19.254  0.00  0.00    +0.000 A 
ATOM     22 CL   UNL     1       2.797  12.104  17.903  0.00  0.00    +0.000 Cl
ATOM     23  C   UNL     1       0.946  12.651  19.779  0.00  0.00    +0.000 A 
ENDBRANCH   7   9
ENDBRANCH   4   7
BRANCH   1  24
ATOM     24  C   UNL     1       3.374   5.879  19.689  0.00  0.00    +0.000 C 
BRANCH  24  34
ATOM     25  C   UNL     1       1.529   3.826  18.335  0.00  0.00    +0.000 C 
ATOM     26  C   UNL     1       2.880   4.214  17.852  0.00  0.00    +0.000 A 
ATOM     27  N   UNL     1       3.464   3.715  16.783  0.00  0.00    +0.000 NA
ATOM     28  C   UNL     1       4.708   4.271  16.747  0.00  0.00    +0.000 A 
ATOM     29  N   UNL     1       5.645   4.007  15.811  0.00  0.00    +0.000 NA
ATOM     30  C   UNL     1       6.819   4.642  15.999  0.00  0.00    +0.000 A 
ATOM     31  C   UNL     1       7.116   5.494  17.056  0.00  0.00    +0.000 A 
ATOM     32  C   UNL     1       6.142   5.759  18.019  0.00  0.00    +0.000 A 
ATOM     33  C   UNL     1       4.910   5.131  17.822  0.00  0.00    +0.000 A 
ATOM     34  N   UNL     1       3.699   5.136  18.479  0.00  0.00    +0.000 N 
ENDBRANCH  24  34
ENDBRANCH   1  24
TORSDOF 4
ENDMDL
MODEL 5
REMARK VINA RESULT:      -8.9      2.519      3.673
REMARK  Name = 
REMARK  7 active torsions:
REMARK  status: ('A' for Active; 'I' for Inactive)
REMARK    1  A    between atoms: C_1  and  C_2
REMARK    2  A    between atoms: N_10  and  C_11
REMARK    3  A    between atoms: C_11  and  C_12
REMARK    4  A    between atoms: C_15  and  C_16
REMARK    5  A    between atoms: C_16  and  C_18
REMARK    6  A    between atoms: N_23  and  C_24
REMARK    7  A    between atoms: N_23  and  C_25
REMARK                            x       y       z     vdW  Elec       q    Type
REMARK                         _______ _______ _______ _____ _____    ______ ____
ROOT
ATOM      1  C   UNL     1       2.351   7.106  19.624  0.00  0.00    +0.000 A 
ATOM      2  C   UNL     1       1.586   7.742  20.614  0.00  0.00    +0.000 A 
ATOM      3  C   UNL     1       1.009   8.994  20.368  0.00  0.00    +0.000 A 
ATOM      4  C   UNL     1       1.167   9.622  19.125  0.00  0.00    +0.000 A 
ATOM      5  C   UNL     1       1.922   8.988  18.133  0.00  0.00    +0.000 A 
ATOM      6  C   UNL     1       2.502   7.740  18.382  0.00  0.00    +0.000 A 
ENDROOT
BRANCH   4   7
ATOM      7  C   UNL     1       0.565  10.974  18.924  0.00  0.00    +0.000 C 
ATOM      8  O   UNL     1      -0.382  11.083  18.151  0.00  0.00    +0.000 OA
BRANCH   7   9
ATOM      9  C   UNL     1       1.151  12.136  19.592  0.00  0.00    +0.000 A 
ATOM     10  C   UNL     1       2.338  12.741  19.208  0.00  0.00    +0.000 A 
ATOM     11  N   UNL     1       2.564  13.867  19.979  0.00  0.00    +0.000 N 
ATOM     12  C   UNL     1       3.698  14.710  19.970  0.00  0.00    +0.000 C 
ATOM     13  O   UNL     1       4.192  15.015  21.050  0.00  0.00    +0.000 OA
ATOM     14  N   UNL     1       4.148  15.150  18.726  0.00  0.00    +0.000 N 
ATOM     15  C   UNL     1       3.424  15.106  17.459  0.00  0.00    +0.000 C 
ATOM     16  C   UNL     1       5.299  16.042  18.735  0.00  0.00    +0.000 C 
ATOM     17  C   UNL     1       1.519  13.972  20.896  0.00  0.00    +0.000 A 
ATOM     18  C   UNL     1       1.288  14.963  21.873  0.00  0.00    +0.000 A 
ATOM     19  C   UNL     1       0.150  14.887  22.675  0.00  0.00    +0.000 A 
ATOM     20  C   UNL     1      -0.730  13.825  22.529  0.00  0.00    +0.000 A 
ATOM     21  C   UNL     1      -0.488  12.845  21.563  0.00  0.00    +0.000 A 
ATOM     22 CL   UNL     1      -1.516  11.482  21.475  0.00  0.00    +0.000 Cl
ATOM     23  C   UNL     1       0.625  12.912  20.691  0.00  0.00    +0.000 A 
ENDBRANCH   7   9
ENDBRANCH   4   7
BRANCH   1  24
ATOM     24  C   UNL     1       3.069   5.806  19.905  0.00  0.00    +0.000 C 
BRANCH  24  34
ATOM     25  C   UNL     1       1.547   4.223  17.754  0.00  0.00    +0.000 C 
ATOM     26  C   UNL     1       3.007   4.497  17.744  0.00  0.00    +0.000 A 
ATOM     27  N   UNL     1       3.839   4.083  16.811  0.00  0.00    +0.000 NA
ATOM     28  C   UNL     1       5.079   4.474  17.222  0.00  0.00    +0.000 A 
ATOM     29  N   UNL     1       6.227   4.227  16.555  0.00  0.00    +0.000 NA
ATOM     30  C   UNL     1       7.340   4.671  17.170  0.00  0.00    +0.000 A 
ATOM     31  C   UNL     1       7.379   5.318  18.399  0.00  0.00    +0.000 A 
ATOM     32  C   UNL     1       6.188   5.568  19.082  0.00  0.00    +0.000 A 
ATOM     33  C   UNL     1       5.022   5.139  18.443  0.00  0.00    +0.000 A 
ATOM     34  N   UNL     1       3.676   5.207  18.725  0.00  0.00    +0.000 N 
ENDBRANCH  24  34
ENDBRANCH   1  24
TORSDOF 4
ENDMDL
MODEL 6
REMARK VINA RESULT:      -8.8      1.922      2.923
REMARK  Name = 
REMARK  7 active torsions:
REMARK  status: ('A' for Active; 'I' for Inactive)
REMARK    1  A    between atoms: C_1  and  C_2
REMARK    2  A    between atoms: N_10  and  C_11
REMARK    3  A    between atoms: C_11  and  C_12
REMARK    4  A    between atoms: C_15  and  C_16
REMARK    5  A    between atoms: C_16  and  C_18
REMARK    6  A    between atoms: N_23  and  C_24
REMARK    7  A    between atoms: N_23  and  C_25
REMARK                            x       y       z     vdW  Elec       q    Type
REMARK                         _______ _______ _______ _____ _____    ______ ____
ROOT
ATOM      1  C   UNL     1       1.829   8.151  19.794  0.00  0.00    +0.000 A 
ATOM      2  C   UNL     1       1.043   8.819  20.745  0.00  0.00    +0.000 A 
ATOM      3  C   UNL     1       0.329   9.971  20.391  0.00  0.00    +0.000 A 
ATOM      4  C   UNL     1       0.371  10.462  19.078  0.00  0.00    +0.000 A 
ATOM      5  C   UNL     1       1.148   9.795  18.126  0.00  0.00    +0.000 A 
ATOM      6  C   UNL     1       1.864   8.648  18.483  0.00  0.00    +0.000 A 
ENDROOT
BRANCH   4   7
ATOM      7  C   UNL     1      -0.376  11.715  18.759  0.00  0.00    +0.000 C 
ATOM      8  O   UNL     1       0.202  12.597  18.130  0.00  0.00    +0.000 OA
BRANCH   7   9
ATOM      9  C   UNL     1      -1.742  11.892  19.255  0.00  0.00    +0.000 A 
ATOM     10  C   UNL     1      -2.059  12.401  20.505  0.00  0.00    +0.000 A 
ATOM     11  N   UNL     1      -3.431  12.530  20.627  0.00  0.00    +0.000 N 
ATOM     12  C   UNL     1      -4.166  12.923  21.768  0.00  0.00    +0.000 C 
ATOM     13  O   UNL     1      -5.141  12.247  22.080  0.00  0.00    +0.000 OA
ATOM     14  N   UNL     1      -3.736  14.070  22.432  0.00  0.00    +0.000 N 
ATOM     15  C   UNL     1      -2.817  15.088  21.931  0.00  0.00    +0.000 C 
ATOM     16  C   UNL     1      -4.521  14.479  23.588  0.00  0.00    +0.000 C 
ATOM     17  C   UNL     1      -4.009  12.067  19.445  0.00  0.00    +0.000 A 
ATOM     18  C   UNL     1      -5.371  12.022  19.079  0.00  0.00    +0.000 A 
ATOM     19  C   UNL     1      -5.728  11.540  17.820  0.00  0.00    +0.000 A 
ATOM     20  C   UNL     1      -4.750  11.082  16.950  0.00  0.00    +0.000 A 
ATOM     21  C   UNL     1      -3.405  11.126  17.325  0.00  0.00    +0.000 A 
ATOM     22 CL   UNL     1      -2.223  10.451  16.292  0.00  0.00    +0.000 Cl
ATOM     23  C   UNL     1      -2.992  11.658  18.571  0.00  0.00    +0.000 A 
ENDBRANCH   7   9
ENDBRANCH   4   7
BRANCH   1  24
ATOM     24  C   UNL     1       2.690   6.970  20.181  0.00  0.00    +0.000 C 
BRANCH  24  34
ATOM     25  C   UNL     1       4.155   6.995  17.479  0.00  0.00    +0.000 C 
ATOM     26  C   UNL     1       3.323   5.876  17.993  0.00  0.00    +0.000 A 
ATOM     27  N   UNL     1       3.099   4.752  17.345  0.00  0.00    +0.000 NA
ATOM     28  C   UNL     1       2.230   4.044  18.121  0.00  0.00    +0.000 A 
ATOM     29  N   UNL     1       1.726   2.831  17.808  0.00  0.00    +0.000 NA
ATOM     30  C   UNL     1       0.852   2.338  18.707  0.00  0.00    +0.000 A 
ATOM     31  C   UNL     1       0.442   2.979  19.870  0.00  0.00    +0.000 A 
ATOM     32  C   UNL     1       0.967   4.232  20.185  0.00  0.00    +0.000 A 
ATOM     33  C   UNL     1       1.898   4.744  19.277  0.00  0.00    +0.000 A 
ATOM     34  N   UNL     1       2.666   5.886  19.210  0.00  0.00    +0.000 N 
ENDBRANCH  24  34
ENDBRANCH   1  24
TORSDOF 4
ENDMDL
MODEL 7
REMARK VINA RESULT:      -8.7      2.732      9.759
REMARK  Name = 
REMARK  7 active torsions:
REMARK  status: ('A' for Active; 'I' for Inactive)
REMARK    1  A    between atoms: C_1  and  C_2
REMARK    2  A    between atoms: N_10  and  C_11
REMARK    3  A    between atoms: C_11  and  C_12
REMARK    4  A    between atoms: C_15  and  C_16
REMARK    5  A    between atoms: C_16  and  C_18
REMARK    6  A    between atoms: N_23  and  C_24
REMARK    7  A    between atoms: N_23  and  C_25
REMARK                            x       y       z     vdW  Elec       q    Type
REMARK                         _______ _______ _______ _____ _____    ______ ____
ROOT
ATOM      1  C   UNL     1       1.028  10.514  18.971  0.00  0.00    +0.000 A 
ATOM      2  C   UNL     1       0.854  10.028  20.276  0.00  0.00    +0.000 A 
ATOM      3  C   UNL     1       1.267   8.733  20.612  0.00  0.00    +0.000 A 
ATOM      4  C   UNL     1       1.881   7.909  19.658  0.00  0.00    +0.000 A 
ATOM      5  C   UNL     1       2.064   8.392  18.358  0.00  0.00    +0.000 A 
ATOM      6  C   UNL     1       1.645   9.683  18.023  0.00  0.00    +0.000 A 
ENDROOT
BRANCH   4   7
ATOM      7  C   UNL     1       2.269   6.522  20.054  0.00  0.00    +0.000 C 
ATOM      8  O   UNL     1       2.093   6.175  21.218  0.00  0.00    +0.000 OA
BRANCH   7   9
ATOM      9  C   UNL     1       2.906   5.640  19.075  0.00  0.00    +0.000 A 
ATOM     10  C   UNL     1       3.888   6.042  18.183  0.00  0.00    +0.000 A 
ATOM     11  N   UNL     1       4.349   4.953  17.466  0.00  0.00    +0.000 N 
ATOM     12  C   UNL     1       5.277   4.947  16.400  0.00  0.00    +0.000 C 
ATOM     13  O   UNL     1       4.989   4.305  15.396  0.00  0.00    +0.000 OA
ATOM     14  N   UNL     1       6.463   5.653  16.593  0.00  0.00    +0.000 N 
ATOM     15  C   UNL     1       7.005   6.142  17.858  0.00  0.00    +0.000 C 
ATOM     16  C   UNL     1       7.423   5.612  15.498  0.00  0.00    +0.000 C 
ATOM     17  C   UNL     1       3.628   3.834  17.882  0.00  0.00    +0.000 A 
ATOM     18  C   UNL     1       3.751   2.491  17.467  0.00  0.00    +0.000 A 
ATOM     19  C   UNL     1       2.938   1.516  18.043  0.00  0.00    +0.000 A 
ATOM     20  C   UNL     1       1.996   1.874  18.995  0.00  0.00    +0.000 A 
ATOM     21  C   UNL     1       1.878   3.207  19.394  0.00  0.00    +0.000 A 
ATOM     22 CL   UNL     1       0.634   3.651  20.480  0.00  0.00    +0.000 Cl
ATOM     23  C   UNL     1       2.720   4.221  18.877  0.00  0.00    +0.000 A 
ENDBRANCH   7   9
ENDBRANCH   4   7
BRANCH   1  24
ATOM     24  C   UNL     1       0.494  11.866  18.561  0.00  0.00    +0.000 C 
BRANCH  24  34
ATOM     25  C   UNL     1      -0.535  13.467  20.976  0.00  0.00    +0.000 C 
ATOM     26  C   UNL     1      -1.391  12.787  19.970  0.00  0.00    +0.000 A 
ATOM     27  N   UNL     1      -2.708  12.775  19.994  0.00  0.00    +0.000 NA
ATOM     28  C   UNL     1      -3.090  11.981  18.954  0.00  0.00    +0.000 A 
ATOM     29  N   UNL     1      -4.370  11.687  18.636  0.00  0.00    +0.000 NA
ATOM     30  C   UNL     1      -4.509  10.848  17.592  0.00  0.00    +0.000 A 
ATOM     31  C   UNL     1      -3.467  10.277  16.870  0.00  0.00    +0.000 A 
ATOM     32  C   UNL     1      -2.150  10.585  17.207  0.00  0.00    +0.000 A 
ATOM     33  C   UNL     1      -1.988  11.478  18.269  0.00  0.00    +0.000 A 
ATOM     34  N   UNL     1      -0.910  12.065  18.893  0.00  0.00    +0.000 N 
ENDBRANCH  24  34
ENDBRANCH   1  24
TORSDOF 4
ENDMDL
MODEL 8
REMARK VINA RESULT:      -8.7      1.052      1.584
REMARK  Name = 
REMARK  7 active torsions:
REMARK  status: ('A' for Active; 'I' for Inactive)
REMARK    1  A    between atoms: C_1  and  C_2
REMARK    2  A    between atoms: N_10  and  C_11
REMARK    3  A    between atoms: C_11  and  C_12
REMARK    4  A    between atoms: C_15  and  C_16
REMARK    5  A    between atoms: C_16  and  C_18
REMARK    6  A    between atoms: N_23  and  C_24
REMARK    7  A    between atoms: N_23  and  C_25
REMARK                            x       y       z     vdW  Elec       q    Type
REMARK                         _______ _______ _______ _____ _____    ______ ____
ROOT
ATOM      1  C   UNL     1       2.075   7.420  18.561  0.00  0.00    +0.000 A 
ATOM      2  C   UNL     1       2.276   8.378  17.555  0.00  0.00    +0.000 A 
ATOM      3  C   UNL     1       1.974   9.726  17.789  0.00  0.00    +0.000 A 
ATOM      4  C   UNL     1       1.487  10.143  19.035  0.00  0.00    +0.000 A 
ATOM      5  C   UNL     1       1.292   9.193  20.042  0.00  0.00    +0.000 A 
ATOM      6  C   UNL     1       1.589   7.847  19.806  0.00  0.00    +0.000 A 
ENDROOT
BRANCH   4   7
ATOM      7  C   UNL     1       1.143  11.584  19.223  0.00  0.00    +0.000 C 
ATOM      8  O   UNL     1       1.903  12.432  18.764  0.00  0.00    +0.000 OA
BRANCH   7   9
ATOM      9  C   UNL     1      -0.042  11.952  19.999  0.00  0.00    +0.000 A 
ATOM     10  C   UNL     1      -0.003  12.510  21.267  0.00  0.00    +0.000 A 
ATOM     11  N   UNL     1      -1.283  12.829  21.682  0.00  0.00    +0.000 N 
ATOM     12  C   UNL     1      -1.687  13.328  22.941  0.00  0.00    +0.000 C 
ATOM     13  O   UNL     1      -2.649  12.796  23.484  0.00  0.00    +0.000 OA
ATOM     14  N   UNL     1      -0.970  14.409  23.450  0.00  0.00    +0.000 N 
ATOM     15  C   UNL     1      -0.058  15.287  22.722  0.00  0.00    +0.000 C 
ATOM     16  C   UNL     1      -1.418  14.932  24.734  0.00  0.00    +0.000 C 
ATOM     17  C   UNL     1      -2.166  12.441  20.674  0.00  0.00    +0.000 A 
ATOM     18  C   UNL     1      -3.568  12.582  20.617  0.00  0.00    +0.000 A 
ATOM     19  C   UNL     1      -4.258  12.145  19.487  0.00  0.00    +0.000 A 
ATOM     20  C   UNL     1      -3.568  11.550  18.441  0.00  0.00    +0.000 A 
ATOM     21  C   UNL     1      -2.180  11.410  18.511  0.00  0.00    +0.000 A 
ATOM     22 CL   UNL     1      -1.358  10.569  17.270  0.00  0.00    +0.000 Cl
ATOM     23  C   UNL     1      -1.433  11.888  19.615  0.00  0.00    +0.000 A 
ENDBRANCH   7   9
ENDBRANCH   4   7
BRANCH   1  24
ATOM     24  C   UNL     1       2.294   5.949  18.295  0.00  0.00    +0.000 C 
BRANCH  24  34
ATOM     25  C   UNL     1       2.630   4.148  20.764  0.00  0.00    +0.000 C 
ATOM     26  C   UNL     1       3.736   4.632  19.898  0.00  0.00    +0.000 A 
ATOM     27  N   UNL     1       5.010   4.357  20.089  0.00  0.00    +0.000 NA
ATOM     28  C   UNL     1       5.687   5.056  19.134  0.00  0.00    +0.000 A 
ATOM     29  N   UNL     1       7.030   5.067  18.991  0.00  0.00    +0.000 NA
ATOM     30  C   UNL     1       7.482   5.863  18.003  0.00  0.00    +0.000 A 
ATOM     31  C   UNL     1       6.691   6.651  17.176  0.00  0.00    +0.000 A 
ATOM     32  C   UNL     1       5.305   6.634  17.332  0.00  0.00    +0.000 A 
ATOM     33  C   UNL     1       4.818   5.790  18.333  0.00  0.00    +0.000 A 
ATOM     34  N   UNL     1       3.566   5.448  18.794  0.00  0.00    +0.000 N 
ENDBRANCH  24  34
ENDBRANCH   1  24
TORSDOF 4
ENDMDL
MODEL 9
REMARK VINA RESULT:      -8.6      2.174      2.976
REMARK  Name = 
REMARK  7 active torsions:
REMARK  status: ('A' for Active; 'I' for Inactive)
REMARK    1  A    between atoms: C_1  and  C_2
REMARK    2  A    between atoms: N_10  and  C_11
REMARK    3  A    between atoms: C_11  and  C_12
REMARK    4  A    between atoms: C_15  and  C_16
REMARK    5  A    between atoms: C_16  and  C_18
REMARK    6  A    between atoms: N_23  and  C_24
REMARK    7  A    between atoms: N_23  and  C_25
REMARK                            x       y       z     vdW  Elec       q    Type
REMARK                         _______ _______ _______ _____ _____    ______ ____
ROOT
ATOM      1  C   UNL     1       2.315   7.059  19.671  0.00  0.00    +0.000 A 
ATOM      2  C   UNL     1       2.406   7.660  18.406  0.00  0.00    +0.000 A 
ATOM      3  C   UNL     1       1.755   8.873  18.149  0.00  0.00    +0.000 A 
ATOM      4  C   UNL     1       1.021   9.517  19.155  0.00  0.00    +0.000 A 
ATOM      5  C   UNL     1       0.934   8.925  20.419  0.00  0.00    +0.000 A 
ATOM      6  C   UNL     1       1.580   7.712  20.672  0.00  0.00    +0.000 A 
ENDROOT
BRANCH   4   7
ATOM      7  C   UNL     1       0.313  10.789  18.821  0.00  0.00    +0.000 C 
ATOM      8  O   UNL     1      -0.429  10.806  17.843  0.00  0.00    +0.000 OA
BRANCH   7   9
ATOM      9  C   UNL     1       0.567  11.991  19.615  0.00  0.00    +0.000 A 
ATOM     10  C   UNL     1       1.831  12.466  19.931  0.00  0.00    +0.000 A 
ATOM     11  N   UNL     1       1.728  13.668  20.607  0.00  0.00    +0.000 N 
ATOM     12  C   UNL     1       2.769  14.431  21.182  0.00  0.00    +0.000 C 
ATOM     13  O   UNL     1       2.609  14.846  22.325  0.00  0.00    +0.000 OA
ATOM     14  N   UNL     1       3.887  14.673  20.386  0.00  0.00    +0.000 N 
ATOM     15  C   UNL     1       3.996  14.506  18.940  0.00  0.00    +0.000 C 
ATOM     16  C   UNL     1       4.939  15.486  20.982  0.00  0.00    +0.000 C 
ATOM     17  C   UNL     1       0.372  13.958  20.756  0.00  0.00    +0.000 A 
ATOM     18  C   UNL     1      -0.238  15.083  21.350  0.00  0.00    +0.000 A 
ATOM     19  C   UNL     1      -1.628  15.183  21.365  0.00  0.00    +0.000 A 
ATOM     20  C   UNL     1      -2.403  14.168  20.824  0.00  0.00    +0.000 A 
ATOM     21  C   UNL     1      -1.789  13.056  20.244  0.00  0.00    +0.000 A 
ATOM     22 CL   UNL     1      -2.754  11.759  19.688  0.00  0.00    +0.000 Cl
ATOM     23  C   UNL     1      -0.380  12.937  20.157  0.00  0.00    +0.000 A 
ENDBRANCH   7   9
ENDBRANCH   4   7
BRANCH   1  24
ATOM     24  C   UNL     1       2.921   5.701  19.937  0.00  0.00    +0.000 C 
BRANCH  24  34
ATOM     25  C   UNL     1       1.461   4.009  17.826  0.00  0.00    +0.000 C 
ATOM     26  C   UNL     1       2.908   4.344  17.805  0.00  0.00    +0.000 A 
ATOM     27  N   UNL     1       3.755   3.945  16.878  0.00  0.00    +0.000 NA
ATOM     28  C   UNL     1       4.978   4.395  17.277  0.00  0.00    +0.000 A 
ATOM     29  N   UNL     1       6.134   4.181  16.612  0.00  0.00    +0.000 NA
ATOM     30  C   UNL     1       7.229   4.684  17.214  0.00  0.00    +0.000 A 
ATOM     31  C   UNL     1       7.244   5.359  18.429  0.00  0.00    +0.000 A 
ATOM     32  C   UNL     1       6.046   5.573  19.109  0.00  0.00    +0.000 A 
ATOM     33  C   UNL     1       4.897   5.084  18.483  0.00  0.00    +0.000 A 
ATOM     34  N   UNL     1       3.549   5.102  18.769  0.00  0.00    +0.000 N 
ENDBRANCH  24  34
ENDBRANCH   1  24
TORSDOF 4
ENDMDL
