MODEL 1
REMARK VINA RESULT:      -7.0      0.000      0.000
REMARK  Name = 
REMARK  3 active torsions:
REMARK  status: ('A' for Active; 'I' for Inactive)
REMARK    1  A    between atoms: C_1  and  C_2
REMARK    2  A    between atoms: C_4  and  C_5
REMARK    3  A    between atoms: C_4  and  C_6
REMARK                            x       y       z     vdW  Elec       q    Type
REMARK                         _______ _______ _______ _____ _____    ______ ____
ROOT
ATOM      1  C   UNL     1       3.543   7.430  17.589  0.00  0.00    +0.000 C 
ATOM      2  C   UNL     1       4.205   6.087  17.384  0.00  0.00    +0.000 C 
ATOM      3  C   UNL     1       5.491   6.037  16.985  0.00  0.00    +0.000 C 
ATOM      4  C   UNL     1       6.250   4.746  16.722  0.00  0.00    +0.000 C 
ATOM      5  C   UNL     1       7.434   4.658  17.697  0.00  0.00    +0.000 C 
ATOM      6  C   UNL     1       6.768   4.783  15.275  0.00  0.00    +0.000 C 
ATOM      7  N   UNL     1       5.423   3.559  16.903  0.00  0.00    +0.000 N 
ATOM      8  C   UNL     1       4.080   3.599  17.366  0.00  0.00    +0.000 A 
ATOM      9  C   UNL     1       3.385   2.397  17.584  0.00  0.00    +0.000 A 
ATOM     10  C   UNL     1       2.074   2.418  18.065  0.00  0.00    +0.000 A 
ATOM     11  C   UNL     1       1.449   3.637  18.330  0.00  0.00    +0.000 A 
ATOM     12  C   UNL     1       2.128   4.837  18.106  0.00  0.00    +0.000 A 
ATOM     13  C   UNL     1       3.453   4.829  17.622  0.00  0.00    +0.000 A 
ATOM     14  H   UNL     1       5.856   2.638  16.724  0.00  0.00    +0.000 HD
ENDROOT
TORSDOF 0
ENDMDL
MODEL 2
REMARK VINA RESULT:      -6.6      1.709      1.738
REMARK  Name = 
REMARK  3 active torsions:
REMARK  status: ('A' for Active; 'I' for Inactive)
REMARK    1  A    between atoms: C_1  and  C_2
REMARK    2  A    between atoms: C_4  and  C_5
REMARK    3  A    between atoms: C_4  and  C_6
REMARK                            x       y       z     vdW  Elec       q    Type
REMARK                         _______ _______ _______ _____ _____    ______ ____
ROOT
ATOM      1  C   UNL     1       3.039   7.220  18.039  0.00  0.00    +0.000 C 
ATOM      2  C   UNL     1       3.961   6.047  18.279  0.00  0.00    +0.000 C 
ATOM      3  C   UNL     1       5.176   6.031  17.699  0.00  0.00    +0.000 C 
ATOM      4  C   UNL     1       6.175   4.893  17.847  0.00  0.00    +0.000 C 
ATOM      5  C   UNL     1       7.443   5.431  18.528  0.00  0.00    +0.000 C 
ATOM      6  C   UNL     1       6.518   4.373  16.442  0.00  0.00    +0.000 C 
ATOM      7  N   UNL     1       5.658   3.792  18.651  0.00  0.00    +0.000 N 
ATOM      8  C   UNL     1       4.396   3.819  19.304  0.00  0.00    +0.000 A 
ATOM      9  C   UNL     1       4.016   2.741  20.122  0.00  0.00    +0.000 A 
ATOM     10  C   UNL     1       2.791   2.764  20.792  0.00  0.00    +0.000 A 
ATOM     11  C   UNL     1       1.939   3.859  20.650  0.00  0.00    +0.000 A 
ATOM     12  C   UNL     1       2.304   4.930  19.831  0.00  0.00    +0.000 A 
ATOM     13  C   UNL     1       3.539   4.920  19.150  0.00  0.00    +0.000 A 
ATOM     14  H   UNL     1       6.266   2.967  18.786  0.00  0.00    +0.000 HD
ENDROOT
TORSDOF 0
ENDMDL
MODEL 3
REMARK VINA RESULT:      -6.5      0.948      1.107
REMARK  Name = 
REMARK  3 active torsions:
REMARK  status: ('A' for Active; 'I' for Inactive)
REMARK    1  A    between atoms: C_1  and  C_2
REMARK    2  A    between atoms: C_4  and  C_5
REMARK    3  A    between atoms: C_4  and  C_6
REMARK                            x       y       z     vdW  Elec       q    Type
REMARK                         _______ _______ _______ _____ _____    ______ ____
ROOT
ATOM      1  C   UNL     1       3.429   7.364  17.252  0.00  0.00    +0.000 C 
ATOM      2  C   UNL     1       4.192   6.135  17.689  0.00  0.00    +0.000 C 
ATOM      3  C   UNL     1       5.533   6.195  17.804  0.00  0.00    +0.000 C 
ATOM      4  C   UNL     1       6.406   5.018  18.210  0.00  0.00    +0.000 C 
ATOM      5  C   UNL     1       7.126   5.362  19.523  0.00  0.00    +0.000 C 
ATOM      6  C   UNL     1       7.438   4.782  17.096  0.00  0.00    +0.000 C 
ATOM      7  N   UNL     1       5.640   3.794  18.418  0.00  0.00    +0.000 N 
ATOM      8  C   UNL     1       4.222   3.731  18.342  0.00  0.00    +0.000 A 
ATOM      9  C   UNL     1       3.565   2.524  18.635  0.00  0.00    +0.000 A 
ATOM     10  C   UNL     1       2.172   2.452  18.592  0.00  0.00    +0.000 A 
ATOM     11  C   UNL     1       1.426   3.582  18.256  0.00  0.00    +0.000 A 
ATOM     12  C   UNL     1       2.070   4.783  17.954  0.00  0.00    +0.000 A 
ATOM     13  C   UNL     1       3.477   4.869  17.996  0.00  0.00    +0.000 A 
ATOM     14  H   UNL     1       6.159   2.939  18.677  0.00  0.00    +0.000 HD
ENDROOT
TORSDOF 0
ENDMDL
MODEL 4
REMARK VINA RESULT:      -6.4      1.819      4.285
REMARK  Name = 
REMARK  3 active torsions:
REMARK  status: ('A' for Active; 'I' for Inactive)
REMARK    1  A    between atoms: C_1  and  C_2
REMARK    2  A    between atoms: C_4  and  C_5
REMARK    3  A    between atoms: C_4  and  C_6
REMARK                            x       y       z     vdW  Elec       q    Type
REMARK                         _______ _______ _______ _____ _____    ______ ____
ROOT
ATOM      1  C   UNL     1       2.208   7.398  19.731  0.00  0.00    +0.000 C 
ATOM      2  C   UNL     1       2.470   5.944  19.413  0.00  0.00    +0.000 C 
ATOM      3  C   UNL     1       1.838   4.988  20.121  0.00  0.00    +0.000 C 
ATOM      4  C   UNL     1       2.043   3.496  19.907  0.00  0.00    +0.000 C 
ATOM      5  C   UNL     1       0.708   2.868  19.475  0.00  0.00    +0.000 C 
ATOM      6  C   UNL     1       2.501   2.881  21.239  0.00  0.00    +0.000 C 
ATOM      7  N   UNL     1       3.036   3.205  18.880  0.00  0.00    +0.000 N 
ATOM      8  C   UNL     1       3.674   4.205  18.097  0.00  0.00    +0.000 A 
ATOM      9  C   UNL     1       4.562   3.825  17.076  0.00  0.00    +0.000 A 
ATOM     10  C   UNL     1       5.177   4.794  16.280  0.00  0.00    +0.000 A 
ATOM     11  C   UNL     1       4.911   6.145  16.499  0.00  0.00    +0.000 A 
ATOM     12  C   UNL     1       4.039   6.533  17.518  0.00  0.00    +0.000 A 
ATOM     13  C   UNL     1       3.410   5.564  18.327  0.00  0.00    +0.000 A 
ATOM     14  H   UNL     1       3.251   2.214  18.684  0.00  0.00    +0.000 HD
ENDROOT
TORSDOF 0
ENDMDL
MODEL 5
REMARK VINA RESULT:      -6.4      1.728      1.862
REMARK  Name = 
REMARK  3 active torsions:
REMARK  status: ('A' for Active; 'I' for Inactive)
REMARK    1  A    between atoms: C_1  and  C_2
REMARK    2  A    between atoms: C_4  and  C_5
REMARK    3  A    between atoms: C_4  and  C_6
REMARK                            x       y       z     vdW  Elec       q    Type
REMARK                         _______ _______ _______ _____ _____    ______ ____
ROOT
ATOM      1  C   UNL     1       2.661   7.290  18.699  0.00  0.00    +0.000 C 
ATOM      2  C   UNL     1       3.312   5.934  18.556  0.00  0.00    +0.000 C 
ATOM      3  C   UNL     1       4.385   5.796  17.753  0.00  0.00    +0.000 C 
ATOM      4  C   UNL     1       5.103   4.478  17.512  0.00  0.00    +0.000 C 
ATOM      5  C   UNL     1       6.552   4.603  18.010  0.00  0.00    +0.000 C 
ATOM      6  C   UNL     1       5.094   4.198  16.000  0.00  0.00    +0.000 C 
ATOM      7  N   UNL     1       4.478   3.360  18.208  0.00  0.00    +0.000 N 
ATOM      8  C   UNL     1       3.373   3.502  19.091  0.00  0.00    +0.000 A 
ATOM      9  C   UNL     1       2.886   2.376  19.778  0.00  0.00    +0.000 A 
ATOM     10  C   UNL     1       1.819   2.504  20.670  0.00  0.00    +0.000 A 
ATOM     11  C   UNL     1       1.232   3.751  20.881  0.00  0.00    +0.000 A 
ATOM     12  C   UNL     1       1.703   4.873  20.196  0.00  0.00    +0.000 A 
ATOM     13  C   UNL     1       2.781   4.758  19.293  0.00  0.00    +0.000 A 
ATOM     14  H   UNL     1       4.892   2.421  18.083  0.00  0.00    +0.000 HD
ENDROOT
TORSDOF 0
ENDMDL
MODEL 6
REMARK VINA RESULT:      -6.4      1.498      4.135
REMARK  Name = 
REMARK  3 active torsions:
REMARK  status: ('A' for Active; 'I' for Inactive)
REMARK    1  A    between atoms: C_1  and  C_2
REMARK    2  A    between atoms: C_4  and  C_5
REMARK    3  A    between atoms: C_4  and  C_6
REMARK                            x       y       z     vdW  Elec       q    Type
REMARK                         _______ _______ _______ _____ _____    ______ ____
ROOT
ATOM      1  C   UNL     1       2.246   6.380  18.072  0.00  0.00    +0.000 C 
ATOM      2  C   UNL     1       3.286   5.305  18.292  0.00  0.00    +0.000 C 
ATOM      3  C   UNL     1       2.902   4.096  18.744  0.00  0.00    +0.000 C 
ATOM      4  C   UNL     1       3.861   2.949  19.027  0.00  0.00    +0.000 C 
ATOM      5  C   UNL     1       3.515   1.773  18.101  0.00  0.00    +0.000 C 
ATOM      6  C   UNL     1       3.682   2.528  20.494  0.00  0.00    +0.000 C 
ATOM      7  N   UNL     1       5.255   3.312  18.800  0.00  0.00    +0.000 N 
ATOM      8  C   UNL     1       5.666   4.570  18.281  0.00  0.00    +0.000 A 
ATOM      9  C   UNL     1       7.028   4.802  18.023  0.00  0.00    +0.000 A 
ATOM     10  C   UNL     1       7.445   6.022  17.488  0.00  0.00    +0.000 A 
ATOM     11  C   UNL     1       6.509   7.017  17.208  0.00  0.00    +0.000 A 
ATOM     12  C   UNL     1       5.155   6.800  17.471  0.00  0.00    +0.000 A 
ATOM     13  C   UNL     1       4.720   5.571  18.010  0.00  0.00    +0.000 A 
ATOM     14  H   UNL     1       5.976   2.597  18.988  0.00  0.00    +0.000 HD
ENDROOT
TORSDOF 0
ENDMDL
MODEL 7
REMARK VINA RESULT:      -6.3      1.444      3.831
REMARK  Name = 
REMARK  3 active torsions:
REMARK  status: ('A' for Active; 'I' for Inactive)
REMARK    1  A    between atoms: C_1  and  C_2
REMARK    2  A    between atoms: C_4  and  C_5
REMARK    3  A    between atoms: C_4  and  C_6
REMARK                            x       y       z     vdW  Elec       q    Type
REMARK                         _______ _______ _______ _____ _____    ______ ____
ROOT
ATOM      1  C   UNL     1       2.781   6.628  19.299  0.00  0.00    +0.000 C 
ATOM      2  C   UNL     1       3.334   5.339  18.738  0.00  0.00    +0.000 C 
ATOM      3  C   UNL     1       3.056   4.174  19.355  0.00  0.00    +0.000 C 
ATOM      4  C   UNL     1       3.579   2.822  18.896  0.00  0.00    +0.000 C 
ATOM      5  C   UNL     1       2.386   1.930  18.518  0.00  0.00    +0.000 C 
ATOM      6  C   UNL     1       4.354   2.189  20.063  0.00  0.00    +0.000 C 
ATOM      7  N   UNL     1       4.458   2.922  17.737  0.00  0.00    +0.000 N 
ATOM      8  C   UNL     1       4.722   4.139  17.053  0.00  0.00    +0.000 A 
ATOM      9  C   UNL     1       5.522   4.125  15.897  0.00  0.00    +0.000 A 
ATOM     10  C   UNL     1       5.769   5.308  15.197  0.00  0.00    +0.000 A 
ATOM     11  C   UNL     1       5.222   6.510  15.645  0.00  0.00    +0.000 A 
ATOM     12  C   UNL     1       4.434   6.535  16.798  0.00  0.00    +0.000 A 
ATOM     13  C   UNL     1       4.176   5.347  17.513  0.00  0.00    +0.000 A 
ATOM     14  H   UNL     1       4.874   2.050  17.371  0.00  0.00    +0.000 HD
ENDROOT
TORSDOF 0
ENDMDL
MODEL 8
REMARK VINA RESULT:      -6.3      1.244      1.477
REMARK  Name = 
REMARK  3 active torsions:
REMARK  status: ('A' for Active; 'I' for Inactive)
REMARK    1  A    between atoms: C_1  and  C_2
REMARK    2  A    between atoms: C_4  and  C_5
REMARK    3  A    between atoms: C_4  and  C_6
REMARK                            x       y       z     vdW  Elec       q    Type
REMARK                         _______ _______ _______ _____ _____    ______ ____
ROOT
ATOM      1  C   UNL     1       2.475   7.035  19.476  0.00  0.00    +0.000 C 
ATOM      2  C   UNL     1       3.137   5.904  18.726  0.00  0.00    +0.000 C 
ATOM      3  C   UNL     1       4.283   6.135  18.056  0.00  0.00    +0.000 C 
ATOM      4  C   UNL     1       5.023   5.081  17.246  0.00  0.00    +0.000 C 
ATOM      5  C   UNL     1       6.416   4.870  17.860  0.00  0.00    +0.000 C 
ATOM      6  C   UNL     1       5.161   5.597  15.805  0.00  0.00    +0.000 C 
ATOM      7  N   UNL     1       4.334   3.796  17.230  0.00  0.00    +0.000 N 
ATOM      8  C   UNL     1       3.148   3.530  17.969  0.00  0.00    +0.000 A 
ATOM      9  C   UNL     1       2.597   2.237  17.953  0.00  0.00    +0.000 A 
ATOM     10  C   UNL     1       1.449   1.952  18.694  0.00  0.00    +0.000 A 
ATOM     11  C   UNL     1       0.843   2.954  19.454  0.00  0.00    +0.000 A 
ATOM     12  C   UNL     1       1.378   4.244  19.468  0.00  0.00    +0.000 A 
ATOM     13  C   UNL     1       2.539   4.544  18.724  0.00  0.00    +0.000 A 
ATOM     14  H   UNL     1       4.758   3.028  16.685  0.00  0.00    +0.000 HD
ENDROOT
TORSDOF 0
ENDMDL
MODEL 9
REMARK VINA RESULT:      -6.1      1.659      1.793
REMARK  Name = 
REMARK  3 active torsions:
REMARK  status: ('A' for Active; 'I' for Inactive)
REMARK    1  A    between atoms: C_1  and  C_2
REMARK    2  A    between atoms: C_4  and  C_5
REMARK    3  A    between atoms: C_4  and  C_6
REMARK                            x       y       z     vdW  Elec       q    Type
REMARK                         _______ _______ _______ _____ _____    ______ ____
ROOT
ATOM      1  C   UNL     1       2.448   7.955  18.094  0.00  0.00    +0.000 C 
ATOM      2  C   UNL     1       3.382   6.768  18.051  0.00  0.00    +0.000 C 
ATOM      3  C   UNL     1       4.432   6.783  17.206  0.00  0.00    +0.000 C 
ATOM      4  C   UNL     1       5.421   5.637  17.058  0.00  0.00    +0.000 C 
ATOM      5  C   UNL     1       6.819   6.133  17.458  0.00  0.00    +0.000 C 
ATOM      6  C   UNL     1       5.425   5.198  15.585  0.00  0.00    +0.000 C 
ATOM      7  N   UNL     1       5.087   4.493  17.897  0.00  0.00    +0.000 N 
ATOM      8  C   UNL     1       4.008   4.484  18.823  0.00  0.00    +0.000 A 
ATOM      9  C   UNL     1       3.810   3.362  19.646  0.00  0.00    +0.000 A 
ATOM     10  C   UNL     1       2.772   3.349  20.580  0.00  0.00    +0.000 A 
ATOM     11  C   UNL     1       1.926   4.451  20.698  0.00  0.00    +0.000 A 
ATOM     12  C   UNL     1       2.109   5.567  19.877  0.00  0.00    +0.000 A 
ATOM     13  C   UNL     1       3.155   5.594  18.931  0.00  0.00    +0.000 A 
ATOM     14  H   UNL     1       5.697   3.661  17.843  0.00  0.00    +0.000 HD
ENDROOT
TORSDOF 0
ENDMDL
