MODEL 1
REMARK VINA RESULT:      -8.8      0.000      0.000
REMARK  Name = 
REMARK  7 active torsions:
REMARK  status: ('A' for Active; 'I' for Inactive)
REMARK    1  A    between atoms: N_6  and  C_7
REMARK    2  A    between atoms: C_7  and  C_8
REMARK    3  A    between atoms: C_8  and  C_9
REMARK    4  A    between atoms: C_9  and  O_10
REMARK    5  A    between atoms: O_10  and  C_11
REMARK    6  A    between atoms: C_18  and  C_19
REMARK    7  A    between atoms: C_19  and  C_20
REMARK                            x       y       z     vdW  Elec       q    Type
REMARK                         _______ _______ _______ _____ _____    ______ ____
ROOT
ATOM      1  O   UNL     1       3.557   3.493  16.400  0.00  0.00    +0.000 OA
ATOM      2  C   UNL     1       4.475   4.160  16.861  0.00  0.00    +0.000 A 
ATOM      3  N   UNL     1       5.780   3.862  16.600  0.00  0.00    +0.000 N 
ATOM      4  C   UNL     1       6.876   4.546  17.051  0.00  0.00    +0.000 A 
ATOM      5  O   UNL     1       8.008   4.177  16.746  0.00  0.00    +0.000 OA
ATOM      6  N   UNL     1       6.606   5.648  17.856  0.00  0.00    +0.000 N 
ATOM      7  C   UNL     1       5.311   6.004  18.182  0.00  0.00    +0.000 A 
ATOM      8  C   UNL     1       4.239   5.333  17.738  0.00  0.00    +0.000 A 
ATOM      9  H   UNL     1       5.960   3.062  16.014  0.00  0.00    +0.000 HD
ENDROOT
BRANCH   6  10
ATOM     10  C   UNL     1       7.731   6.419  18.389  0.00  0.00    +0.000 C 
BRANCH  10  11
ATOM     11  C   UNL     1       7.742   7.884  17.950  0.00  0.00    +0.000 C 
BRANCH  11  12
ATOM     12  C   UNL     1       8.776   8.705  18.710  0.00  0.00    +0.000 C 
BRANCH  12  13
ATOM     13  O   UNL     1       8.562  10.092  18.446  0.00  0.00    +0.000 OA
BRANCH  13  14
ATOM     14  C   UNL     1       9.587  10.933  18.794  0.00  0.00    +0.000 A 
ATOM     15  C   UNL     1      10.490  11.529  17.908  0.00  0.00    +0.000 A 
ATOM     16  C   UNL     1      11.497  12.370  18.389  0.00  0.00    +0.000 A 
ATOM     17  C   UNL     1      11.609  12.620  19.754  0.00  0.00    +0.000 A 
ATOM     18  C   UNL     1      10.714  12.029  20.643  0.00  0.00    +0.000 A 
ATOM     19  C   UNL     1       9.706  11.189  20.162  0.00  0.00    +0.000 A 
ENDBRANCH  13  14
ENDBRANCH  12  13
ENDBRANCH  11  12
ENDBRANCH  10  11
ENDBRANCH   6  10
BRANCH   8  20
ATOM     20  C   UNL     1       2.823   5.656  18.130  0.00  0.00    +0.000 C 
BRANCH  20  21
ATOM     21  C   UNL     1       2.259   4.717  19.173  0.00  0.00    +0.000 A 
ATOM     22  C   UNL     1       2.614   4.855  20.523  0.00  0.00    +0.000 A 
ATOM     23  C   UNL     1       2.134   3.958  21.478  0.00  0.00    +0.000 A 
ATOM     24  C   UNL     1       1.281   2.925  21.099  0.00  0.00    +0.000 A 
ATOM     25  C   UNL     1       0.892   2.798  19.767  0.00  0.00    +0.000 A 
ATOM     26  C   UNL     1       1.378   3.688  18.808  0.00  0.00    +0.000 A 
ENDBRANCH  20  21
ENDBRANCH   8  20
TORSDOF 7
ENDMDL
MODEL 2
REMARK VINA RESULT:      -8.7      0.461      1.069
REMARK  Name = 
REMARK  7 active torsions:
REMARK  status: ('A' for Active; 'I' for Inactive)
REMARK    1  A    between atoms: N_6  and  C_7
REMARK    2  A    between atoms: C_7  and  C_8
REMARK    3  A    between atoms: C_8  and  C_9
REMARK    4  A    between atoms: C_9  and  O_10
REMARK    5  A    between atoms: O_10  and  C_11
REMARK    6  A    between atoms: C_18  and  C_19
REMARK    7  A    between atoms: C_19  and  C_20
REMARK                            x       y       z     vdW  Elec       q    Type
REMARK                         _______ _______ _______ _____ _____    ______ ____
ROOT
ATOM      1  O   UNL     1       3.827   3.400  16.303  0.00  0.00    +0.000 OA
ATOM      2  C   UNL     1       4.688   4.122  16.790  0.00  0.00    +0.000 A 
ATOM      3  N   UNL     1       6.018   3.861  16.632  0.00  0.00    +0.000 N 
ATOM      4  C   UNL     1       7.057   4.605  17.121  0.00  0.00    +0.000 A 
ATOM      5  O   UNL     1       8.218   4.265  16.910  0.00  0.00    +0.000 OA
ATOM      6  N   UNL     1       6.695   5.732  17.852  0.00  0.00    +0.000 N 
ATOM      7  C   UNL     1       5.369   6.055  18.073  0.00  0.00    +0.000 A 
ATOM      8  C   UNL     1       4.353   5.325  17.592  0.00  0.00    +0.000 A 
ATOM      9  H   UNL     1       6.264   3.042  16.098  0.00  0.00    +0.000 HD
ENDROOT
BRANCH   6  10
ATOM     10  C   UNL     1       7.754   6.568  18.419  0.00  0.00    +0.000 C 
BRANCH  10  11
ATOM     11  C   UNL     1       7.876   7.945  17.765  0.00  0.00    +0.000 C 
BRANCH  11  12
ATOM     12  C   UNL     1       8.733   8.900  18.588  0.00  0.00    +0.000 C 
BRANCH  12  13
ATOM     13  O   UNL     1       8.325  10.243  18.324  0.00  0.00    +0.000 OA
BRANCH  13  14
ATOM     14  C   UNL     1       9.254  11.215  18.594  0.00  0.00    +0.000 A 
ATOM     15  C   UNL     1       9.574  12.292  17.764  0.00  0.00    +0.000 A 
ATOM     16  C   UNL     1      10.545  13.218  18.153  0.00  0.00    +0.000 A 
ATOM     17  C   UNL     1      11.201  13.074  19.373  0.00  0.00    +0.000 A 
ATOM     18  C   UNL     1      10.888  12.003  20.206  0.00  0.00    +0.000 A 
ATOM     19  C   UNL     1       9.916  11.077  19.816  0.00  0.00    +0.000 A 
ENDBRANCH  13  14
ENDBRANCH  12  13
ENDBRANCH  11  12
ENDBRANCH  10  11
ENDBRANCH   6  10
BRANCH   8  20
ATOM     20  C   UNL     1       2.904   5.612  17.873  0.00  0.00    +0.000 C 
BRANCH  20  21
ATOM     21  C   UNL     1       2.323   4.754  18.974  0.00  0.00    +0.000 A 
ATOM     22  C   UNL     1       1.405   3.736  18.676  0.00  0.00    +0.000 A 
ATOM     23  C   UNL     1       0.830   2.978  19.697  0.00  0.00    +0.000 A 
ATOM     24  C   UNL     1       1.179   3.215  21.024  0.00  0.00    +0.000 A 
ATOM     25  C   UNL     1       2.117   4.199  21.331  0.00  0.00    +0.000 A 
ATOM     26  C   UNL     1       2.686   4.965  20.312  0.00  0.00    +0.000 A 
ENDBRANCH  20  21
ENDBRANCH   8  20
TORSDOF 7
ENDMDL
MODEL 3
REMARK VINA RESULT:      -8.4      4.673      7.235
REMARK  Name = 
REMARK  7 active torsions:
REMARK  status: ('A' for Active; 'I' for Inactive)
REMARK    1  A    between atoms: N_6  and  C_7
REMARK    2  A    between atoms: C_7  and  C_8
REMARK    3  A    between atoms: C_8  and  C_9
REMARK    4  A    between atoms: C_9  and  O_10
REMARK    5  A    between atoms: O_10  and  C_11
REMARK    6  A    between atoms: C_18  and  C_19
REMARK    7  A    between atoms: C_19  and  C_20
REMARK                            x       y       z     vdW  Elec       q    Type
REMARK                         _______ _______ _______ _____ _____    ______ ____
ROOT
ATOM      1  O   UNL     1       7.565   5.120  17.411  0.00  0.00    +0.000 OA
ATOM      2  C   UNL     1       6.446   4.687  17.656  0.00  0.00    +0.000 A 
ATOM      3  N   UNL     1       6.210   3.868  18.721  0.00  0.00    +0.000 N 
ATOM      4  C   UNL     1       5.001   3.343  19.091  0.00  0.00    +0.000 A 
ATOM      5  O   UNL     1       4.917   2.614  20.076  0.00  0.00    +0.000 OA
ATOM      6  N   UNL     1       3.924   3.689  18.282  0.00  0.00    +0.000 N 
ATOM      7  C   UNL     1       4.084   4.498  17.173  0.00  0.00    +0.000 A 
ATOM      8  C   UNL     1       5.268   5.014  16.814  0.00  0.00    +0.000 A 
ATOM      9  H   UNL     1       7.000   3.628  19.299  0.00  0.00    +0.000 HD
ENDROOT
BRANCH   6  10
ATOM     10  C   UNL     1       2.603   3.150  18.607  0.00  0.00    +0.000 C 
BRANCH  10  11
ATOM     11  C   UNL     1       1.571   4.217  18.978  0.00  0.00    +0.000 C 
BRANCH  11  12
ATOM     12  C   UNL     1       1.897   4.897  20.303  0.00  0.00    +0.000 C 
BRANCH  12  13
ATOM     13  O   UNL     1       2.810   5.969  20.068  0.00  0.00    +0.000 OA
BRANCH  13  14
ATOM     14  C   UNL     1       2.248   7.166  19.707  0.00  0.00    +0.000 A 
ATOM     15  C   UNL     1       1.514   8.010  20.545  0.00  0.00    +0.000 A 
ATOM     16  C   UNL     1       0.989   9.208  20.055  0.00  0.00    +0.000 A 
ATOM     17  C   UNL     1       1.193   9.570  18.726  0.00  0.00    +0.000 A 
ATOM     18  C   UNL     1       1.924   8.735  17.884  0.00  0.00    +0.000 A 
ATOM     19  C   UNL     1       2.449   7.537  18.375  0.00  0.00    +0.000 A 
ENDBRANCH  13  14
ENDBRANCH  12  13
ENDBRANCH  11  12
ENDBRANCH  10  11
ENDBRANCH   6  10
BRANCH   8  20
ATOM     20  C   UNL     1       5.485   5.841  15.576  0.00  0.00    +0.000 C 
BRANCH  20  21
ATOM     21  C   UNL     1       5.961   5.034  14.389  0.00  0.00    +0.000 A 
ATOM     22  C   UNL     1       7.249   5.223  13.868  0.00  0.00    +0.000 A 
ATOM     23  C   UNL     1       7.669   4.515  12.741  0.00  0.00    +0.000 A 
ATOM     24  C   UNL     1       6.816   3.598  12.134  0.00  0.00    +0.000 A 
ATOM     25  C   UNL     1       5.547   3.374  12.663  0.00  0.00    +0.000 A 
ATOM     26  C   UNL     1       5.119   4.088  13.784  0.00  0.00    +0.000 A 
ENDBRANCH  20  21
ENDBRANCH   8  20
TORSDOF 7
ENDMDL
MODEL 4
REMARK VINA RESULT:      -7.8      4.583      7.269
REMARK  Name = 
REMARK  7 active torsions:
REMARK  status: ('A' for Active; 'I' for Inactive)
REMARK    1  A    between atoms: N_6  and  C_7
REMARK    2  A    between atoms: C_7  and  C_8
REMARK    3  A    between atoms: C_8  and  C_9
REMARK    4  A    between atoms: C_9  and  O_10
REMARK    5  A    between atoms: O_10  and  C_11
REMARK    6  A    between atoms: C_18  and  C_19
REMARK    7  A    between atoms: C_19  and  C_20
REMARK                            x       y       z     vdW  Elec       q    Type
REMARK                         _______ _______ _______ _____ _____    ______ ____
ROOT
ATOM      1  O   UNL     1       7.915   4.629  18.141  0.00  0.00    +0.000 OA
ATOM      2  C   UNL     1       6.722   4.404  17.981  0.00  0.00    +0.000 A 
ATOM      3  N   UNL     1       6.010   3.648  18.866  0.00  0.00    +0.000 N 
ATOM      4  C   UNL     1       4.676   3.348  18.790  0.00  0.00    +0.000 A 
ATOM      5  O   UNL     1       4.147   2.652  19.653  0.00  0.00    +0.000 OA
ATOM      6  N   UNL     1       4.004   3.876  17.692  0.00  0.00    +0.000 N 
ATOM      7  C   UNL     1       4.659   4.636  16.742  0.00  0.00    +0.000 A 
ATOM      8  C   UNL     1       5.965   4.930  16.819  0.00  0.00    +0.000 A 
ATOM      9  H   UNL     1       6.510   3.274  19.657  0.00  0.00    +0.000 HD
ENDROOT
BRANCH   6  10
ATOM     10  C   UNL     1       2.579   3.583  17.537  0.00  0.00    +0.000 C 
BRANCH  10  11
ATOM     11  C   UNL     1       1.662   4.754  17.896  0.00  0.00    +0.000 C 
BRANCH  11  12
ATOM     12  C   UNL     1       1.887   5.246  19.320  0.00  0.00    +0.000 C 
BRANCH  12  13
ATOM     13  O   UNL     1       2.789   6.354  19.298  0.00  0.00    +0.000 OA
BRANCH  13  14
ATOM     14  C   UNL     1       2.216   7.588  19.131  0.00  0.00    +0.000 A 
ATOM     15  C   UNL     1       2.215   8.334  17.948  0.00  0.00    +0.000 A 
ATOM     16  C   UNL     1       1.595   9.586  17.906  0.00  0.00    +0.000 A 
ATOM     17  C   UNL     1       0.974  10.099  19.041  0.00  0.00    +0.000 A 
ATOM     18  C   UNL     1       0.971   9.362  20.223  0.00  0.00    +0.000 A 
ATOM     19  C   UNL     1       1.590   8.110  20.265  0.00  0.00    +0.000 A 
ENDBRANCH  13  14
ENDBRANCH  12  13
ENDBRANCH  11  12
ENDBRANCH  10  11
ENDBRANCH   6  10
BRANCH   8  20
ATOM     20  C   UNL     1       6.718   5.698  15.767  0.00  0.00    +0.000 C 
BRANCH  20  21
ATOM     21  C   UNL     1       6.703   5.031  14.410  0.00  0.00    +0.000 A 
ATOM     22  C   UNL     1       5.746   4.050  14.107  0.00  0.00    +0.000 A 
ATOM     23  C   UNL     1       5.764   3.399  12.873  0.00  0.00    +0.000 A 
ATOM     24  C   UNL     1       6.725   3.731  11.922  0.00  0.00    +0.000 A 
ATOM     25  C   UNL     1       7.659   4.727  12.196  0.00  0.00    +0.000 A 
ATOM     26  C   UNL     1       7.649   5.375  13.433  0.00  0.00    +0.000 A 
ENDBRANCH  20  21
ENDBRANCH   8  20
TORSDOF 7
ENDMDL
MODEL 5
REMARK VINA RESULT:      -7.7      1.668      2.534
REMARK  Name = 
REMARK  7 active torsions:
REMARK  status: ('A' for Active; 'I' for Inactive)
REMARK    1  A    between atoms: N_6  and  C_7
REMARK    2  A    between atoms: C_7  and  C_8
REMARK    3  A    between atoms: C_8  and  C_9
REMARK    4  A    between atoms: C_9  and  O_10
REMARK    5  A    between atoms: O_10  and  C_11
REMARK    6  A    between atoms: C_18  and  C_19
REMARK    7  A    between atoms: C_19  and  C_20
REMARK                            x       y       z     vdW  Elec       q    Type
REMARK                         _______ _______ _______ _____ _____    ______ ____
ROOT
ATOM      1  O   UNL     1       3.603   3.322  16.841  0.00  0.00    +0.000 OA
ATOM      2  C   UNL     1       4.506   4.072  17.191  0.00  0.00    +0.000 A 
ATOM      3  N   UNL     1       5.767   3.963  16.681  0.00  0.00    +0.000 N 
ATOM      4  C   UNL     1       6.840   4.754  16.991  0.00  0.00    +0.000 A 
ATOM      5  O   UNL     1       7.931   4.556  16.463  0.00  0.00    +0.000 OA
ATOM      6  N   UNL     1       6.597   5.757  17.924  0.00  0.00    +0.000 N 
ATOM      7  C   UNL     1       5.351   5.920  18.501  0.00  0.00    +0.000 A 
ATOM      8  C   UNL     1       4.300   5.145  18.194  0.00  0.00    +0.000 A 
ATOM      9  H   UNL     1       5.928   3.233  16.005  0.00  0.00    +0.000 HD
ENDROOT
BRANCH   6  10
ATOM     10  C   UNL     1       7.702   6.632  18.317  0.00  0.00    +0.000 C 
BRANCH  10  11
ATOM     11  C   UNL     1       7.713   7.981  17.596  0.00  0.00    +0.000 C 
BRANCH  11  12
ATOM     12  C   UNL     1       8.309   9.089  18.456  0.00  0.00    +0.000 C 
BRANCH  12  13
ATOM     13  O   UNL     1       9.110   9.941  17.636  0.00  0.00    +0.000 OA
BRANCH  13  14
ATOM     14  C   UNL     1       9.558  11.093  18.229  0.00  0.00    +0.000 A 
ATOM     15  C   UNL     1      10.600  11.181  19.157  0.00  0.00    +0.000 A 
ATOM     16  C   UNL     1      10.963  12.419  19.692  0.00  0.00    +0.000 A 
ATOM     17  C   UNL     1      10.290  13.575  19.306  0.00  0.00    +0.000 A 
ATOM     18  C   UNL     1       9.250  13.495  18.382  0.00  0.00    +0.000 A 
ATOM     19  C   UNL     1       8.887  12.257  17.846  0.00  0.00    +0.000 A 
ENDBRANCH  13  14
ENDBRANCH  12  13
ENDBRANCH  11  12
ENDBRANCH  10  11
ENDBRANCH   6  10
BRANCH   8  20
ATOM     20  C   UNL     1       2.953   5.255  18.854  0.00  0.00    +0.000 C 
BRANCH  20  21
ATOM     21  C   UNL     1       2.442   6.676  18.944  0.00  0.00    +0.000 A 
ATOM     22  C   UNL     1       2.012   7.203  20.170  0.00  0.00    +0.000 A 
ATOM     23  C   UNL     1       1.492   8.496  20.243  0.00  0.00    +0.000 A 
ATOM     24  C   UNL     1       1.414   9.283  19.097  0.00  0.00    +0.000 A 
ATOM     25  C   UNL     1       1.870   8.784  17.880  0.00  0.00    +0.000 A 
ATOM     26  C   UNL     1       2.382   7.488  17.801  0.00  0.00    +0.000 A 
ENDBRANCH  20  21
ENDBRANCH   8  20
TORSDOF 7
ENDMDL
MODEL 6
REMARK VINA RESULT:      -7.6      4.057      6.238
REMARK  Name = 
REMARK  7 active torsions:
REMARK  status: ('A' for Active; 'I' for Inactive)
REMARK    1  A    between atoms: N_6  and  C_7
REMARK    2  A    between atoms: C_7  and  C_8
REMARK    3  A    between atoms: C_8  and  C_9
REMARK    4  A    between atoms: C_9  and  O_10
REMARK    5  A    between atoms: O_10  and  C_11
REMARK    6  A    between atoms: C_18  and  C_19
REMARK    7  A    between atoms: C_19  and  C_20
REMARK                            x       y       z     vdW  Elec       q    Type
REMARK                         _______ _______ _______ _____ _____    ______ ____
ROOT
ATOM      1  O   UNL     1       1.375   5.031  17.852  0.00  0.00    +0.000 OA
ATOM      2  C   UNL     1       2.558   5.126  18.157  0.00  0.00    +0.000 A 
ATOM      3  N   UNL     1       3.265   4.060  18.632  0.00  0.00    +0.000 N 
ATOM      4  C   UNL     1       4.587   4.055  18.987  0.00  0.00    +0.000 A 
ATOM      5  O   UNL     1       5.113   3.026  19.403  0.00  0.00    +0.000 OA
ATOM      6  N   UNL     1       5.251   5.269  18.846  0.00  0.00    +0.000 N 
ATOM      7  C   UNL     1       4.600   6.400  18.390  0.00  0.00    +0.000 A 
ATOM      8  C   UNL     1       3.306   6.403  18.041  0.00  0.00    +0.000 A 
ATOM      9  H   UNL     1       2.770   3.187  18.727  0.00  0.00    +0.000 HD
ENDROOT
BRANCH   6  10
ATOM     10  C   UNL     1       6.664   5.342  19.222  0.00  0.00    +0.000 C 
BRANCH  10  11
ATOM     11  C   UNL     1       7.580   5.832  18.100  0.00  0.00    +0.000 C 
BRANCH  11  12
ATOM     12  C   UNL     1       7.492   4.953  16.858  0.00  0.00    +0.000 C 
BRANCH  12  13
ATOM     13  O   UNL     1       6.893   5.698  15.797  0.00  0.00    +0.000 OA
BRANCH  13  14
ATOM     14  C   UNL     1       6.722   5.024  14.616  0.00  0.00    +0.000 A 
ATOM     15  C   UNL     1       7.647   4.963  13.569  0.00  0.00    +0.000 A 
ATOM     16  C   UNL     1       7.353   4.241  12.410  0.00  0.00    +0.000 A 
ATOM     17  C   UNL     1       6.135   3.577  12.289  0.00  0.00    +0.000 A 
ATOM     18  C   UNL     1       5.208   3.633  13.327  0.00  0.00    +0.000 A 
ATOM     19  C   UNL     1       5.503   4.355  14.486  0.00  0.00    +0.000 A 
ENDBRANCH  13  14
ENDBRANCH  12  13
ENDBRANCH  11  12
ENDBRANCH  10  11
ENDBRANCH   6  10
BRANCH   8  20
ATOM     20  C   UNL     1       2.554   7.631  17.606  0.00  0.00    +0.000 C 
BRANCH  20  21
ATOM     21  C   UNL     1       1.868   8.350  18.746  0.00  0.00    +0.000 A 
ATOM     22  C   UNL     1       1.199   9.563  18.525  0.00  0.00    +0.000 A 
ATOM     23  C   UNL     1       0.610  10.252  19.586  0.00  0.00    +0.000 A 
ATOM     24  C   UNL     1       0.667   9.730  20.875  0.00  0.00    +0.000 A 
ATOM     25  C   UNL     1       1.298   8.509  21.103  0.00  0.00    +0.000 A 
ATOM     26  C   UNL     1       1.896   7.822  20.045  0.00  0.00    +0.000 A 
ENDBRANCH  20  21
ENDBRANCH   8  20
TORSDOF 7
ENDMDL
MODEL 7
REMARK VINA RESULT:      -7.6      1.646      2.404
REMARK  Name = 
REMARK  7 active torsions:
REMARK  status: ('A' for Active; 'I' for Inactive)
REMARK    1  A    between atoms: N_6  and  C_7
REMARK    2  A    between atoms: C_7  and  C_8
REMARK    3  A    between atoms: C_8  and  C_9
REMARK    4  A    between atoms: C_9  and  O_10
REMARK    5  A    between atoms: O_10  and  C_11
REMARK    6  A    between atoms: C_18  and  C_19
REMARK    7  A    between atoms: C_19  and  C_20
REMARK                            x       y       z     vdW  Elec       q    Type
REMARK                         _______ _______ _______ _____ _____    ______ ____
ROOT
ATOM      1  O   UNL     1       3.685   3.796  17.139  0.00  0.00    +0.000 OA
ATOM      2  C   UNL     1       4.607   4.556  17.409  0.00  0.00    +0.000 A 
ATOM      3  N   UNL     1       5.860   4.094  17.689  0.00  0.00    +0.000 N 
ATOM      4  C   UNL     1       6.959   4.853  17.988  0.00  0.00    +0.000 A 
ATOM      5  O   UNL     1       8.038   4.316  18.224  0.00  0.00    +0.000 OA
ATOM      6  N   UNL     1       6.751   6.228  18.007  0.00  0.00    +0.000 N 
ATOM      7  C   UNL     1       5.506   6.774  17.754  0.00  0.00    +0.000 A 
ATOM      8  C   UNL     1       4.432   6.029  17.458  0.00  0.00    +0.000 A 
ATOM      9  H   UNL     1       5.995   3.095  17.670  0.00  0.00    +0.000 HD
ENDROOT
BRANCH   6  10
ATOM     10  C   UNL     1       7.877   7.102  18.336  0.00  0.00    +0.000 C 
BRANCH  10  11
ATOM     11  C   UNL     1       8.092   8.241  17.338  0.00  0.00    +0.000 C 
BRANCH  11  12
ATOM     12  C   UNL     1       8.080   9.608  18.011  0.00  0.00    +0.000 C 
BRANCH  12  13
ATOM     13  O   UNL     1       8.983   9.595  19.117  0.00  0.00    +0.000 OA
BRANCH  13  14
ATOM     14  C   UNL     1       9.756  10.716  19.272  0.00  0.00    +0.000 A 
ATOM     15  C   UNL     1      10.067  11.332  20.487  0.00  0.00    +0.000 A 
ATOM     16  C   UNL     1      10.868  12.477  20.513  0.00  0.00    +0.000 A 
ATOM     17  C   UNL     1      11.362  13.013  19.326  0.00  0.00    +0.000 A 
ATOM     18  C   UNL     1      11.056  12.405  18.111  0.00  0.00    +0.000 A 
ATOM     19  C   UNL     1      10.256  11.259  18.086  0.00  0.00    +0.000 A 
ENDBRANCH  13  14
ENDBRANCH  12  13
ENDBRANCH  11  12
ENDBRANCH  10  11
ENDBRANCH   6  10
BRANCH   8  20
ATOM     20  C   UNL     1       3.052   6.589  17.244  0.00  0.00    +0.000 C 
BRANCH  20  21
ATOM     21  C   UNL     1       2.427   7.145  18.504  0.00  0.00    +0.000 A 
ATOM     22  C   UNL     1       1.961   8.467  18.546  0.00  0.00    +0.000 A 
ATOM     23  C   UNL     1       1.431   8.996  19.723  0.00  0.00    +0.000 A 
ATOM     24  C   UNL     1       1.344   8.205  20.866  0.00  0.00    +0.000 A 
ATOM     25  C   UNL     1       1.771   6.880  20.829  0.00  0.00    +0.000 A 
ATOM     26  C   UNL     1       2.310   6.351  19.655  0.00  0.00    +0.000 A 
ENDBRANCH  20  21
ENDBRANCH   8  20
TORSDOF 7
ENDMDL
MODEL 8
REMARK VINA RESULT:      -7.6      4.655      8.152
REMARK  Name = 
REMARK  7 active torsions:
REMARK  status: ('A' for Active; 'I' for Inactive)
REMARK    1  A    between atoms: N_6  and  C_7
REMARK    2  A    between atoms: C_7  and  C_8
REMARK    3  A    between atoms: C_8  and  C_9
REMARK    4  A    between atoms: C_9  and  O_10
REMARK    5  A    between atoms: O_10  and  C_11
REMARK    6  A    between atoms: C_18  and  C_19
REMARK    7  A    between atoms: C_19  and  C_20
REMARK                            x       y       z     vdW  Elec       q    Type
REMARK                         _______ _______ _______ _____ _____    ______ ____
ROOT
ATOM      1  O   UNL     1       2.412   9.440  17.303  0.00  0.00    +0.000 OA
ATOM      2  C   UNL     1       2.407   8.520  18.113  0.00  0.00    +0.000 A 
ATOM      3  N   UNL     1       1.703   8.595  19.279  0.00  0.00    +0.000 N 
ATOM      4  C   UNL     1       1.619   7.625  20.241  0.00  0.00    +0.000 A 
ATOM      5  O   UNL     1       0.950   7.811  21.254  0.00  0.00    +0.000 OA
ATOM      6  N   UNL     1       2.333   6.459  19.982  0.00  0.00    +0.000 N 
ATOM      7  C   UNL     1       3.086   6.314  18.831  0.00  0.00    +0.000 A 
ATOM      8  C   UNL     1       3.165   7.265  17.890  0.00  0.00    +0.000 A 
ATOM      9  H   UNL     1       1.190   9.444  19.452  0.00  0.00    +0.000 HD
ENDROOT
BRANCH   6  10
ATOM     10  C   UNL     1       2.302   5.384  20.974  0.00  0.00    +0.000 C 
BRANCH  10  11
ATOM     11  C   UNL     1       1.131   4.415  20.803  0.00  0.00    +0.000 C 
BRANCH  11  12
ATOM     12  C   UNL     1       1.416   3.052  21.424  0.00  0.00    +0.000 C 
BRANCH  12  13
ATOM     13  O   UNL     1       1.519   2.076  20.387  0.00  0.00    +0.000 OA
BRANCH  13  14
ATOM     14  C   UNL     1       2.380   2.378  19.364  0.00  0.00    +0.000 A 
ATOM     15  C   UNL     1       3.776   2.372  19.443  0.00  0.00    +0.000 A 
ATOM     16  C   UNL     1       4.546   2.702  18.326  0.00  0.00    +0.000 A 
ATOM     17  C   UNL     1       3.929   3.040  17.124  0.00  0.00    +0.000 A 
ATOM     18  C   UNL     1       2.539   3.049  17.037  0.00  0.00    +0.000 A 
ATOM     19  C   UNL     1       1.768   2.718  18.155  0.00  0.00    +0.000 A 
ENDBRANCH  13  14
ENDBRANCH  12  13
ENDBRANCH  11  12
ENDBRANCH  10  11
ENDBRANCH   6  10
BRANCH   8  20
ATOM     20  C   UNL     1       4.028   7.162  16.662  0.00  0.00    +0.000 C 
BRANCH  20  21
ATOM     21  C   UNL     1       5.239   6.277  16.851  0.00  0.00    +0.000 A 
ATOM     22  C   UNL     1       5.922   6.252  18.076  0.00  0.00    +0.000 A 
ATOM     23  C   UNL     1       7.069   5.474  18.233  0.00  0.00    +0.000 A 
ATOM     24  C   UNL     1       7.537   4.698  17.176  0.00  0.00    +0.000 A 
ATOM     25  C   UNL     1       6.849   4.685  15.966  0.00  0.00    +0.000 A 
ATOM     26  C   UNL     1       5.706   5.470  15.801  0.00  0.00    +0.000 A 
ENDBRANCH  20  21
ENDBRANCH   8  20
TORSDOF 7
ENDMDL
MODEL 9
REMARK VINA RESULT:      -7.5      2.177      2.714
REMARK  Name = 
REMARK  7 active torsions:
REMARK  status: ('A' for Active; 'I' for Inactive)
REMARK    1  A    between atoms: N_6  and  C_7
REMARK    2  A    between atoms: C_7  and  C_8
REMARK    3  A    between atoms: C_8  and  C_9
REMARK    4  A    between atoms: C_9  and  O_10
REMARK    5  A    between atoms: O_10  and  C_11
REMARK    6  A    between atoms: C_18  and  C_19
REMARK    7  A    between atoms: C_19  and  C_20
REMARK                            x       y       z     vdW  Elec       q    Type
REMARK                         _______ _______ _______ _____ _____    ______ ____
ROOT
ATOM      1  O   UNL     1       4.323   3.953  18.305  0.00  0.00    +0.000 OA
ATOM      2  C   UNL     1       5.229   4.776  18.347  0.00  0.00    +0.000 A 
ATOM      3  N   UNL     1       6.429   4.493  18.931  0.00  0.00    +0.000 N 
ATOM      4  C   UNL     1       7.508   5.331  19.019  0.00  0.00    +0.000 A 
ATOM      5  O   UNL     1       8.539   4.959  19.574  0.00  0.00    +0.000 OA
ATOM      6  N   UNL     1       7.337   6.590  18.454  0.00  0.00    +0.000 N 
ATOM      7  C   UNL     1       6.145   6.960  17.860  0.00  0.00    +0.000 A 
ATOM      8  C   UNL     1       5.090   6.137  17.773  0.00  0.00    +0.000 A 
ATOM      9  H   UNL     1       6.538   3.576  19.335  0.00  0.00    +0.000 HD
ENDROOT
BRANCH   6  10
ATOM     10  C   UNL     1       8.444   7.545  18.525  0.00  0.00    +0.000 C 
BRANCH  10  11
ATOM     11  C   UNL     1       8.124   8.912  17.917  0.00  0.00    +0.000 C 
BRANCH  11  12
ATOM     12  C   UNL     1       8.765  10.054  18.696  0.00  0.00    +0.000 C 
BRANCH  12  13
ATOM     13  O   UNL     1       9.213  11.055  17.781  0.00  0.00    +0.000 OA
BRANCH  13  14
ATOM     14  C   UNL     1      10.251  11.839  18.214  0.00  0.00    +0.000 A 
ATOM     15  C   UNL     1      11.010  12.700  17.416  0.00  0.00    +0.000 A 
ATOM     16  C   UNL     1      12.048  13.449  17.978  0.00  0.00    +0.000 A 
ATOM     17  C   UNL     1      12.333  13.342  19.337  0.00  0.00    +0.000 A 
ATOM     18  C   UNL     1      11.580  12.486  20.138  0.00  0.00    +0.000 A 
ATOM     19  C   UNL     1      10.542  11.738  19.576  0.00  0.00    +0.000 A 
ENDBRANCH  13  14
ENDBRANCH  12  13
ENDBRANCH  11  12
ENDBRANCH  10  11
ENDBRANCH   6  10
BRANCH   8  20
ATOM     20  C   UNL     1       3.760   6.533  17.193  0.00  0.00    +0.000 C 
BRANCH  20  21
ATOM     21  C   UNL     1       2.904   7.335  18.148  0.00  0.00    +0.000 A 
ATOM     22  C   UNL     1       2.625   6.852  19.435  0.00  0.00    +0.000 A 
ATOM     23  C   UNL     1       1.793   7.568  20.296  0.00  0.00    +0.000 A 
ATOM     24  C   UNL     1       1.246   8.782  19.890  0.00  0.00    +0.000 A 
ATOM     25  C   UNL     1       1.543   9.291  18.628  0.00  0.00    +0.000 A 
ATOM     26  C   UNL     1       2.367   8.572  17.760  0.00  0.00    +0.000 A 
ENDBRANCH  20  21
ENDBRANCH   8  20
TORSDOF 7
ENDMDL
