MODEL 1
REMARK VINA RESULT:      -7.8      0.000      0.000
REMARK  Name = 
REMARK  3 active torsions:
REMARK  status: ('A' for Active; 'I' for Inactive)
REMARK    1  A    between atoms: C_2  and  C_14
REMARK    2  A    between atoms: N_3  and  C_4
REMARK    3  A    between atoms: N_17  and  C_18
REMARK                            x       y       z     vdW  Elec       q    Type
REMARK                         _______ _______ _______ _____ _____    ______ ____
ROOT
ATOM      1  C   UNL     1       1.786   9.806  19.519  0.00  0.00    +0.000 C 
ATOM      2  C   UNL     1       0.749   9.384  20.566  0.00  0.00    +0.000 C 
ATOM      3  C   UNL     1      -0.681   9.553  20.068  0.00  0.00    +0.000 C 
ATOM      4  N   UNL     1      -0.894  10.906  19.545  0.00  0.00    +0.000 N 
ATOM      5  C   UNL     1       0.014  11.332  18.480  0.00  0.00    +0.000 C 
ATOM      6  C   UNL     1       1.463  11.192  18.941  0.00  0.00    +0.000 C 
ENDROOT
BRANCH   4   7
ATOM      7  C   UNL     1      -1.882  11.752  20.062  0.00  0.00    +0.000 A 
ATOM      8  C   UNL     1      -1.731  12.464  21.192  0.00  0.00    +0.000 A 
ATOM      9  C   UNL     1      -2.857  13.338  21.604  0.00  0.00    +0.000 A 
ATOM     10  N   UNL     1      -3.999  13.466  21.008  0.00  0.00    +0.000 NA
ATOM     11  C   UNL     1      -4.150  12.712  19.878  0.00  0.00    +0.000 A 
ATOM     12  N   UNL     1      -5.195  12.620  19.081  0.00  0.00    +0.000 NA
ATOM     13  C   UNL     1      -4.795  11.741  18.129  0.00  0.00    +0.000 A 
ATOM     14  N   UNL     1      -3.558  11.267  18.244  0.00  0.00    +0.000 NA
ATOM     15  N   UNL     1      -3.124  11.878  19.384  0.00  0.00    +0.000 N 
ATOM     16  C   UNL     1      -2.504  14.102  22.840  0.00  0.00    +0.000 C 
ATOM     17  C   UNL     1      -1.077  13.657  23.168  0.00  0.00    +0.000 C 
ATOM     18  C   UNL     1      -0.601  12.631  22.132  0.00  0.00    +0.000 C 
ENDBRANCH   4   7
BRANCH   1  20
ATOM     19  O   UNL     1       1.765   8.977  17.236  0.00  0.00    +0.000 OA
ATOM     20  C   UNL     1       1.952   8.751  18.426  0.00  0.00    +0.000 C 
ATOM     21  N   UNL     1       2.363   7.529  18.903  0.00  0.00    +0.000 N 
ATOM     22  H   UNL     1       2.586   7.426  19.885  0.00  0.00    +0.000 HD
BRANCH  21  23
ATOM     23  C   UNL     1       2.662   6.396  18.037  0.00  0.00    +0.000 C 
ATOM     24  C   UNL     1       1.918   5.133  18.491  0.00  0.00    +0.000 C 
ATOM     25  C   UNL     1       2.509   4.557  19.775  0.00  0.00    +0.000 C 
ATOM     26  C   UNL     1       3.995   4.229  19.631  0.00  0.00    +0.000 C 
ATOM     27  C   UNL     1       4.788   5.229  18.825  0.00  0.00    +0.000 A 
ATOM     28  C   UNL     1       6.190   5.147  18.837  0.00  0.00    +0.000 A 
ATOM     29  C   UNL     1       6.963   6.022  18.072  0.00  0.00    +0.000 A 
ATOM     30  C   UNL     1       6.345   6.977  17.270  0.00  0.00    +0.000 A 
ATOM     31  C   UNL     1       4.955   7.065  17.245  0.00  0.00    +0.000 A 
ATOM     32  C   UNL     1       4.164   6.199  18.021  0.00  0.00    +0.000 A 
ENDBRANCH  21  23
ENDBRANCH   1  20
TORSDOF 3
ENDMDL
MODEL 2
REMARK VINA RESULT:      -7.6      0.919      2.574
REMARK  Name = 
REMARK  3 active torsions:
REMARK  status: ('A' for Active; 'I' for Inactive)
REMARK    1  A    between atoms: C_2  and  C_14
REMARK    2  A    between atoms: N_3  and  C_4
REMARK    3  A    between atoms: N_17  and  C_18
REMARK                            x       y       z     vdW  Elec       q    Type
REMARK                         _______ _______ _______ _____ _____    ______ ____
ROOT
ATOM      1  C   UNL     1       1.786   9.793  19.484  0.00  0.00    +0.000 C 
ATOM      2  C   UNL     1       0.737   9.365  20.517  0.00  0.00    +0.000 C 
ATOM      3  C   UNL     1      -0.686   9.516  19.997  0.00  0.00    +0.000 C 
ATOM      4  N   UNL     1      -0.906  10.865  19.464  0.00  0.00    +0.000 N 
ATOM      5  C   UNL     1       0.014  11.295  18.411  0.00  0.00    +0.000 C 
ATOM      6  C   UNL     1       1.458  11.172  18.895  0.00  0.00    +0.000 C 
ENDROOT
BRANCH   4   7
ATOM      7  C   UNL     1      -1.910  11.703  19.962  0.00  0.00    +0.000 A 
ATOM      8  C   UNL     1      -3.095  11.881  19.353  0.00  0.00    +0.000 A 
ATOM      9  C   UNL     1      -4.072  12.782  20.012  0.00  0.00    +0.000 A 
ATOM     10  N   UNL     1      -3.896  13.453  21.106  0.00  0.00    +0.000 NA
ATOM     11  C   UNL     1      -2.674  13.285  21.696  0.00  0.00    +0.000 A 
ATOM     12  N   UNL     1      -2.204  13.845  22.792  0.00  0.00    +0.000 NA
ATOM     13  C   UNL     1      -0.959  13.322  22.910  0.00  0.00    +0.000 A 
ATOM     14  N   UNL     1      -0.592  12.452  21.974  0.00  0.00    +0.000 NA
ATOM     15  N   UNL     1      -1.692  12.423  21.167  0.00  0.00    +0.000 N 
ATOM     16  C   UNL     1      -5.354  12.821  19.242  0.00  0.00    +0.000 C 
ATOM     17  C   UNL     1      -5.117  11.877  18.062  0.00  0.00    +0.000 C 
ATOM     18  C   UNL     1      -3.701  11.293  18.138  0.00  0.00    +0.000 C 
ENDBRANCH   4   7
BRANCH   1  20
ATOM     19  O   UNL     1       1.856   8.965  17.202  0.00  0.00    +0.000 OA
ATOM     20  C   UNL     1       1.979   8.734  18.399  0.00  0.00    +0.000 C 
ATOM     21  N   UNL     1       2.336   7.502  18.894  0.00  0.00    +0.000 N 
ATOM     22  H   UNL     1       2.509   7.394  19.886  0.00  0.00    +0.000 HD
BRANCH  21  23
ATOM     23  C   UNL     1       2.650   6.363  18.042  0.00  0.00    +0.000 C 
ATOM     24  C   UNL     1       1.918   5.098  18.509  0.00  0.00    +0.000 C 
ATOM     25  C   UNL     1       2.512   4.543  19.800  0.00  0.00    +0.000 C 
ATOM     26  C   UNL     1       4.002   4.229  19.664  0.00  0.00    +0.000 C 
ATOM     27  C   UNL     1       4.786   5.228  18.849  0.00  0.00    +0.000 A 
ATOM     28  C   UNL     1       6.189   5.161  18.866  0.00  0.00    +0.000 A 
ATOM     29  C   UNL     1       6.955   6.035  18.093  0.00  0.00    +0.000 A 
ATOM     30  C   UNL     1       6.329   6.974  17.278  0.00  0.00    +0.000 A 
ATOM     31  C   UNL     1       4.938   7.047  17.248  0.00  0.00    +0.000 A 
ATOM     32  C   UNL     1       4.154   6.181  18.032  0.00  0.00    +0.000 A 
ENDBRANCH  21  23
ENDBRANCH   1  20
TORSDOF 3
ENDMDL
MODEL 3
REMARK VINA RESULT:      -7.4      2.753      4.402
REMARK  Name = 
REMARK  3 active torsions:
REMARK  status: ('A' for Active; 'I' for Inactive)
REMARK    1  A    between atoms: C_2  and  C_14
REMARK    2  A    between atoms: N_3  and  C_4
REMARK    3  A    between atoms: N_17  and  C_18
REMARK                            x       y       z     vdW  Elec       q    Type
REMARK                         _______ _______ _______ _____ _____    ______ ____
ROOT
ATOM      1  C   UNL     1       0.525   9.233  19.364  0.00  0.00    +0.000 C 
ATOM      2  C   UNL     1       1.114  10.002  18.175  0.00  0.00    +0.000 C 
ATOM      3  C   UNL     1       2.028  11.139  18.615  0.00  0.00    +0.000 C 
ATOM      4  N   UNL     1       1.356  11.999  19.595  0.00  0.00    +0.000 N 
ATOM      5  C   UNL     1       0.849  11.330  20.793  0.00  0.00    +0.000 C 
ATOM      6  C   UNL     1      -0.085  10.188  20.399  0.00  0.00    +0.000 C 
ENDROOT
BRANCH   4   7
ATOM      7  C   UNL     1       1.177  13.370  19.376  0.00  0.00    +0.000 A 
ATOM      8  C   UNL     1       2.110  14.159  18.817  0.00  0.00    +0.000 A 
ATOM      9  C   UNL     1       1.768  15.590  18.625  0.00  0.00    +0.000 A 
ATOM     10  N   UNL     1       0.669  16.180  18.973  0.00  0.00    +0.000 NA
ATOM     11  C   UNL     1      -0.257  15.370  19.570  0.00  0.00    +0.000 A 
ATOM     12  N   UNL     1      -1.446  15.686  20.042  0.00  0.00    +0.000 NA
ATOM     13  C   UNL     1      -1.927  14.509  20.511  0.00  0.00    +0.000 A 
ATOM     14  N   UNL     1      -1.140  13.447  20.365  0.00  0.00    +0.000 NA
ATOM     15  N   UNL     1      -0.042  13.990  19.763  0.00  0.00    +0.000 N 
ATOM     16  C   UNL     1       2.884  16.310  17.938  0.00  0.00    +0.000 C 
ATOM     17  C   UNL     1       3.944  15.231  17.703  0.00  0.00    +0.000 C 
ATOM     18  C   UNL     1       3.452  13.888  18.256  0.00  0.00    +0.000 C 
ENDBRANCH   4   7
BRANCH   1  20
ATOM     19  O   UNL     1       1.788   8.247  21.189  0.00  0.00    +0.000 OA
ATOM     20  C   UNL     1       1.547   8.284  19.988  0.00  0.00    +0.000 C 
ATOM     21  N   UNL     1       2.149   7.450  19.075  0.00  0.00    +0.000 N 
ATOM     22  H   UNL     1       1.845   7.466  18.110  0.00  0.00    +0.000 HD
BRANCH  21  23
ATOM     23  C   UNL     1       3.096   6.409  19.451  0.00  0.00    +0.000 C 
ATOM     24  C   UNL     1       4.355   6.456  18.575  0.00  0.00    +0.000 C 
ATOM     25  C   UNL     1       4.078   5.962  17.158  0.00  0.00    +0.000 C 
ATOM     26  C   UNL     1       3.516   4.540  17.140  0.00  0.00    +0.000 C 
ATOM     27  C   UNL     1       2.534   4.235  18.244  0.00  0.00    +0.000 A 
ATOM     28  C   UNL     1       1.787   3.047  18.175  0.00  0.00    +0.000 A 
ATOM     29  C   UNL     1       0.900   2.701  19.195  0.00  0.00    +0.000 A 
ATOM     30  C   UNL     1       0.761   3.527  20.307  0.00  0.00    +0.000 A 
ATOM     31  C   UNL     1       1.500   4.705  20.390  0.00  0.00    +0.000 A 
ATOM     32  C   UNL     1       2.389   5.073  19.364  0.00  0.00    +0.000 A 
ENDBRANCH  21  23
ENDBRANCH   1  20
TORSDOF 3
ENDMDL
MODEL 4
REMARK VINA RESULT:      -7.3      3.006      4.664
REMARK  Name = 
REMARK  3 active torsions:
REMARK  status: ('A' for Active; 'I' for Inactive)
REMARK    1  A    between atoms: C_2  and  C_14
REMARK    2  A    between atoms: N_3  and  C_4
REMARK    3  A    between atoms: N_17  and  C_18
REMARK                            x       y       z     vdW  Elec       q    Type
REMARK                         _______ _______ _______ _____ _____    ______ ____
ROOT
ATOM      1  C   UNL     1       0.531   9.275  19.410  0.00  0.00    +0.000 C 
ATOM      2  C   UNL     1       1.103  10.016  18.196  0.00  0.00    +0.000 C 
ATOM      3  C   UNL     1       2.049  11.141  18.596  0.00  0.00    +0.000 C 
ATOM      4  N   UNL     1       1.419  12.027  19.580  0.00  0.00    +0.000 N 
ATOM      5  C   UNL     1       0.931  11.385  20.801  0.00  0.00    +0.000 C 
ATOM      6  C   UNL     1      -0.035  10.255  20.448  0.00  0.00    +0.000 C 
ENDROOT
BRANCH   4   7
ATOM      7  C   UNL     1       1.260  13.398  19.347  0.00  0.00    +0.000 A 
ATOM      8  C   UNL     1       0.133  14.073  19.635  0.00  0.00    +0.000 A 
ATOM      9  C   UNL     1       0.120  15.530  19.354  0.00  0.00    +0.000 A 
ATOM     10  N   UNL     1       1.073  16.227  18.822  0.00  0.00    +0.000 NA
ATOM     11  C   UNL     1       2.199  15.521  18.506  0.00  0.00    +0.000 A 
ATOM     12  N   UNL     1       3.311  15.950  17.943  0.00  0.00    +0.000 NA
ATOM     13  C   UNL     1       4.082  14.837  17.870  0.00  0.00    +0.000 A 
ATOM     14  N   UNL     1       3.555  13.718  18.359  0.00  0.00    +0.000 NA
ATOM     15  N   UNL     1       2.324  14.140  18.767  0.00  0.00    +0.000 N 
ATOM     16  C   UNL     1      -1.177  16.137  19.787  0.00  0.00    +0.000 C 
ATOM     17  C   UNL     1      -1.970  14.964  20.368  0.00  0.00    +0.000 C 
ATOM     18  C   UNL     1      -1.144  13.676  20.268  0.00  0.00    +0.000 C 
ENDBRANCH   4   7
BRANCH   1  20
ATOM     19  O   UNL     1       1.789   8.258  21.222  0.00  0.00    +0.000 OA
ATOM     20  C   UNL     1       1.550   8.315  20.022  0.00  0.00    +0.000 C 
ATOM     21  N   UNL     1       2.153   7.495  19.097  0.00  0.00    +0.000 N 
ATOM     22  H   UNL     1       1.852   7.526  18.131  0.00  0.00    +0.000 HD
BRANCH  21  23
ATOM     23  C   UNL     1       3.099   6.448  19.459  0.00  0.00    +0.000 C 
ATOM     24  C   UNL     1       4.354   6.500  18.578  0.00  0.00    +0.000 C 
ATOM     25  C   UNL     1       4.071   6.021  17.157  0.00  0.00    +0.000 C 
ATOM     26  C   UNL     1       3.505   4.602  17.127  0.00  0.00    +0.000 C 
ATOM     27  C   UNL     1       2.526   4.288  18.231  0.00  0.00    +0.000 A 
ATOM     28  C   UNL     1       1.775   3.103  18.153  0.00  0.00    +0.000 A 
ATOM     29  C   UNL     1       0.891   2.749  19.173  0.00  0.00    +0.000 A 
ATOM     30  C   UNL     1       0.759   3.563  20.294  0.00  0.00    +0.000 A 
ATOM     31  C   UNL     1       1.502   4.739  20.386  0.00  0.00    +0.000 A 
ATOM     32  C   UNL     1       2.388   5.114  19.360  0.00  0.00    +0.000 A 
ENDBRANCH  21  23
ENDBRANCH   1  20
TORSDOF 3
ENDMDL
MODEL 5
REMARK VINA RESULT:      -7.1      2.632      8.773
REMARK  Name = 
REMARK  3 active torsions:
REMARK  status: ('A' for Active; 'I' for Inactive)
REMARK    1  A    between atoms: C_2  and  C_14
REMARK    2  A    between atoms: N_3  and  C_4
REMARK    3  A    between atoms: N_17  and  C_18
REMARK                            x       y       z     vdW  Elec       q    Type
REMARK                         _______ _______ _______ _____ _____    ______ ____
ROOT
ATOM      1  C   UNL     1       0.063   9.484  20.260  0.00  0.00    +0.000 C 
ATOM      2  C   UNL     1       0.152   8.153  21.015  0.00  0.00    +0.000 C 
ATOM      3  C   UNL     1       1.560   7.572  21.004  0.00  0.00    +0.000 C 
ATOM      4  N   UNL     1       2.087   7.507  19.637  0.00  0.00    +0.000 N 
ATOM      5  C   UNL     1       2.107   8.769  18.897  0.00  0.00    +0.000 C 
ATOM      6  C   UNL     1       0.709   9.383  18.871  0.00  0.00    +0.000 C 
ENDROOT
BRANCH   4   7
ATOM      7  C   UNL     1       2.508   6.302  19.063  0.00  0.00    +0.000 A 
ATOM      8  C   UNL     1       2.057   5.098  19.455  0.00  0.00    +0.000 A 
ATOM      9  C   UNL     1       2.576   3.908  18.736  0.00  0.00    +0.000 A 
ATOM     10  N   UNL     1       3.453   3.897  17.783  0.00  0.00    +0.000 NA
ATOM     11  C   UNL     1       3.925   5.127  17.417  0.00  0.00    +0.000 A 
ATOM     12  N   UNL     1       4.825   5.426  16.503  0.00  0.00    +0.000 NA
ATOM     13  C   UNL     1       4.901   6.779  16.560  0.00  0.00    +0.000 A 
ATOM     14  N   UNL     1       4.104   7.380  17.438  0.00  0.00    +0.000 NA
ATOM     15  N   UNL     1       3.467   6.320  18.014  0.00  0.00    +0.000 N 
ATOM     16  C   UNL     1       1.932   2.661  19.250  0.00  0.00    +0.000 C 
ATOM     17  C   UNL     1       0.967   3.150  20.333  0.00  0.00    +0.000 C 
ATOM     18  C   UNL     1       1.052   4.676  20.455  0.00  0.00    +0.000 C 
ENDBRANCH   4   7
BRANCH   1  20
ATOM     19  O   UNL     1       1.465  10.491  21.969  0.00  0.00    +0.000 OA
ATOM     20  C   UNL     1       0.637  10.640  21.078  0.00  0.00    +0.000 C 
ATOM     21  N   UNL     1       0.158  11.871  20.697  0.00  0.00    +0.000 N 
ATOM     22  H   UNL     1      -0.458  11.941  19.896  0.00  0.00    +0.000 HD
BRANCH  21  23
ATOM     23  C   UNL     1       0.622  13.122  21.282  0.00  0.00    +0.000 C 
ATOM     24  C   UNL     1      -0.539  13.923  21.885  0.00  0.00    +0.000 C 
ATOM     25  C   UNL     1      -1.429  14.533  20.806  0.00  0.00    +0.000 C 
ATOM     26  C   UNL     1      -0.647  15.439  19.855  0.00  0.00    +0.000 C 
ATOM     27  C   UNL     1       0.730  14.938  19.494  0.00  0.00    +0.000 A 
ATOM     28  C   UNL     1       1.427  15.568  18.451  0.00  0.00    +0.000 A 
ATOM     29  C   UNL     1       2.721  15.169  18.112  0.00  0.00    +0.000 A 
ATOM     30  C   UNL     1       3.343  14.147  18.824  0.00  0.00    +0.000 A 
ATOM     31  C   UNL     1       2.664  13.517  19.865  0.00  0.00    +0.000 A 
ATOM     32  C   UNL     1       1.356  13.901  20.209  0.00  0.00    +0.000 A 
ENDBRANCH  21  23
ENDBRANCH   1  20
TORSDOF 3
ENDMDL
MODEL 6
REMARK VINA RESULT:      -7.0      2.615      8.747
REMARK  Name = 
REMARK  3 active torsions:
REMARK  status: ('A' for Active; 'I' for Inactive)
REMARK    1  A    between atoms: C_2  and  C_14
REMARK    2  A    between atoms: N_3  and  C_4
REMARK    3  A    between atoms: N_17  and  C_18
REMARK                            x       y       z     vdW  Elec       q    Type
REMARK                         _______ _______ _______ _____ _____    ______ ____
ROOT
ATOM      1  C   UNL     1       0.016   9.517  20.272  0.00  0.00    +0.000 C 
ATOM      2  C   UNL     1       0.136   8.186  21.024  0.00  0.00    +0.000 C 
ATOM      3  C   UNL     1       1.555   7.634  21.003  0.00  0.00    +0.000 C 
ATOM      4  N   UNL     1       2.074   7.581  19.631  0.00  0.00    +0.000 N 
ATOM      5  C   UNL     1       2.064   8.844  18.894  0.00  0.00    +0.000 C 
ATOM      6  C   UNL     1       0.654   9.430  18.878  0.00  0.00    +0.000 C 
ENDROOT
BRANCH   4   7
ATOM      7  C   UNL     1       2.514   6.385  19.052  0.00  0.00    +0.000 A 
ATOM      8  C   UNL     1       3.394   6.334  18.038  0.00  0.00    +0.000 A 
ATOM      9  C   UNL     1       3.786   4.991  17.543  0.00  0.00    +0.000 A 
ATOM     10  N   UNL     1       3.343   3.848  17.961  0.00  0.00    +0.000 NA
ATOM     11  C   UNL     1       2.425   3.919  18.971  0.00  0.00    +0.000 A 
ATOM     12  N   UNL     1       1.791   2.937  19.580  0.00  0.00    +0.000 NA
ATOM     13  C   UNL     1       1.014   3.574  20.490  0.00  0.00    +0.000 A 
ATOM     14  N   UNL     1       1.109   4.900  20.525  0.00  0.00    +0.000 NA
ATOM     15  N   UNL     1       2.015   5.145  19.535  0.00  0.00    +0.000 N 
ATOM     16  C   UNL     1       4.813   5.109  16.462  0.00  0.00    +0.000 C 
ATOM     17  C   UNL     1       5.045   6.615  16.320  0.00  0.00    +0.000 C 
ATOM     18  C   UNL     1       4.152   7.374  17.309  0.00  0.00    +0.000 C 
ENDBRANCH   4   7
BRANCH   1  20
ATOM     19  O   UNL     1       1.386  10.545  21.995  0.00  0.00    +0.000 OA
ATOM     20  C   UNL     1       0.573  10.683  21.089  0.00  0.00    +0.000 C 
ATOM     21  N   UNL     1       0.097  11.909  20.688  0.00  0.00    +0.000 N 
ATOM     22  H   UNL     1      -0.506  11.969  19.876  0.00  0.00    +0.000 HD
BRANCH  21  23
ATOM     23  C   UNL     1       0.547  13.167  21.268  0.00  0.00    +0.000 C 
ATOM     24  C   UNL     1      -0.629  13.980  21.824  0.00  0.00    +0.000 C 
ATOM     25  C   UNL     1      -1.483  14.576  20.709  0.00  0.00    +0.000 C 
ATOM     26  C   UNL     1      -0.669  15.466  19.769  0.00  0.00    +0.000 C 
ATOM     27  C   UNL     1       0.717  14.955  19.458  0.00  0.00    +0.000 A 
ATOM     28  C   UNL     1       1.447  15.568  18.427  0.00  0.00    +0.000 A 
ATOM     29  C   UNL     1       2.749  15.159  18.134  0.00  0.00    +0.000 A 
ATOM     30  C   UNL     1       3.345  14.147  18.879  0.00  0.00    +0.000 A 
ATOM     31  C   UNL     1       2.633  13.534  19.909  0.00  0.00    +0.000 A 
ATOM     32  C   UNL     1       1.316  13.927  20.207  0.00  0.00    +0.000 A 
ENDBRANCH  21  23
ENDBRANCH   1  20
TORSDOF 3
ENDMDL
MODEL 7
REMARK VINA RESULT:      -6.9      2.542      4.339
REMARK  Name = 
REMARK  3 active torsions:
REMARK  status: ('A' for Active; 'I' for Inactive)
REMARK    1  A    between atoms: C_2  and  C_14
REMARK    2  A    between atoms: N_3  and  C_4
REMARK    3  A    between atoms: N_17  and  C_18
REMARK                            x       y       z     vdW  Elec       q    Type
REMARK                         _______ _______ _______ _____ _____    ______ ____
ROOT
ATOM      1  C   UNL     1       0.386   9.177  19.822  0.00  0.00    +0.000 C 
ATOM      2  C   UNL     1       0.955  10.384  19.068  0.00  0.00    +0.000 C 
ATOM      3  C   UNL     1       1.514  11.444  20.007  0.00  0.00    +0.000 C 
ATOM      4  N   UNL     1       0.530  11.805  21.033  0.00  0.00    +0.000 N 
ATOM      5  C   UNL     1       0.016  10.701  21.843  0.00  0.00    +0.000 C 
ATOM      6  C   UNL     1      -0.569   9.616  20.940  0.00  0.00    +0.000 C 
ENDROOT
BRANCH   4   7
ATOM      7  C   UNL     1       0.081  13.120  21.197  0.00  0.00    +0.000 A 
ATOM      8  C   UNL     1      -1.193  13.499  20.994  0.00  0.00    +0.000 A 
ATOM      9  C   UNL     1      -1.526  14.925  21.232  0.00  0.00    +0.000 A 
ATOM     10  N   UNL     1      -0.710  15.866  21.585  0.00  0.00    +0.000 NA
ATOM     11  C   UNL     1       0.588  15.471  21.757  0.00  0.00    +0.000 A 
ATOM     12  N   UNL     1       1.634  16.198  22.092  0.00  0.00    +0.000 NA
ATOM     13  C   UNL     1       2.651  15.302  22.121  0.00  0.00    +0.000 A 
ATOM     14  N   UNL     1       2.336  14.040  21.842  0.00  0.00    +0.000 NA
ATOM     15  N   UNL     1       0.998  14.131  21.591  0.00  0.00    +0.000 N 
ATOM     16  C   UNL     1      -2.987  15.165  21.022  0.00  0.00    +0.000 C 
ATOM     17  C   UNL     1      -3.548  13.792  20.646  0.00  0.00    +0.000 C 
ATOM     18  C   UNL     1      -2.418  12.755  20.630  0.00  0.00    +0.000 C 
ENDBRANCH   4   7
BRANCH   1  20
ATOM     19  O   UNL     1       1.898   8.272  21.494  0.00  0.00    +0.000 OA
ATOM     20  C   UNL     1       1.492   8.257  20.338  0.00  0.00    +0.000 C 
ATOM     21  N   UNL     1       1.968   7.386  19.386  0.00  0.00    +0.000 N 
ATOM     22  H   UNL     1       1.533   7.360  18.472  0.00  0.00    +0.000 HD
BRANCH  21  23
ATOM     23  C   UNL     1       2.967   6.365  19.670  0.00  0.00    +0.000 C 
ATOM     24  C   UNL     1       4.196   6.518  18.764  0.00  0.00    +0.000 C 
ATOM     25  C   UNL     1       3.898   6.101  17.327  0.00  0.00    +0.000 C 
ATOM     26  C   UNL     1       3.393   4.661  17.235  0.00  0.00    +0.000 C 
ATOM     27  C   UNL     1       2.456   4.247  18.344  0.00  0.00    +0.000 A 
ATOM     28  C   UNL     1       1.756   3.036  18.220  0.00  0.00    +0.000 A 
ATOM     29  C   UNL     1       0.914   2.591  19.240  0.00  0.00    +0.000 A 
ATOM     30  C   UNL     1       0.775   3.340  20.404  0.00  0.00    +0.000 A 
ATOM     31  C   UNL     1       1.469   4.541  20.542  0.00  0.00    +0.000 A 
ATOM     32  C   UNL     1       2.311   5.008  19.517  0.00  0.00    +0.000 A 
ENDBRANCH  21  23
ENDBRANCH   1  20
TORSDOF 3
ENDMDL
MODEL 8
REMARK VINA RESULT:      -6.8      2.576      3.899
REMARK  Name = 
REMARK  3 active torsions:
REMARK  status: ('A' for Active; 'I' for Inactive)
REMARK    1  A    between atoms: C_2  and  C_14
REMARK    2  A    between atoms: N_3  and  C_4
REMARK    3  A    between atoms: N_17  and  C_18
REMARK                            x       y       z     vdW  Elec       q    Type
REMARK                         _______ _______ _______ _____ _____    ______ ____
ROOT
ATOM      1  C   UNL     1      -0.380   8.847  21.520  0.00  0.00    +0.000 C 
ATOM      2  C   UNL     1      -0.887   9.450  20.204  0.00  0.00    +0.000 C 
ATOM      3  C   UNL     1      -0.288  10.822  19.926  0.00  0.00    +0.000 C 
ATOM      4  N   UNL     1      -0.460  11.710  21.081  0.00  0.00    +0.000 N 
ATOM      5  C   UNL     1       0.084  11.223  22.349  0.00  0.00    +0.000 C 
ATOM      6  C   UNL     1      -0.500   9.850  22.676  0.00  0.00    +0.000 C 
ENDROOT
BRANCH   4   7
ATOM      7  C   UNL     1      -1.137  12.931  20.982  0.00  0.00    +0.000 A 
ATOM      8  C   UNL     1      -2.346  13.153  21.526  0.00  0.00    +0.000 A 
ATOM      9  C   UNL     1      -2.930  14.507  21.359  0.00  0.00    +0.000 A 
ATOM     10  N   UNL     1      -2.415  15.501  20.710  0.00  0.00    +0.000 NA
ATOM     11  C   UNL     1      -1.200  15.249  20.136  0.00  0.00    +0.000 A 
ATOM     12  N   UNL     1      -0.450  16.051  19.406  0.00  0.00    +0.000 NA
ATOM     13  C   UNL     1       0.633  15.292  19.108  0.00  0.00    +0.000 A 
ATOM     14  N   UNL     1       0.646  14.058  19.604  0.00  0.00    +0.000 NA
ATOM     15  N   UNL     1      -0.545  14.007  20.268  0.00  0.00    +0.000 N 
ATOM     16  C   UNL     1      -4.241  14.605  22.073  0.00  0.00    +0.000 C 
ATOM     17  C   UNL     1      -4.433  13.225  22.706  0.00  0.00    +0.000 C 
ATOM     18  C   UNL     1      -3.243  12.322  22.358  0.00  0.00    +0.000 C 
ENDBRANCH   4   7
BRANCH   1  20
ATOM     19  O   UNL     1       2.007   8.772  21.962  0.00  0.00    +0.000 OA
ATOM     20  C   UNL     1       1.038   8.295  21.383  0.00  0.00    +0.000 C 
ATOM     21  N   UNL     1       1.119   7.189  20.570  0.00  0.00    +0.000 N 
ATOM     22  H   UNL     1       0.271   6.787  20.189  0.00  0.00    +0.000 HD
BRANCH  21  23
ATOM     23  C   UNL     1       2.354   6.447  20.355  0.00  0.00    +0.000 C 
ATOM     24  C   UNL     1       3.152   7.021  19.177  0.00  0.00    +0.000 C 
ATOM     25  C   UNL     1       2.498   6.698  17.837  0.00  0.00    +0.000 C 
ATOM     26  C   UNL     1       2.319   5.195  17.627  0.00  0.00    +0.000 C 
ATOM     27  C   UNL     1       1.913   4.428  18.861  0.00  0.00    +0.000 A 
ATOM     28  C   UNL     1       1.495   3.094  18.722  0.00  0.00    +0.000 A 
ATOM     29  C   UNL     1       1.153   2.332  19.840  0.00  0.00    +0.000 A 
ATOM     30  C   UNL     1       1.244   2.885  21.113  0.00  0.00    +0.000 A 
ATOM     31  C   UNL     1       1.663   4.206  21.266  0.00  0.00    +0.000 A 
ATOM     32  C   UNL     1       1.998   4.989  20.147  0.00  0.00    +0.000 A 
ENDBRANCH  21  23
ENDBRANCH   1  20
TORSDOF 3
ENDMDL
MODEL 9
REMARK VINA RESULT:      -6.8      5.355      9.002
REMARK  Name = 
REMARK  3 active torsions:
REMARK  status: ('A' for Active; 'I' for Inactive)
REMARK    1  A    between atoms: C_2  and  C_14
REMARK    2  A    between atoms: N_3  and  C_4
REMARK    3  A    between atoms: N_17  and  C_18
REMARK                            x       y       z     vdW  Elec       q    Type
REMARK                         _______ _______ _______ _____ _____    ______ ____
ROOT
ATOM      1  C   UNL     1      -1.985  12.063  19.534  0.00  0.00    +0.000 C 
ATOM      2  C   UNL     1      -1.938  13.242  20.513  0.00  0.00    +0.000 C 
ATOM      3  C   UNL     1      -1.637  14.562  19.816  0.00  0.00    +0.000 C 
ATOM      4  N   UNL     1      -0.439  14.449  18.977  0.00  0.00    +0.000 N 
ATOM      5  C   UNL     1      -0.465  13.393  17.964  0.00  0.00    +0.000 C 
ATOM      6  C   UNL     1      -0.751  12.044  18.621  0.00  0.00    +0.000 C 
ENDROOT
BRANCH   4   7
ATOM      7  C   UNL     1       0.675  15.275  19.162  0.00  0.00    +0.000 A 
ATOM      8  C   UNL     1       1.750  14.918  19.887  0.00  0.00    +0.000 A 
ATOM      9  C   UNL     1       2.867  15.891  19.974  0.00  0.00    +0.000 A 
ATOM     10  N   UNL     1       2.909  17.075  19.452  0.00  0.00    +0.000 NA
ATOM     11  C   UNL     1       1.796  17.435  18.744  0.00  0.00    +0.000 A 
ATOM     12  N   UNL     1       1.545  18.570  18.124  0.00  0.00    +0.000 NA
ATOM     13  C   UNL     1       0.311  18.378  17.594  0.00  0.00    +0.000 A 
ATOM     14  N   UNL     1      -0.250  17.193  17.815  0.00  0.00    +0.000 NA
ATOM     15  N   UNL     1       0.697  16.568  18.573  0.00  0.00    +0.000 N 
ATOM     16  C   UNL     1       4.003  15.317  20.760  0.00  0.00    +0.000 C 
ATOM     17  C   UNL     1       3.525  13.917  21.151  0.00  0.00    +0.000 C 
ATOM     18  C   UNL     1       2.114  13.675  20.601  0.00  0.00    +0.000 C 
ENDBRANCH   4   7
BRANCH   1  20
ATOM     19  O   UNL     1      -3.376  11.600  17.597  0.00  0.00    +0.000 OA
ATOM     20  C   UNL     1      -3.290  12.038  18.738  0.00  0.00    +0.000 C 
ATOM     21  N   UNL     1      -4.368  12.526  19.438  0.00  0.00    +0.000 N 
ATOM     22  H   UNL     1      -4.253  12.791  20.409  0.00  0.00    +0.000 HD
BRANCH  21  23
ATOM     23  C   UNL     1      -5.726  12.526  18.911  0.00  0.00    +0.000 C 
ATOM     24  C   UNL     1      -6.436  13.856  19.198  0.00  0.00    +0.000 C 
ATOM     25  C   UNL     1      -6.802  13.997  20.672  0.00  0.00    +0.000 C 
ATOM     26  C   UNL     1      -7.686  12.850  21.162  0.00  0.00    +0.000 C 
ATOM     27  C   UNL     1      -7.325  11.493  20.607  0.00  0.00    +0.000 A 
ATOM     28  C   UNL     1      -7.916  10.353  21.174  0.00  0.00    +0.000 A 
ATOM     29  C   UNL     1      -7.647   9.081  20.665  0.00  0.00    +0.000 A 
ATOM     30  C   UNL     1      -6.801   8.934  19.571  0.00  0.00    +0.000 A 
ATOM     31  C   UNL     1      -6.212  10.059  18.995  0.00  0.00    +0.000 A 
ATOM     32  C   UNL     1      -6.464  11.345  19.506  0.00  0.00    +0.000 A 
ENDBRANCH  21  23
ENDBRANCH   1  20
TORSDOF 3
ENDMDL
