MODEL 1
REMARK VINA RESULT:      -7.8      0.000      0.000
REMARK  Name = 
REMARK  11 active torsions:
REMARK  status: ('A' for Active; 'I' for Inactive)
REMARK    1  A    between atoms: N_1  and  C_2
REMARK    2  A    between atoms: C_2  and  C_3
REMARK    3  A    between atoms: C_3  and  C_4
REMARK    4  A    between atoms: C_4  and  C_5
REMARK    5  A    between atoms: C_5  and  C_6
REMARK    6  A    between atoms: C_6  and  N_7
REMARK    7  A    between atoms: N_7  and  C_8
REMARK    8  A    between atoms: C_8  and  C_9
REMARK    9  A    between atoms: C_19  and  C_21
REMARK   10  A    between atoms: C_21  and  C_22
REMARK   11  A    between atoms: C_22  and  C_23
REMARK                            x       y       z     vdW  Elec       q    Type
REMARK                         _______ _______ _______ _____ _____    ______ ____
ROOT
ATOM      1  N   UNL     1       5.994   6.096  17.450  0.00  0.00    +0.000 N 
ATOM      2  C   UNL     1       6.262   4.734  17.270  0.00  0.00    +0.000 C 
ATOM      3  O   UNL     1       7.258   4.199  17.763  0.00  0.00    +0.000 OA
ENDROOT
BRANCH   1   4
ATOM      4  C   UNL     1       6.976   6.893  18.222  0.00  0.00    +0.000 C 
BRANCH   4   5
ATOM      5  C   UNL     1       7.801   7.816  17.324  0.00  0.00    +0.000 C 
BRANCH   5   6
ATOM      6  C   UNL     1       7.778   9.303  17.728  0.00  0.00    +0.000 C 
BRANCH   6   7
ATOM      7  C   UNL     1       9.099   9.636  18.441  0.00  0.00    +0.000 C 
BRANCH   7   8
ATOM      8  C   UNL     1       9.107  10.989  19.155  0.00  0.00    +0.000 C 
BRANCH   8   9
ATOM      9  N   UNL     1       9.666  10.818  20.497  0.00  0.00    +0.000 NA
ATOM     10  H   UNL     1       8.917  10.681  21.174  0.00  0.00    +0.000 HD
ATOM     11  H   UNL     1      10.155  11.667  20.779  0.00  0.00    +0.000 HD
ENDBRANCH   8   9
ENDBRANCH   7   8
ENDBRANCH   6   7
ENDBRANCH   5   6
ENDBRANCH   4   5
ENDBRANCH   1   4
BRANCH   1  12
ATOM     12  C   UNL     1       4.846   6.799  16.844  0.00  0.00    +0.000 C 
BRANCH  12  13
ATOM     13  C   UNL     1       3.731   7.096  17.816  0.00  0.00    +0.000 A 
ATOM     14  C   UNL     1       3.610   6.405  19.028  0.00  0.00    +0.000 A 
ATOM     15  C   UNL     1       2.653   6.792  19.971  0.00  0.00    +0.000 A 
ATOM     16  C   UNL     1       1.826   7.902  19.735  0.00  0.00    +0.000 A 
ATOM     17  C   UNL     1       0.976   8.415  20.729  0.00  0.00    +0.000 A 
ATOM     18  C   UNL     1       0.237   9.578  20.502  0.00  0.00    +0.000 A 
ATOM     19  C   UNL     1       0.285  10.203  19.259  0.00  0.00    +0.000 A 
ATOM     20  C   UNL     1       1.084   9.676  18.246  0.00  0.00    +0.000 A 
ATOM     21  C   UNL     1       1.891   8.554  18.485  0.00  0.00    +0.000 A 
ATOM     22  C   UNL     1       2.811   8.114  17.524  0.00  0.00    +0.000 A 
ENDBRANCH  12  13
ENDBRANCH   1  12
BRANCH   2  23
ATOM     23  C   UNL     1       5.278   3.944  16.425  0.00  0.00    +0.000 C 
BRANCH  23  24
ATOM     24  C   UNL     1       4.646   2.795  17.207  0.00  0.00    +0.000 C 
BRANCH  24  25
ATOM     25  C   UNL     1       3.309   3.180  17.758  0.00  0.00    +0.000 A 
ATOM     26  C   UNL     1       2.267   3.739  17.041  0.00  0.00    +0.000 A 
ATOM     27  N   UNL     1       1.210   3.925  17.889  0.00  0.00    +0.000 N 
ATOM     28  C   UNL     1       1.535   3.492  19.154  0.00  0.00    +0.000 A 
ATOM     29  C   UNL     1       0.766   3.478  20.325  0.00  0.00    +0.000 A 
ATOM     30  C   UNL     1       1.364   2.979  21.487  0.00  0.00    +0.000 A 
ATOM     31  C   UNL     1       2.679   2.518  21.475  0.00  0.00    +0.000 A 
ATOM     32  C   UNL     1       3.431   2.538  20.295  0.00  0.00    +0.000 A 
ATOM     33  C   UNL     1       2.851   3.031  19.107  0.00  0.00    +0.000 A 
ATOM     34  H   UNL     1       0.319   4.322  17.632  0.00  0.00    +0.000 HD
ENDBRANCH  24  25
ENDBRANCH  23  24
ENDBRANCH   2  23
TORSDOF 11
ENDMDL
MODEL 2
REMARK VINA RESULT:      -7.7      2.748      6.249
REMARK  Name = 
REMARK  11 active torsions:
REMARK  status: ('A' for Active; 'I' for Inactive)
REMARK    1  A    between atoms: N_1  and  C_2
REMARK    2  A    between atoms: C_2  and  C_3
REMARK    3  A    between atoms: C_3  and  C_4
REMARK    4  A    between atoms: C_4  and  C_5
REMARK    5  A    between atoms: C_5  and  C_6
REMARK    6  A    between atoms: C_6  and  N_7
REMARK    7  A    between atoms: N_7  and  C_8
REMARK    8  A    between atoms: C_8  and  C_9
REMARK    9  A    between atoms: C_19  and  C_21
REMARK   10  A    between atoms: C_21  and  C_22
REMARK   11  A    between atoms: C_22  and  C_23
REMARK                            x       y       z     vdW  Elec       q    Type
REMARK                         _______ _______ _______ _____ _____    ______ ____
ROOT
ATOM      1  N   UNL     1       2.259   4.733  18.980  0.00  0.00    +0.000 N 
ATOM      2  C   UNL     1       2.408   4.144  17.719  0.00  0.00    +0.000 C 
ATOM      3  O   UNL     1       1.714   3.189  17.363  0.00  0.00    +0.000 OA
ENDROOT
BRANCH   1   4
ATOM      4  C   UNL     1       1.261   4.140  19.901  0.00  0.00    +0.000 C 
BRANCH   4   5
ATOM      5  C   UNL     1       1.667   2.740  20.365  0.00  0.00    +0.000 C 
BRANCH   5   6
ATOM      6  C   UNL     1       3.038   2.661  21.065  0.00  0.00    +0.000 C 
BRANCH   6   7
ATOM      7  C   UNL     1       4.102   2.295  20.018  0.00  0.00    +0.000 C 
BRANCH   7   8
ATOM      8  C   UNL     1       4.958   1.081  20.386  0.00  0.00    +0.000 C 
BRANCH   8   9
ATOM      9  N   UNL     1       5.545   1.295  21.710  0.00  0.00    +0.000 NA
ATOM     10  H   UNL     1       6.542   1.490  21.623  0.00  0.00    +0.000 HD
ATOM     11  H   UNL     1       5.467   0.443  22.264  0.00  0.00    +0.000 HD
ENDBRANCH   8   9
ENDBRANCH   7   8
ENDBRANCH   6   7
ENDBRANCH   5   6
ENDBRANCH   4   5
ENDBRANCH   1   4
BRANCH   1  12
ATOM     12  C   UNL     1       3.094   5.844  19.476  0.00  0.00    +0.000 C 
BRANCH  12  13
ATOM     13  C   UNL     1       2.427   7.195  19.387  0.00  0.00    +0.000 A 
ATOM     14  C   UNL     1       2.348   7.896  18.177  0.00  0.00    +0.000 A 
ATOM     15  C   UNL     1       1.607   9.079  18.092  0.00  0.00    +0.000 A 
ATOM     16  C   UNL     1       0.899   9.560  19.205  0.00  0.00    +0.000 A 
ATOM     17  C   UNL     1       0.015  10.646  19.104  0.00  0.00    +0.000 A 
ATOM     18  C   UNL     1      -0.751  11.043  20.203  0.00  0.00    +0.000 A 
ATOM     19  C   UNL     1      -0.592  10.406  21.430  0.00  0.00    +0.000 A 
ATOM     20  C   UNL     1       0.320   9.360  21.558  0.00  0.00    +0.000 A 
ATOM     21  C   UNL     1       1.038   8.900  20.445  0.00  0.00    +0.000 A 
ATOM     22  C   UNL     1       1.836   7.752  20.531  0.00  0.00    +0.000 A 
ENDBRANCH  12  13
ENDBRANCH   1  12
BRANCH   2  23
ATOM     23  C   UNL     1       3.477   4.725  16.809  0.00  0.00    +0.000 C 
BRANCH  23  24
ATOM     24  C   UNL     1       4.662   3.778  16.640  0.00  0.00    +0.000 C 
BRANCH  24  25
ATOM     25  C   UNL     1       5.768   4.422  15.865  0.00  0.00    +0.000 A 
ATOM     26  C   UNL     1       6.704   5.306  16.370  0.00  0.00    +0.000 A 
ATOM     27  N   UNL     1       7.560   5.652  15.360  0.00  0.00    +0.000 N 
ATOM     28  C   UNL     1       7.208   5.006  14.198  0.00  0.00    +0.000 A 
ATOM     29  C   UNL     1       7.801   5.050  12.929  0.00  0.00    +0.000 A 
ATOM     30  C   UNL     1       7.220   4.283  11.915  0.00  0.00    +0.000 A 
ATOM     31  C   UNL     1       6.088   3.509  12.161  0.00  0.00    +0.000 A 
ATOM     32  C   UNL     1       5.509   3.476  13.436  0.00  0.00    +0.000 A 
ATOM     33  C   UNL     1       6.079   4.236  14.479  0.00  0.00    +0.000 A 
ATOM     34  H   UNL     1       8.337   6.290  15.448  0.00  0.00    +0.000 HD
ENDBRANCH  24  25
ENDBRANCH  23  24
ENDBRANCH   2  23
TORSDOF 11
ENDMDL
MODEL 3
REMARK VINA RESULT:      -7.5      2.384      6.192
REMARK  Name = 
REMARK  11 active torsions:
REMARK  status: ('A' for Active; 'I' for Inactive)
REMARK    1  A    between atoms: N_1  and  C_2
REMARK    2  A    between atoms: C_2  and  C_3
REMARK    3  A    between atoms: C_3  and  C_4
REMARK    4  A    between atoms: C_4  and  C_5
REMARK    5  A    between atoms: C_5  and  C_6
REMARK    6  A    between atoms: C_6  and  N_7
REMARK    7  A    between atoms: N_7  and  C_8
REMARK    8  A    between atoms: C_8  and  C_9
REMARK    9  A    between atoms: C_19  and  C_21
REMARK   10  A    between atoms: C_21  and  C_22
REMARK   11  A    between atoms: C_22  and  C_23
REMARK                            x       y       z     vdW  Elec       q    Type
REMARK                         _______ _______ _______ _____ _____    ______ ____
ROOT
ATOM      1  N   UNL     1       4.397   5.238  18.845  0.00  0.00    +0.000 N 
ATOM      2  C   UNL     1       5.759   5.561  18.821  0.00  0.00    +0.000 C 
ATOM      3  O   UNL     1       6.548   5.105  19.653  0.00  0.00    +0.000 OA
ENDROOT
BRANCH   1   4
ATOM      4  C   UNL     1       3.919   4.359  19.938  0.00  0.00    +0.000 C 
BRANCH   4   5
ATOM      5  C   UNL     1       4.318   2.899  19.717  0.00  0.00    +0.000 C 
BRANCH   5   6
ATOM      6  C   UNL     1       3.243   2.028  19.038  0.00  0.00    +0.000 C 
BRANCH   6   7
ATOM      7  C   UNL     1       1.894   2.292  19.728  0.00  0.00    +0.000 C 
BRANCH   7   8
ATOM      8  C   UNL     1       0.714   2.451  18.767  0.00  0.00    +0.000 C 
BRANCH   8   9
ATOM      9  N   UNL     1       1.026   3.503  17.798  0.00  0.00    +0.000 NA
ATOM     10  H   UNL     1       1.829   3.231  17.232  0.00  0.00    +0.000 HD
ATOM     11  H   UNL     1       1.298   4.355  18.289  0.00  0.00    +0.000 HD
ENDBRANCH   8   9
ENDBRANCH   7   8
ENDBRANCH   6   7
ENDBRANCH   5   6
ENDBRANCH   4   5
ENDBRANCH   1   4
BRANCH   1  12
ATOM     12  C   UNL     1       3.401   5.792  17.907  0.00  0.00    +0.000 C 
BRANCH  12  13
ATOM     13  C   UNL     1       2.754   7.069  18.387  0.00  0.00    +0.000 A 
ATOM     14  C   UNL     1       2.576   8.166  17.536  0.00  0.00    +0.000 A 
ATOM     15  C   UNL     1       1.853   9.284  17.963  0.00  0.00    +0.000 A 
ATOM     16  C   UNL     1       1.261   9.307  19.237  0.00  0.00    +0.000 A 
ATOM     17  C   UNL     1       0.392  10.338  19.629  0.00  0.00    +0.000 A 
ATOM     18  C   UNL     1      -0.259  10.287  20.864  0.00  0.00    +0.000 A 
ATOM     19  C   UNL     1       0.001   9.244  21.747  0.00  0.00    +0.000 A 
ATOM     20  C   UNL     1       0.901   8.240  21.393  0.00  0.00    +0.000 A 
ATOM     21  C   UNL     1       1.502   8.237  20.126  0.00  0.00    +0.000 A 
ATOM     22  C   UNL     1       2.284   7.152  19.706  0.00  0.00    +0.000 A 
ENDBRANCH  12  13
ENDBRANCH   1  12
BRANCH   2  23
ATOM     23  C   UNL     1       6.223   6.512  17.731  0.00  0.00    +0.000 C 
BRANCH  23  24
ATOM     24  C   UNL     1       7.340   5.910  16.884  0.00  0.00    +0.000 C 
BRANCH  24  25
ATOM     25  C   UNL     1       6.804   4.916  15.901  0.00  0.00    +0.000 A 
ATOM     26  C   UNL     1       5.953   3.866  16.192  0.00  0.00    +0.000 A 
ATOM     27  N   UNL     1       5.672   3.202  15.029  0.00  0.00    +0.000 N 
ATOM     28  C   UNL     1       6.320   3.800  13.973  0.00  0.00    +0.000 A 
ATOM     29  C   UNL     1       6.315   3.471  12.612  0.00  0.00    +0.000 A 
ATOM     30  C   UNL     1       7.082   4.262  11.751  0.00  0.00    +0.000 A 
ATOM     31  C   UNL     1       7.828   5.333  12.236  0.00  0.00    +0.000 A 
ATOM     32  C   UNL     1       7.820   5.649  13.600  0.00  0.00    +0.000 A 
ATOM     33  C   UNL     1       7.050   4.872  14.491  0.00  0.00    +0.000 A 
ATOM     34  H   UNL     1       5.078   2.390  14.951  0.00  0.00    +0.000 HD
ENDBRANCH  24  25
ENDBRANCH  23  24
ENDBRANCH   2  23
TORSDOF 11
ENDMDL
MODEL 4
REMARK VINA RESULT:      -7.5      2.775      6.276
REMARK  Name = 
REMARK  11 active torsions:
REMARK  status: ('A' for Active; 'I' for Inactive)
REMARK    1  A    between atoms: N_1  and  C_2
REMARK    2  A    between atoms: C_2  and  C_3
REMARK    3  A    between atoms: C_3  and  C_4
REMARK    4  A    between atoms: C_4  and  C_5
REMARK    5  A    between atoms: C_5  and  C_6
REMARK    6  A    between atoms: C_6  and  N_7
REMARK    7  A    between atoms: N_7  and  C_8
REMARK    8  A    between atoms: C_8  and  C_9
REMARK    9  A    between atoms: C_19  and  C_21
REMARK   10  A    between atoms: C_21  and  C_22
REMARK   11  A    between atoms: C_22  and  C_23
REMARK                            x       y       z     vdW  Elec       q    Type
REMARK                         _______ _______ _______ _____ _____    ______ ____
ROOT
ATOM      1  N   UNL     1       3.100   5.810  19.284  0.00  0.00    +0.000 N 
ATOM      2  C   UNL     1       4.425   5.478  18.975  0.00  0.00    +0.000 C 
ATOM      3  O   UNL     1       5.128   4.828  19.752  0.00  0.00    +0.000 OA
ENDROOT
BRANCH   1   4
ATOM      4  C   UNL     1       2.579   5.391  20.605  0.00  0.00    +0.000 C 
BRANCH   4   5
ATOM      5  C   UNL     1       1.607   4.214  20.493  0.00  0.00    +0.000 C 
BRANCH   5   6
ATOM      6  C   UNL     1       2.271   2.824  20.478  0.00  0.00    +0.000 C 
BRANCH   6   7
ATOM      7  C   UNL     1       2.338   2.329  19.024  0.00  0.00    +0.000 C 
BRANCH   7   8
ATOM      8  C   UNL     1       3.635   1.603  18.663  0.00  0.00    +0.000 C 
BRANCH   8   9
ATOM      9  N   UNL     1       4.664   1.947  19.646  0.00  0.00    +0.000 NA
ATOM     10  H   UNL     1       4.755   2.959  19.717  0.00  0.00    +0.000 HD
ATOM     11  H   UNL     1       5.571   1.599  19.333  0.00  0.00    +0.000 HD
ENDBRANCH   8   9
ENDBRANCH   7   8
ENDBRANCH   6   7
ENDBRANCH   5   6
ENDBRANCH   4   5
ENDBRANCH   1   4
BRANCH   1  12
ATOM     12  C   UNL     1       2.229   6.626  18.415  0.00  0.00    +0.000 C 
BRANCH  12  13
ATOM     13  C   UNL     1       1.826   7.947  19.024  0.00  0.00    +0.000 A 
ATOM     14  C   UNL     1       1.738   9.114  18.254  0.00  0.00    +0.000 A 
ATOM     15  C   UNL     1       1.231  10.292  18.811  0.00  0.00    +0.000 A 
ATOM     16  C   UNL     1       0.766  10.314  20.135  0.00  0.00    +0.000 A 
ATOM     17  C   UNL     1       0.099  11.431  20.665  0.00  0.00    +0.000 A 
ATOM     18  C   UNL     1      -0.440  11.390  21.954  0.00  0.00    +0.000 A 
ATOM     19  C   UNL     1      -0.261  10.263  22.750  0.00  0.00    +0.000 A 
ATOM     20  C   UNL     1       0.444   9.167  22.256  0.00  0.00    +0.000 A 
ATOM     21  C   UNL     1       0.923   9.163  20.938  0.00  0.00    +0.000 A 
ATOM     22  C   UNL     1       1.493   8.008  20.385  0.00  0.00    +0.000 A 
ENDBRANCH  12  13
ENDBRANCH   1  12
BRANCH   2  23
ATOM     23  C   UNL     1       4.965   5.968  17.642  0.00  0.00    +0.000 C 
BRANCH  23  24
ATOM     24  C   UNL     1       4.805   4.923  16.541  0.00  0.00    +0.000 C 
BRANCH  24  25
ATOM     25  C   UNL     1       5.900   5.028  15.527  0.00  0.00    +0.000 A 
ATOM     26  C   UNL     1       7.098   5.700  15.693  0.00  0.00    +0.000 A 
ATOM     27  N   UNL     1       7.841   5.546  14.555  0.00  0.00    +0.000 N 
ATOM     28  C   UNL     1       7.157   4.778  13.641  0.00  0.00    +0.000 A 
ATOM     29  C   UNL     1       7.532   4.358  12.359  0.00  0.00    +0.000 A 
ATOM     30  C   UNL     1       6.621   3.578  11.640  0.00  0.00    +0.000 A 
ATOM     31  C   UNL     1       5.384   3.238  12.183  0.00  0.00    +0.000 A 
ATOM     32  C   UNL     1       5.026   3.665  13.467  0.00  0.00    +0.000 A 
ATOM     33  C   UNL     1       5.929   4.449  14.217  0.00  0.00    +0.000 A 
ATOM     34  H   UNL     1       8.758   5.937  14.401  0.00  0.00    +0.000 HD
ENDBRANCH  24  25
ENDBRANCH  23  24
ENDBRANCH   2  23
TORSDOF 11
ENDMDL
MODEL 5
REMARK VINA RESULT:      -7.4      2.878      7.621
REMARK  Name = 
REMARK  11 active torsions:
REMARK  status: ('A' for Active; 'I' for Inactive)
REMARK    1  A    between atoms: N_1  and  C_2
REMARK    2  A    between atoms: C_2  and  C_3
REMARK    3  A    between atoms: C_3  and  C_4
REMARK    4  A    between atoms: C_4  and  C_5
REMARK    5  A    between atoms: C_5  and  C_6
REMARK    6  A    between atoms: C_6  and  N_7
REMARK    7  A    between atoms: N_7  and  C_8
REMARK    8  A    between atoms: C_8  and  C_9
REMARK    9  A    between atoms: C_19  and  C_21
REMARK   10  A    between atoms: C_21  and  C_22
REMARK   11  A    between atoms: C_22  and  C_23
REMARK                            x       y       z     vdW  Elec       q    Type
REMARK                         _______ _______ _______ _____ _____    ______ ____
ROOT
ATOM      1  N   UNL     1       3.516   4.042  17.777  0.00  0.00    +0.000 N 
ATOM      2  C   UNL     1       2.680   5.156  17.914  0.00  0.00    +0.000 C 
ATOM      3  O   UNL     1       1.455   5.066  17.795  0.00  0.00    +0.000 OA
ENDROOT
BRANCH   1   4
ATOM      4  C   UNL     1       2.883   2.747  17.438  0.00  0.00    +0.000 C 
BRANCH   4   5
ATOM      5  C   UNL     1       3.013   1.728  18.572  0.00  0.00    +0.000 C 
BRANCH   5   6
ATOM      6  C   UNL     1       2.021   1.924  19.735  0.00  0.00    +0.000 C 
BRANCH   6   7
ATOM      7  C   UNL     1       2.721   2.726  20.844  0.00  0.00    +0.000 C 
BRANCH   7   8
ATOM      8  C   UNL     1       1.910   3.908  21.377  0.00  0.00    +0.000 C 
BRANCH   8   9
ATOM      9  N   UNL     1       0.710   4.073  20.553  0.00  0.00    +0.000 NA
ATOM     10  H   UNL     1       0.309   3.162  20.334  0.00  0.00    +0.000 HD
ATOM     11  H   UNL     1       0.960   4.498  19.660  0.00  0.00    +0.000 HD
ENDBRANCH   8   9
ENDBRANCH   7   8
ENDBRANCH   6   7
ENDBRANCH   5   6
ENDBRANCH   4   5
ENDBRANCH   1   4
BRANCH   1  12
ATOM     12  C   UNL     1       4.989   4.100  17.861  0.00  0.00    +0.000 C 
BRANCH  12  13
ATOM     13  C   UNL     1       5.658   4.495  16.567  0.00  0.00    +0.000 A 
ATOM     14  C   UNL     1       6.761   5.357  16.544  0.00  0.00    +0.000 A 
ATOM     15  C   UNL     1       7.447   5.598  15.350  0.00  0.00    +0.000 A 
ATOM     16  C   UNL     1       7.066   4.949  14.164  0.00  0.00    +0.000 A 
ATOM     17  C   UNL     1       7.835   5.040  12.992  0.00  0.00    +0.000 A 
ATOM     18  C   UNL     1       7.486   4.307  11.856  0.00  0.00    +0.000 A 
ATOM     19  C   UNL     1       6.331   3.531  11.853  0.00  0.00    +0.000 A 
ATOM     20  C   UNL     1       5.530   3.472  12.992  0.00  0.00    +0.000 A 
ATOM     21  C   UNL     1       5.909   4.140  14.165  0.00  0.00    +0.000 A 
ATOM     22  C   UNL     1       5.193   3.959  15.357  0.00  0.00    +0.000 A 
ENDBRANCH  12  13
ENDBRANCH   1  12
BRANCH   2  23
ATOM     23  C   UNL     1       3.349   6.489  18.202  0.00  0.00    +0.000 C 
BRANCH  23  24
ATOM     24  C   UNL     1       2.403   7.666  17.979  0.00  0.00    +0.000 C 
BRANCH  24  25
ATOM     25  C   UNL     1       1.815   8.145  19.269  0.00  0.00    +0.000 A 
ATOM     26  C   UNL     1       1.977   7.547  20.505  0.00  0.00    +0.000 A 
ATOM     27  N   UNL     1       1.309   8.293  21.437  0.00  0.00    +0.000 N 
ATOM     28  C   UNL     1       0.712   9.378  20.837  0.00  0.00    +0.000 A 
ATOM     29  C   UNL     1      -0.057  10.406  21.397  0.00  0.00    +0.000 A 
ATOM     30  C   UNL     1      -0.549  11.391  20.535  0.00  0.00    +0.000 A 
ATOM     31  C   UNL     1      -0.285  11.343  19.168  0.00  0.00    +0.000 A 
ATOM     32  C   UNL     1       0.487  10.309  18.626  0.00  0.00    +0.000 A 
ATOM     33  C   UNL     1       1.001   9.305  19.473  0.00  0.00    +0.000 A 
ATOM     34  H   UNL     1       1.255   8.084  22.423  0.00  0.00    +0.000 HD
ENDBRANCH  24  25
ENDBRANCH  23  24
ENDBRANCH   2  23
TORSDOF 11
ENDMDL
MODEL 6
REMARK VINA RESULT:      -7.4      2.908      7.632
REMARK  Name = 
REMARK  11 active torsions:
REMARK  status: ('A' for Active; 'I' for Inactive)
REMARK    1  A    between atoms: N_1  and  C_2
REMARK    2  A    between atoms: C_2  and  C_3
REMARK    3  A    between atoms: C_3  and  C_4
REMARK    4  A    between atoms: C_4  and  C_5
REMARK    5  A    between atoms: C_5  and  C_6
REMARK    6  A    between atoms: C_6  and  N_7
REMARK    7  A    between atoms: N_7  and  C_8
REMARK    8  A    between atoms: C_8  and  C_9
REMARK    9  A    between atoms: C_19  and  C_21
REMARK   10  A    between atoms: C_21  and  C_22
REMARK   11  A    between atoms: C_22  and  C_23
REMARK                            x       y       z     vdW  Elec       q    Type
REMARK                         _______ _______ _______ _____ _____    ______ ____
ROOT
ATOM      1  N   UNL     1       3.422   4.144  17.788  0.00  0.00    +0.000 N 
ATOM      2  C   UNL     1       2.528   5.211  17.932  0.00  0.00    +0.000 C 
ATOM      3  O   UNL     1       1.313   5.065  17.781  0.00  0.00    +0.000 OA
ENDROOT
BRANCH   1   4
ATOM      4  C   UNL     1       2.862   2.828  17.401  0.00  0.00    +0.000 C 
BRANCH   4   5
ATOM      5  C   UNL     1       3.388   1.696  18.286  0.00  0.00    +0.000 C 
BRANCH   5   6
ATOM      6  C   UNL     1       3.066   1.844  19.787  0.00  0.00    +0.000 C 
BRANCH   6   7
ATOM      7  C   UNL     1       1.582   2.216  19.933  0.00  0.00    +0.000 C 
BRANCH   7   8
ATOM      8  C   UNL     1       1.308   3.332  20.944  0.00  0.00    +0.000 C 
BRANCH   8   9
ATOM      9  N   UNL     1       1.822   2.927  22.254  0.00  0.00    +0.000 NA
ATOM     10  H   UNL     1       1.546   3.605  22.962  0.00  0.00    +0.000 HD
ATOM     11  H   UNL     1       2.842   2.927  22.239  0.00  0.00    +0.000 HD
ENDBRANCH   8   9
ENDBRANCH   7   8
ENDBRANCH   6   7
ENDBRANCH   5   6
ENDBRANCH   4   5
ENDBRANCH   1   4
BRANCH   1  12
ATOM     12  C   UNL     1       4.888   4.272  17.909  0.00  0.00    +0.000 C 
BRANCH  12  13
ATOM     13  C   UNL     1       5.578   4.617  16.612  0.00  0.00    +0.000 A 
ATOM     14  C   UNL     1       6.701   5.453  16.578  0.00  0.00    +0.000 A 
ATOM     15  C   UNL     1       7.404   5.646  15.385  0.00  0.00    +0.000 A 
ATOM     16  C   UNL     1       7.020   4.975  14.213  0.00  0.00    +0.000 A 
ATOM     17  C   UNL     1       7.802   5.017  13.047  0.00  0.00    +0.000 A 
ATOM     18  C   UNL     1       7.448   4.263  11.926  0.00  0.00    +0.000 A 
ATOM     19  C   UNL     1       6.275   3.513  11.932  0.00  0.00    +0.000 A 
ATOM     20  C   UNL     1       5.462   3.503  13.064  0.00  0.00    +0.000 A 
ATOM     21  C   UNL     1       5.844   4.193  14.223  0.00  0.00    +0.000 A 
ATOM     22  C   UNL     1       5.113   4.060  15.411  0.00  0.00    +0.000 A 
ENDBRANCH  12  13
ENDBRANCH   1  12
BRANCH   2  23
ATOM     23  C   UNL     1       3.124   6.568  18.269  0.00  0.00    +0.000 C 
BRANCH  23  24
ATOM     24  C   UNL     1       2.461   7.196  19.492  0.00  0.00    +0.000 C 
BRANCH  24  25
ATOM     25  C   UNL     1       1.744   8.460  19.134  0.00  0.00    +0.000 A 
ATOM     26  C   UNL     1       1.740   9.066  17.892  0.00  0.00    +0.000 A 
ATOM     27  N   UNL     1       0.953  10.184  17.959  0.00  0.00    +0.000 N 
ATOM     28  C   UNL     1       0.432  10.322  19.224  0.00  0.00    +0.000 A 
ATOM     29  C   UNL     1      -0.425  11.301  19.742  0.00  0.00    +0.000 A 
ATOM     30  C   UNL     1      -0.794  11.195  21.087  0.00  0.00    +0.000 A 
ATOM     31  C   UNL     1      -0.317  10.153  21.880  0.00  0.00    +0.000 A 
ATOM     32  C   UNL     1       0.538   9.182  21.345  0.00  0.00    +0.000 A 
ATOM     33  C   UNL     1       0.921   9.262  19.989  0.00  0.00    +0.000 A 
ATOM     34  H   UNL     1       0.778  10.819  17.195  0.00  0.00    +0.000 HD
ENDBRANCH  24  25
ENDBRANCH  23  24
ENDBRANCH   2  23
TORSDOF 11
ENDMDL
MODEL 7
REMARK VINA RESULT:      -7.3      2.375      5.603
REMARK  Name = 
REMARK  11 active torsions:
REMARK  status: ('A' for Active; 'I' for Inactive)
REMARK    1  A    between atoms: N_1  and  C_2
REMARK    2  A    between atoms: C_2  and  C_3
REMARK    3  A    between atoms: C_3  and  C_4
REMARK    4  A    between atoms: C_4  and  C_5
REMARK    5  A    between atoms: C_5  and  C_6
REMARK    6  A    between atoms: C_6  and  N_7
REMARK    7  A    between atoms: N_7  and  C_8
REMARK    8  A    between atoms: C_8  and  C_9
REMARK    9  A    between atoms: C_19  and  C_21
REMARK   10  A    between atoms: C_21  and  C_22
REMARK   11  A    between atoms: C_22  and  C_23
REMARK                            x       y       z     vdW  Elec       q    Type
REMARK                         _______ _______ _______ _____ _____    ______ ____
ROOT
ATOM      1  N   UNL     1       1.841   4.412  19.554  0.00  0.00    +0.000 N 
ATOM      2  C   UNL     1       1.657   3.806  18.306  0.00  0.00    +0.000 C 
ATOM      3  O   UNL     1       0.922   2.825  18.163  0.00  0.00    +0.000 OA
ENDROOT
BRANCH   1   4
ATOM      4  C   UNL     1       1.153   3.807  20.718  0.00  0.00    +0.000 C 
BRANCH   4   5
ATOM      5  C   UNL     1       2.134   3.402  21.820  0.00  0.00    +0.000 C 
BRANCH   5   6
ATOM      6  C   UNL     1       2.908   2.096  21.551  0.00  0.00    +0.000 C 
BRANCH   6   7
ATOM      7  C   UNL     1       3.960   2.367  20.464  0.00  0.00    +0.000 C 
BRANCH   7   8
ATOM      8  C   UNL     1       5.118   1.367  20.444  0.00  0.00    +0.000 C 
BRANCH   8   9
ATOM      9  N   UNL     1       5.510   1.062  21.822  0.00  0.00    +0.000 NA
ATOM     10  H   UNL     1       4.895   1.545  22.475  0.00  0.00    +0.000 HD
ATOM     11  H   UNL     1       6.450   1.416  22.000  0.00  0.00    +0.000 HD
ENDBRANCH   8   9
ENDBRANCH   7   8
ENDBRANCH   6   7
ENDBRANCH   5   6
ENDBRANCH   4   5
ENDBRANCH   1   4
BRANCH   1  12
ATOM     12  C   UNL     1       2.745   5.554  19.792  0.00  0.00    +0.000 C 
BRANCH  12  13
ATOM     13  C   UNL     1       2.037   6.886  19.869  0.00  0.00    +0.000 A 
ATOM     14  C   UNL     1       1.248   7.234  20.972  0.00  0.00    +0.000 A 
ATOM     15  C   UNL     1       0.716   8.522  21.083  0.00  0.00    +0.000 A 
ATOM     16  C   UNL     1       0.998   9.497  20.112  0.00  0.00    +0.000 A 
ATOM     17  C   UNL     1       0.620  10.839  20.282  0.00  0.00    +0.000 A 
ATOM     18  C   UNL     1       0.998  11.807  19.348  0.00  0.00    +0.000 A 
ATOM     19  C   UNL     1       1.697  11.436  18.203  0.00  0.00    +0.000 A 
ATOM     20  C   UNL     1       2.033  10.100  17.995  0.00  0.00    +0.000 A 
ATOM     21  C   UNL     1       1.729   9.130  18.961  0.00  0.00    +0.000 A 
ATOM     22  C   UNL     1       2.201   7.816  18.833  0.00  0.00    +0.000 A 
ENDBRANCH  12  13
ENDBRANCH   1  12
BRANCH   2  23
ATOM     23  C   UNL     1       2.417   4.401  17.132  0.00  0.00    +0.000 C 
BRANCH  23  24
ATOM     24  C   UNL     1       3.764   3.716  16.916  0.00  0.00    +0.000 C 
BRANCH  24  25
ATOM     25  C   UNL     1       4.840   4.713  16.619  0.00  0.00    +0.000 A 
ATOM     26  C   UNL     1       5.053   5.339  15.405  0.00  0.00    +0.000 A 
ATOM     27  N   UNL     1       6.112   6.194  15.540  0.00  0.00    +0.000 N 
ATOM     28  C   UNL     1       6.600   6.147  16.826  0.00  0.00    +0.000 A 
ATOM     29  C   UNL     1       7.657   6.853  17.413  0.00  0.00    +0.000 A 
ATOM     30  C   UNL     1       7.939   6.597  18.759  0.00  0.00    +0.000 A 
ATOM     31  C   UNL     1       7.195   5.668  19.483  0.00  0.00    +0.000 A 
ATOM     32  C   UNL     1       6.140   4.973  18.879  0.00  0.00    +0.000 A 
ATOM     33  C   UNL     1       5.830   5.216  17.524  0.00  0.00    +0.000 A 
ATOM     34  H   UNL     1       6.488   6.777  14.807  0.00  0.00    +0.000 HD
ENDBRANCH  24  25
ENDBRANCH  23  24
ENDBRANCH   2  23
TORSDOF 11
ENDMDL
MODEL 8
REMARK VINA RESULT:      -7.3      2.393      3.809
REMARK  Name = 
REMARK  11 active torsions:
REMARK  status: ('A' for Active; 'I' for Inactive)
REMARK    1  A    between atoms: N_1  and  C_2
REMARK    2  A    between atoms: C_2  and  C_3
REMARK    3  A    between atoms: C_3  and  C_4
REMARK    4  A    between atoms: C_4  and  C_5
REMARK    5  A    between atoms: C_5  and  C_6
REMARK    6  A    between atoms: C_6  and  N_7
REMARK    7  A    between atoms: N_7  and  C_8
REMARK    8  A    between atoms: C_8  and  C_9
REMARK    9  A    between atoms: C_19  and  C_21
REMARK   10  A    between atoms: C_21  and  C_22
REMARK   11  A    between atoms: C_22  and  C_23
REMARK                            x       y       z     vdW  Elec       q    Type
REMARK                         _______ _______ _______ _____ _____    ______ ____
ROOT
ATOM      1  N   UNL     1       4.914   6.293  17.469  0.00  0.00    +0.000 N 
ATOM      2  C   UNL     1       5.896   5.788  18.330  0.00  0.00    +0.000 C 
ATOM      3  O   UNL     1       7.099   5.936  18.099  0.00  0.00    +0.000 OA
ENDROOT
BRANCH   1   4
ATOM      4  C   UNL     1       5.368   6.978  16.236  0.00  0.00    +0.000 C 
BRANCH   4   5
ATOM      5  C   UNL     1       5.143   6.123  14.987  0.00  0.00    +0.000 C 
BRANCH   5   6
ATOM      6  C   UNL     1       5.458   4.625  15.162  0.00  0.00    +0.000 C 
BRANCH   6   7
ATOM      7  C   UNL     1       6.799   4.324  14.474  0.00  0.00    +0.000 C 
BRANCH   7   8
ATOM      8  C   UNL     1       6.711   4.185  12.953  0.00  0.00    +0.000 C 
BRANCH   8   9
ATOM      9  N   UNL     1       6.186   2.858  12.625  0.00  0.00    +0.000 NA
ATOM     10  H   UNL     1       6.953   2.196  12.517  0.00  0.00    +0.000 HD
ATOM     11  H   UNL     1       5.706   2.889  11.725  0.00  0.00    +0.000 HD
ENDBRANCH   8   9
ENDBRANCH   7   8
ENDBRANCH   6   7
ENDBRANCH   5   6
ENDBRANCH   4   5
ENDBRANCH   1   4
BRANCH   1  12
ATOM     12  C   UNL     1       3.464   6.104  17.670  0.00  0.00    +0.000 C 
BRANCH  12  13
ATOM     13  C   UNL     1       2.773   7.297  18.285  0.00  0.00    +0.000 A 
ATOM     14  C   UNL     1       2.500   8.451  17.540  0.00  0.00    +0.000 A 
ATOM     15  C   UNL     1       1.739   9.486  18.091  0.00  0.00    +0.000 A 
ATOM     16  C   UNL     1       1.203   9.368  19.384  0.00  0.00    +0.000 A 
ATOM     17  C   UNL     1       0.300  10.312  19.898  0.00  0.00    +0.000 A 
ATOM     18  C   UNL     1      -0.294  10.120  21.148  0.00  0.00    +0.000 A 
ATOM     19  C   UNL     1       0.059   9.022  21.926  0.00  0.00    +0.000 A 
ATOM     20  C   UNL     1       0.994   8.104  21.451  0.00  0.00    +0.000 A 
ATOM     21  C   UNL     1       1.539   8.242  20.166  0.00  0.00    +0.000 A 
ATOM     22  C   UNL     1       2.357   7.242  19.623  0.00  0.00    +0.000 A 
ENDBRANCH  12  13
ENDBRANCH   1  12
BRANCH   2  23
ATOM     23  C   UNL     1       5.415   5.036  19.559  0.00  0.00    +0.000 C 
BRANCH  23  24
ATOM     24  C   UNL     1       5.499   3.523  19.373  0.00  0.00    +0.000 C 
BRANCH  24  25
ATOM     25  C   UNL     1       4.207   2.964  18.863  0.00  0.00    +0.000 A 
ATOM     26  C   UNL     1       4.058   2.147  17.758  0.00  0.00    +0.000 A 
ATOM     27  N   UNL     1       2.733   1.829  17.632  0.00  0.00    +0.000 N 
ATOM     28  C   UNL     1       2.005   2.419  18.639  0.00  0.00    +0.000 A 
ATOM     29  C   UNL     1       0.632   2.361  18.910  0.00  0.00    +0.000 A 
ATOM     30  C   UNL     1       0.159   3.075  20.015  0.00  0.00    +0.000 A 
ATOM     31  C   UNL     1       1.025   3.821  20.811  0.00  0.00    +0.000 A 
ATOM     32  C   UNL     1       2.395   3.866  20.526  0.00  0.00    +0.000 A 
ATOM     33  C   UNL     1       2.901   3.149  19.421  0.00  0.00    +0.000 A 
ATOM     34  H   UNL     1       2.340   1.248  16.907  0.00  0.00    +0.000 HD
ENDBRANCH  24  25
ENDBRANCH  23  24
ENDBRANCH   2  23
TORSDOF 11
ENDMDL
MODEL 9
REMARK VINA RESULT:      -7.3      2.670      6.384
REMARK  Name = 
REMARK  11 active torsions:
REMARK  status: ('A' for Active; 'I' for Inactive)
REMARK    1  A    between atoms: N_1  and  C_2
REMARK    2  A    between atoms: C_2  and  C_3
REMARK    3  A    between atoms: C_3  and  C_4
REMARK    4  A    between atoms: C_4  and  C_5
REMARK    5  A    between atoms: C_5  and  C_6
REMARK    6  A    between atoms: C_6  and  N_7
REMARK    7  A    between atoms: N_7  and  C_8
REMARK    8  A    between atoms: C_8  and  C_9
REMARK    9  A    between atoms: C_19  and  C_21
REMARK   10  A    between atoms: C_21  and  C_22
REMARK   11  A    between atoms: C_22  and  C_23
REMARK                            x       y       z     vdW  Elec       q    Type
REMARK                         _______ _______ _______ _____ _____    ______ ____
ROOT
ATOM      1  N   UNL     1       6.194   5.525  16.211  0.00  0.00    +0.000 N 
ATOM      2  C   UNL     1       5.238   6.544  16.119  0.00  0.00    +0.000 C 
ATOM      3  O   UNL     1       4.931   7.048  15.036  0.00  0.00    +0.000 OA
ENDROOT
BRANCH   1   4
ATOM      4  C   UNL     1       6.862   5.096  14.961  0.00  0.00    +0.000 C 
BRANCH   4   5
ATOM      5  C   UNL     1       6.191   3.869  14.341  0.00  0.00    +0.000 C 
BRANCH   5   6
ATOM      6  C   UNL     1       6.402   3.712  12.822  0.00  0.00    +0.000 C 
BRANCH   6   7
ATOM      7  C   UNL     1       5.029   3.538  12.154  0.00  0.00    +0.000 C 
BRANCH   7   8
ATOM      8  C   UNL     1       4.922   2.315  11.240  0.00  0.00    +0.000 C 
BRANCH   8   9
ATOM      9  N   UNL     1       6.053   1.423  11.502  0.00  0.00    +0.000 NA
ATOM     10  H   UNL     1       6.922   1.863  11.204  0.00  0.00    +0.000 HD
ATOM     11  H   UNL     1       5.958   0.572  10.948  0.00  0.00    +0.000 HD
ENDBRANCH   8   9
ENDBRANCH   7   8
ENDBRANCH   6   7
ENDBRANCH   5   6
ENDBRANCH   4   5
ENDBRANCH   1   4
BRANCH   1  12
ATOM     12  C   UNL     1       6.636   4.920  17.483  0.00  0.00    +0.000 C 
BRANCH  12  13
ATOM     13  C   UNL     1       5.524   4.264  18.265  0.00  0.00    +0.000 A 
ATOM     14  C   UNL     1       5.466   4.341  19.662  0.00  0.00    +0.000 A 
ATOM     15  C   UNL     1       4.356   3.844  20.353  0.00  0.00    +0.000 A 
ATOM     16  C   UNL     1       3.267   3.298  19.654  0.00  0.00    +0.000 A 
ATOM     17  C   UNL     1       2.073   2.947  20.306  0.00  0.00    +0.000 A 
ATOM     18  C   UNL     1       0.971   2.497  19.575  0.00  0.00    +0.000 A 
ATOM     19  C   UNL     1       1.070   2.327  18.197  0.00  0.00    +0.000 A 
ATOM     20  C   UNL     1       2.265   2.621  17.544  0.00  0.00    +0.000 A 
ATOM     21  C   UNL     1       3.354   3.147  18.253  0.00  0.00    +0.000 A 
ATOM     22  C   UNL     1       4.501   3.591  17.581  0.00  0.00    +0.000 A 
ENDBRANCH  12  13
ENDBRANCH   1  12
BRANCH   2  23
ATOM     23  C   UNL     1       4.606   7.014  17.417  0.00  0.00    +0.000 C 
BRANCH  23  24
ATOM     24  C   UNL     1       3.090   6.839  17.412  0.00  0.00    +0.000 C 
BRANCH  24  25
ATOM     25  C   UNL     1       2.479   7.341  18.683  0.00  0.00    +0.000 A 
ATOM     26  C   UNL     1       2.459   6.672  19.893  0.00  0.00    +0.000 A 
ATOM     27  N   UNL     1       1.833   7.466  20.815  0.00  0.00    +0.000 N 
ATOM     28  C   UNL     1       1.443   8.651  20.235  0.00  0.00    +0.000 A 
ATOM     29  C   UNL     1       0.787   9.754  20.795  0.00  0.00    +0.000 A 
ATOM     30  C   UNL     1       0.506  10.836  19.956  0.00  0.00    +0.000 A 
ATOM     31  C   UNL     1       0.865  10.811  18.610  0.00  0.00    +0.000 A 
ATOM     32  C   UNL     1       1.522   9.701  18.068  0.00  0.00    +0.000 A 
ATOM     33  C   UNL     1       1.823   8.597  18.893  0.00  0.00    +0.000 A 
ATOM     34  H   UNL     1       1.675   7.223  21.781  0.00  0.00    +0.000 HD
ENDBRANCH  24  25
ENDBRANCH  23  24
ENDBRANCH   2  23
TORSDOF 11
ENDMDL
