MODEL 1
REMARK VINA RESULT:      -7.0      0.000      0.000
REMARK  Name = 
REMARK  12 active torsions:
REMARK  status: ('A' for Active; 'I' for Inactive)
REMARK    1  A    between atoms: C_1  and  C_2
REMARK    2  A    between atoms: C_2  and  C_3
REMARK    3  A    between atoms: C_3  and  C_4
REMARK    4  A    between atoms: C_3  and  O_6
REMARK    5  A    between atoms: C_4  and  C_5
REMARK    6  A    between atoms: O_6  and  C_7
REMARK    7  A    between atoms: C_7  and  C_8
REMARK    8  A    between atoms: C_10  and  C_11
REMARK    9  A    between atoms: C_11  and  O_13
REMARK   10  A    between atoms: C_15  and  N_16
REMARK   11  A    between atoms: C_17  and  N_18
REMARK   12  A    between atoms: C_19  and  C_20
REMARK                            x       y       z     vdW  Elec       q    Type
REMARK                         _______ _______ _______ _____ _____    ______ ____
ROOT
ATOM      1  C   UNL     1       4.559   4.338  17.631  0.00  0.00    +0.000 C 
ATOM      2  C   UNL     1       5.306   4.001  16.317  0.00  0.00    +0.000 C 
ATOM      3  C   UNL     1       6.497   4.843  15.942  0.00  0.00    +0.000 C 
ATOM      4  C   UNL     1       7.022   5.749  16.778  0.00  0.00    +0.000 C 
ATOM      5  C   UNL     1       6.486   6.045  18.146  0.00  0.00    +0.000 C 
ATOM      6  C   UNL     1       5.010   5.614  18.372  0.00  0.00    +0.000 C 
ENDROOT
BRANCH   6   7
ATOM      7  N   UNL     1       4.092   6.731  18.023  0.00  0.00    +0.000 N 
ATOM      8  C   UNL     1       2.949   6.991  18.742  0.00  0.00    +0.000 C 
ATOM      9  C   UNL     1       2.047   8.047  18.153  0.00  0.00    +0.000 C 
ATOM     10  O   UNL     1       2.623   6.371  19.750  0.00  0.00    +0.000 OA
ATOM     11  H   UNL     1       4.384   7.373  17.296  0.00  0.00    +0.000 HD
ENDBRANCH   6   7
BRANCH   5  12
ATOM     12  N   UNL     1       7.445   5.487  19.111  0.00  0.00    +0.000 NA
ATOM     13  H   UNL     1       7.103   5.592  20.065  0.00  0.00    +0.000 HD
ATOM     14  H   UNL     1       8.309   6.036  19.064  0.00  0.00    +0.000 HD
ENDBRANCH   5  12
BRANCH   3  15
ATOM     15  C   UNL     1       6.982   4.587  14.547  0.00  0.00    +0.000 C 
ATOM     16  O   UNL     1       7.765   5.327  13.981  0.00  0.00    +0.000 OA
BRANCH  15  17
ATOM     17  O   UNL     1       6.501   3.486  13.968  0.00  0.00    +0.000 OA
ATOM     18  H   UNL     1       7.076   3.090  13.279  0.00  0.00    +0.000 HD
ENDBRANCH  15  17
ENDBRANCH   3  15
BRANCH   1  19
ATOM     19  C   UNL     1       4.481   3.115  18.557  0.00  0.00    +0.000 C 
BRANCH  19  20
ATOM     20  O   UNL     1       3.317   2.387  18.162  0.00  0.00    +0.000 OA
BRANCH  20  21
ATOM     21  C   UNL     1       2.347   2.155  19.187  0.00  0.00    +0.000 C 
BRANCH  21  23
ATOM     22  C   UNL     1       2.014   3.059  21.585  0.00  0.00    +0.000 C 
ATOM     23  C   UNL     1       2.990   2.693  20.481  0.00  0.00    +0.000 C 
ENDBRANCH  21  23
BRANCH  21  24
ATOM     24  C   UNL     1       1.006   2.815  18.835  0.00  0.00    +0.000 C 
ATOM     25  C   UNL     1       1.127   3.916  17.787  0.00  0.00    +0.000 C 
ENDBRANCH  21  24
ENDBRANCH  20  21
ENDBRANCH  19  20
ENDBRANCH   1  19
TORSDOF 9
ENDMDL
MODEL 2
REMARK VINA RESULT:      -6.9      0.825      1.591
REMARK  Name = 
REMARK  12 active torsions:
REMARK  status: ('A' for Active; 'I' for Inactive)
REMARK    1  A    between atoms: C_1  and  C_2
REMARK    2  A    between atoms: C_2  and  C_3
REMARK    3  A    between atoms: C_3  and  C_4
REMARK    4  A    between atoms: C_3  and  O_6
REMARK    5  A    between atoms: C_4  and  C_5
REMARK    6  A    between atoms: O_6  and  C_7
REMARK    7  A    between atoms: C_7  and  C_8
REMARK    8  A    between atoms: C_10  and  C_11
REMARK    9  A    between atoms: C_11  and  O_13
REMARK   10  A    between atoms: C_15  and  N_16
REMARK   11  A    between atoms: C_17  and  N_18
REMARK   12  A    between atoms: C_19  and  C_20
REMARK                            x       y       z     vdW  Elec       q    Type
REMARK                         _______ _______ _______ _____ _____    ______ ____
ROOT
ATOM      1  C   UNL     1       4.287   4.577  17.285  0.00  0.00    +0.000 C 
ATOM      2  C   UNL     1       5.123   4.197  16.038  0.00  0.00    +0.000 C 
ATOM      3  C   UNL     1       6.362   5.002  15.742  0.00  0.00    +0.000 C 
ATOM      4  C   UNL     1       6.846   5.908  16.602  0.00  0.00    +0.000 C 
ATOM      5  C   UNL     1       6.216   6.241  17.920  0.00  0.00    +0.000 C 
ATOM      6  C   UNL     1       4.716   5.853  18.039  0.00  0.00    +0.000 C 
ENDROOT
BRANCH   6   7
ATOM      7  N   UNL     1       3.858   6.987  17.604  0.00  0.00    +0.000 N 
ATOM      8  C   UNL     1       2.841   7.479  18.389  0.00  0.00    +0.000 C 
ATOM      9  C   UNL     1       1.963   8.512  17.728  0.00  0.00    +0.000 C 
ATOM     10  O   UNL     1       2.593   7.068  19.518  0.00  0.00    +0.000 OA
ATOM     11  H   UNL     1       4.109   7.469  16.748  0.00  0.00    +0.000 HD
ENDBRANCH   6   7
BRANCH   5  12
ATOM     12  N   UNL     1       7.083   5.675  18.964  0.00  0.00    +0.000 NA
ATOM     13  H   UNL     1       7.890   6.274  19.132  0.00  0.00    +0.000 HD
ATOM     14  H   UNL     1       7.462   4.786  18.624  0.00  0.00    +0.000 HD
ENDBRANCH   5  12
BRANCH   3  15
ATOM     15  C   UNL     1       6.943   4.708  14.392  0.00  0.00    +0.000 C 
ATOM     16  O   UNL     1       7.784   5.420  13.874  0.00  0.00    +0.000 OA
BRANCH  15  17
ATOM     17  O   UNL     1       6.481   3.608  13.797  0.00  0.00    +0.000 OA
ATOM     18  H   UNL     1       5.515   3.460  13.880  0.00  0.00    +0.000 HD
ENDBRANCH  15  17
ENDBRANCH   3  15
BRANCH   1  19
ATOM     19  C   UNL     1       4.106   3.372  18.222  0.00  0.00    +0.000 C 
BRANCH  19  20
ATOM     20  O   UNL     1       3.718   3.905  19.489  0.00  0.00    +0.000 OA
BRANCH  20  21
ATOM     21  C   UNL     1       2.354   3.695  19.864  0.00  0.00    +0.000 C 
BRANCH  21  23
ATOM     22  C   UNL     1       0.617   2.242  18.619  0.00  0.00    +0.000 C 
ATOM     23  C   UNL     1       1.982   2.317  19.281  0.00  0.00    +0.000 C 
ENDBRANCH  21  23
BRANCH  21  24
ATOM     24  C   UNL     1       2.180   3.797  21.386  0.00  0.00    +0.000 C 
ATOM     25  C   UNL     1       1.599   2.536  22.017  0.00  0.00    +0.000 C 
ENDBRANCH  21  24
ENDBRANCH  20  21
ENDBRANCH  19  20
ENDBRANCH   1  19
TORSDOF 9
ENDMDL
MODEL 3
REMARK VINA RESULT:      -6.8      2.144      2.985
REMARK  Name = 
REMARK  12 active torsions:
REMARK  status: ('A' for Active; 'I' for Inactive)
REMARK    1  A    between atoms: C_1  and  C_2
REMARK    2  A    between atoms: C_2  and  C_3
REMARK    3  A    between atoms: C_3  and  C_4
REMARK    4  A    between atoms: C_3  and  O_6
REMARK    5  A    between atoms: C_4  and  C_5
REMARK    6  A    between atoms: O_6  and  C_7
REMARK    7  A    between atoms: C_7  and  C_8
REMARK    8  A    between atoms: C_10  and  C_11
REMARK    9  A    between atoms: C_11  and  O_13
REMARK   10  A    between atoms: C_15  and  N_16
REMARK   11  A    between atoms: C_17  and  N_18
REMARK   12  A    between atoms: C_19  and  C_20
REMARK                            x       y       z     vdW  Elec       q    Type
REMARK                         _______ _______ _______ _____ _____    ______ ____
ROOT
ATOM      1  C   UNL     1       5.021   6.355  16.562  0.00  0.00    +0.000 C 
ATOM      2  C   UNL     1       5.225   5.566  15.245  0.00  0.00    +0.000 C 
ATOM      3  C   UNL     1       6.535   4.849  15.043  0.00  0.00    +0.000 C 
ATOM      4  C   UNL     1       7.444   4.735  16.020  0.00  0.00    +0.000 C 
ATOM      5  C   UNL     1       7.283   5.314  17.393  0.00  0.00    +0.000 C 
ATOM      6  C   UNL     1       6.245   6.466  17.495  0.00  0.00    +0.000 C 
ENDROOT
BRANCH   6   7
ATOM      7  N   UNL     1       6.911   7.777  17.272  0.00  0.00    +0.000 N 
ATOM      8  C   UNL     1       7.994   8.184  18.016  0.00  0.00    +0.000 C 
ATOM      9  C   UNL     1       8.438   9.605  17.777  0.00  0.00    +0.000 C 
ATOM     10  O   UNL     1       8.529   7.490  18.875  0.00  0.00    +0.000 OA
ATOM     11  H   UNL     1       6.613   8.329  16.477  0.00  0.00    +0.000 HD
ENDBRANCH   6   7
BRANCH   5  12
ATOM     12  N   UNL     1       7.045   4.188  18.308  0.00  0.00    +0.000 NA
ATOM     13  H   UNL     1       6.643   4.510  19.186  0.00  0.00    +0.000 HD
ATOM     14  H   UNL     1       7.949   3.772  18.552  0.00  0.00    +0.000 HD
ENDBRANCH   5  12
BRANCH   3  15
ATOM     15  C   UNL     1       6.713   4.335  13.646  0.00  0.00    +0.000 C 
ATOM     16  O   UNL     1       7.371   4.928  12.811  0.00  0.00    +0.000 OA
BRANCH  15  17
ATOM     17  O   UNL     1       6.106   3.178  13.381  0.00  0.00    +0.000 OA
ATOM     18  H   UNL     1       5.840   3.048  12.446  0.00  0.00    +0.000 HD
ENDBRANCH  15  17
ENDBRANCH   3  15
BRANCH   1  19
ATOM     19  C   UNL     1       3.757   5.889  17.300  0.00  0.00    +0.000 C 
BRANCH  19  20
ATOM     20  O   UNL     1       4.189   5.425  18.580  0.00  0.00    +0.000 OA
BRANCH  20  21
ATOM     21  C   UNL     1       3.507   4.276  19.090  0.00  0.00    +0.000 C 
BRANCH  21  23
ATOM     22  C   UNL     1       1.368   4.414  20.534  0.00  0.00    +0.000 C 
ATOM     23  C   UNL     1       2.028   4.699  19.196  0.00  0.00    +0.000 C 
ENDBRANCH  21  23
BRANCH  21  24
ATOM     24  C   UNL     1       3.744   3.052  18.195  0.00  0.00    +0.000 C 
ATOM     25  C   UNL     1       2.458   2.439  17.651  0.00  0.00    +0.000 C 
ENDBRANCH  21  24
ENDBRANCH  20  21
ENDBRANCH  19  20
ENDBRANCH   1  19
TORSDOF 9
ENDMDL
MODEL 4
REMARK VINA RESULT:      -6.6      2.162      3.043
REMARK  Name = 
REMARK  12 active torsions:
REMARK  status: ('A' for Active; 'I' for Inactive)
REMARK    1  A    between atoms: C_1  and  C_2
REMARK    2  A    between atoms: C_2  and  C_3
REMARK    3  A    between atoms: C_3  and  C_4
REMARK    4  A    between atoms: C_3  and  O_6
REMARK    5  A    between atoms: C_4  and  C_5
REMARK    6  A    between atoms: O_6  and  C_7
REMARK    7  A    between atoms: C_7  and  C_8
REMARK    8  A    between atoms: C_10  and  C_11
REMARK    9  A    between atoms: C_11  and  O_13
REMARK   10  A    between atoms: C_15  and  N_16
REMARK   11  A    between atoms: C_17  and  N_18
REMARK   12  A    between atoms: C_19  and  C_20
REMARK                            x       y       z     vdW  Elec       q    Type
REMARK                         _______ _______ _______ _____ _____    ______ ____
ROOT
ATOM      1  C   UNL     1       5.117   6.519  16.550  0.00  0.00    +0.000 C 
ATOM      2  C   UNL     1       5.301   5.704  15.245  0.00  0.00    +0.000 C 
ATOM      3  C   UNL     1       6.581   4.930  15.067  0.00  0.00    +0.000 C 
ATOM      4  C   UNL     1       7.474   4.789  16.056  0.00  0.00    +0.000 C 
ATOM      5  C   UNL     1       7.324   5.393  17.419  0.00  0.00    +0.000 C 
ATOM      6  C   UNL     1       6.335   6.589  17.495  0.00  0.00    +0.000 C 
ENDROOT
BRANCH   6   7
ATOM      7  N   UNL     1       7.059   7.867  17.262  0.00  0.00    +0.000 N 
ATOM      8  C   UNL     1       8.105   8.272  18.059  0.00  0.00    +0.000 C 
ATOM      9  C   UNL     1       8.613   9.666  17.791  0.00  0.00    +0.000 C 
ATOM     10  O   UNL     1       8.559   7.599  18.980  0.00  0.00    +0.000 OA
ATOM     11  H   UNL     1       6.833   8.394  16.427  0.00  0.00    +0.000 HD
ENDBRANCH   6   7
BRANCH   5  12
ATOM     12  N   UNL     1       7.027   4.290  18.345  0.00  0.00    +0.000 NA
ATOM     13  H   UNL     1       7.594   3.471  18.131  0.00  0.00    +0.000 HD
ATOM     14  H   UNL     1       6.055   4.000  18.203  0.00  0.00    +0.000 HD
ENDBRANCH   5  12
BRANCH   3  15
ATOM     15  C   UNL     1       6.751   4.389  13.679  0.00  0.00    +0.000 C 
ATOM     16  O   UNL     1       7.415   4.960  12.833  0.00  0.00    +0.000 OA
BRANCH  15  17
ATOM     17  O   UNL     1       6.130   3.235  13.434  0.00  0.00    +0.000 OA
ATOM     18  H   UNL     1       6.624   2.429  13.698  0.00  0.00    +0.000 HD
ENDBRANCH  15  17
ENDBRANCH   3  15
BRANCH   1  19
ATOM     19  C   UNL     1       3.827   6.118  17.280  0.00  0.00    +0.000 C 
BRANCH  19  20
ATOM     20  O   UNL     1       4.151   4.968  18.063  0.00  0.00    +0.000 OA
BRANCH  20  21
ATOM     21  C   UNL     1       3.366   3.799  17.810  0.00  0.00    +0.000 C 
BRANCH  21  23
ATOM     22  C   UNL     1       3.578   1.303  18.444  0.00  0.00    +0.000 C 
ATOM     23  C   UNL     1       3.876   2.745  18.814  0.00  0.00    +0.000 C 
ENDBRANCH  21  23
BRANCH  21  24
ATOM     24  C   UNL     1       1.867   4.106  17.934  0.00  0.00    +0.000 C 
ATOM     25  C   UNL     1       1.377   4.172  19.377  0.00  0.00    +0.000 C 
ENDBRANCH  21  24
ENDBRANCH  20  21
ENDBRANCH  19  20
ENDBRANCH   1  19
TORSDOF 9
ENDMDL
MODEL 5
REMARK VINA RESULT:      -6.6      0.942      1.330
REMARK  Name = 
REMARK  12 active torsions:
REMARK  status: ('A' for Active; 'I' for Inactive)
REMARK    1  A    between atoms: C_1  and  C_2
REMARK    2  A    between atoms: C_2  and  C_3
REMARK    3  A    between atoms: C_3  and  C_4
REMARK    4  A    between atoms: C_3  and  O_6
REMARK    5  A    between atoms: C_4  and  C_5
REMARK    6  A    between atoms: O_6  and  C_7
REMARK    7  A    between atoms: C_7  and  C_8
REMARK    8  A    between atoms: C_10  and  C_11
REMARK    9  A    between atoms: C_11  and  O_13
REMARK   10  A    between atoms: C_15  and  N_16
REMARK   11  A    between atoms: C_17  and  N_18
REMARK   12  A    between atoms: C_19  and  C_20
REMARK                            x       y       z     vdW  Elec       q    Type
REMARK                         _______ _______ _______ _____ _____    ______ ____
ROOT
ATOM      1  C   UNL     1       4.342   4.417  16.729  0.00  0.00    +0.000 C 
ATOM      2  C   UNL     1       5.203   4.223  15.457  0.00  0.00    +0.000 C 
ATOM      3  C   UNL     1       6.527   4.936  15.381  0.00  0.00    +0.000 C 
ATOM      4  C   UNL     1       7.050   5.585  16.430  0.00  0.00    +0.000 C 
ATOM      5  C   UNL     1       6.385   5.698  17.768  0.00  0.00    +0.000 C 
ATOM      6  C   UNL     1       4.850   5.454  17.753  0.00  0.00    +0.000 C 
ENDROOT
BRANCH   6   7
ATOM      7  N   UNL     1       4.130   6.739  17.544  0.00  0.00    +0.000 N 
ATOM      8  C   UNL     1       3.016   7.081  18.275  0.00  0.00    +0.000 C 
ATOM      9  C   UNL     1       2.311   8.334  17.821  0.00  0.00    +0.000 C 
ATOM     10  O   UNL     1       2.561   6.394  19.185  0.00  0.00    +0.000 OA
ATOM     11  H   UNL     1       4.544   7.416  16.915  0.00  0.00    +0.000 HD
ENDBRANCH   6   7
BRANCH   5  12
ATOM     12  N   UNL     1       7.136   4.837  18.694  0.00  0.00    +0.000 NA
ATOM     13  H   UNL     1       6.740   4.879  19.631  0.00  0.00    +0.000 HD
ATOM     14  H   UNL     1       8.088   5.205  18.778  0.00  0.00    +0.000 HD
ENDBRANCH   5  12
BRANCH   3  15
ATOM     15  C   UNL     1       7.150   4.874  14.018  0.00  0.00    +0.000 C 
ATOM     16  O   UNL     1       6.730   4.141  13.142  0.00  0.00    +0.000 OA
BRANCH  15  17
ATOM     17  O   UNL     1       8.192   5.682  13.828  0.00  0.00    +0.000 OA
ATOM     18  H   UNL     1       8.175   6.200  12.994  0.00  0.00    +0.000 HD
ENDBRANCH  15  17
ENDBRANCH   3  15
BRANCH   1  19
ATOM     19  C   UNL     1       3.995   3.069  17.379  0.00  0.00    +0.000 C 
BRANCH  19  20
ATOM     20  O   UNL     1       2.718   3.239  17.996  0.00  0.00    +0.000 OA
BRANCH  20  21
ATOM     21  C   UNL     1       2.483   2.455  19.169  0.00  0.00    +0.000 C 
BRANCH  21  23
ATOM     22  C   UNL     1       4.620   1.877  20.502  0.00  0.00    +0.000 C 
ATOM     23  C   UNL     1       3.553   2.910  20.181  0.00  0.00    +0.000 C 
ENDBRANCH  21  23
BRANCH  21  24
ATOM     24  C   UNL     1       1.040   2.629  19.666  0.00  0.00    +0.000 C 
ATOM     25  C   UNL     1       0.854   3.832  20.585  0.00  0.00    +0.000 C 
ENDBRANCH  21  24
ENDBRANCH  20  21
ENDBRANCH  19  20
ENDBRANCH   1  19
TORSDOF 9
ENDMDL
MODEL 6
REMARK VINA RESULT:      -6.6      2.329      5.774
REMARK  Name = 
REMARK  12 active torsions:
REMARK  status: ('A' for Active; 'I' for Inactive)
REMARK    1  A    between atoms: C_1  and  C_2
REMARK    2  A    between atoms: C_2  and  C_3
REMARK    3  A    between atoms: C_3  and  C_4
REMARK    4  A    between atoms: C_3  and  O_6
REMARK    5  A    between atoms: C_4  and  C_5
REMARK    6  A    between atoms: O_6  and  C_7
REMARK    7  A    between atoms: C_7  and  C_8
REMARK    8  A    between atoms: C_10  and  C_11
REMARK    9  A    between atoms: C_11  and  O_13
REMARK   10  A    between atoms: C_15  and  N_16
REMARK   11  A    between atoms: C_17  and  N_18
REMARK   12  A    between atoms: C_19  and  C_20
REMARK                            x       y       z     vdW  Elec       q    Type
REMARK                         _______ _______ _______ _____ _____    ______ ____
ROOT
ATOM      1  C   UNL     1       3.966   5.419  19.146  0.00  0.00    +0.000 C 
ATOM      2  C   UNL     1       3.630   4.404  20.267  0.00  0.00    +0.000 C 
ATOM      3  C   UNL     1       2.374   3.585  20.129  0.00  0.00    +0.000 C 
ATOM      4  C   UNL     1       1.642   3.584  19.007  0.00  0.00    +0.000 C 
ATOM      5  C   UNL     1       1.962   4.399  17.791  0.00  0.00    +0.000 C 
ATOM      6  C   UNL     1       2.897   5.613  18.050  0.00  0.00    +0.000 C 
ENDROOT
BRANCH   6   7
ATOM      7  N   UNL     1       2.090   6.823  18.364  0.00  0.00    +0.000 N 
ATOM      8  C   UNL     1       2.408   8.064  17.865  0.00  0.00    +0.000 C 
ATOM      9  C   UNL     1       1.591   9.205  18.418  0.00  0.00    +0.000 C 
ATOM     10  O   UNL     1       3.335   8.269  17.087  0.00  0.00    +0.000 OA
ATOM     11  H   UNL     1       1.226   6.694  18.877  0.00  0.00    +0.000 HD
ENDBRANCH   6   7
BRANCH   5  12
ATOM     12  N   UNL     1       2.439   3.464  16.762  0.00  0.00    +0.000 NA
ATOM     13  H   UNL     1       1.967   3.627  15.874  0.00  0.00    +0.000 HD
ATOM     14  H   UNL     1       2.179   2.513  17.043  0.00  0.00    +0.000 HD
ENDBRANCH   5  12
BRANCH   3  15
ATOM     15  C   UNL     1       2.027   2.828  21.376  0.00  0.00    +0.000 C 
ATOM     16  O   UNL     1       2.875   2.359  22.112  0.00  0.00    +0.000 OA
BRANCH  15  17
ATOM     17  O   UNL     1       0.723   2.708  21.629  0.00  0.00    +0.000 OA
ATOM     18  H   UNL     1       0.210   2.210  20.957  0.00  0.00    +0.000 HD
ENDBRANCH  15  17
ENDBRANCH   3  15
BRANCH   1  19
ATOM     19  C   UNL     1       5.365   5.166  18.567  0.00  0.00    +0.000 C 
BRANCH  19  20
ATOM     20  O   UNL     1       5.244   5.307  17.150  0.00  0.00    +0.000 OA
BRANCH  20  21
ATOM     21  C   UNL     1       6.386   5.841  16.476  0.00  0.00    +0.000 C 
BRANCH  21  23
ATOM     22  C   UNL     1       7.686   7.830  17.491  0.00  0.00    +0.000 C 
ATOM     23  C   UNL     1       7.310   6.362  17.595  0.00  0.00    +0.000 C 
ENDBRANCH  21  23
BRANCH  21  24
ATOM     24  C   UNL     1       7.036   4.783  15.572  0.00  0.00    +0.000 C 
ATOM     25  C   UNL     1       6.154   4.358  14.403  0.00  0.00    +0.000 C 
ENDBRANCH  21  24
ENDBRANCH  20  21
ENDBRANCH  19  20
ENDBRANCH   1  19
TORSDOF 9
ENDMDL
MODEL 7
REMARK VINA RESULT:      -6.6      1.068      1.725
REMARK  Name = 
REMARK  12 active torsions:
REMARK  status: ('A' for Active; 'I' for Inactive)
REMARK    1  A    between atoms: C_1  and  C_2
REMARK    2  A    between atoms: C_2  and  C_3
REMARK    3  A    between atoms: C_3  and  C_4
REMARK    4  A    between atoms: C_3  and  O_6
REMARK    5  A    between atoms: C_4  and  C_5
REMARK    6  A    between atoms: O_6  and  C_7
REMARK    7  A    between atoms: C_7  and  C_8
REMARK    8  A    between atoms: C_10  and  C_11
REMARK    9  A    between atoms: C_11  and  O_13
REMARK   10  A    between atoms: C_15  and  N_16
REMARK   11  A    between atoms: C_17  and  N_18
REMARK   12  A    between atoms: C_19  and  C_20
REMARK                            x       y       z     vdW  Elec       q    Type
REMARK                         _______ _______ _______ _____ _____    ______ ____
ROOT
ATOM      1  C   UNL     1       3.942   4.726  17.137  0.00  0.00    +0.000 C 
ATOM      2  C   UNL     1       4.864   4.339  15.954  0.00  0.00    +0.000 C 
ATOM      3  C   UNL     1       6.234   4.961  15.890  0.00  0.00    +0.000 C 
ATOM      4  C   UNL     1       6.733   5.693  16.895  0.00  0.00    +0.000 C 
ATOM      5  C   UNL     1       5.998   5.995  18.165  0.00  0.00    +0.000 C 
ATOM      6  C   UNL     1       4.454   5.841  18.073  0.00  0.00    +0.000 C 
ENDROOT
BRANCH   6   7
ATOM      7  N   UNL     1       3.833   7.133  17.678  0.00  0.00    +0.000 N 
ATOM      8  C   UNL     1       2.770   7.674  18.362  0.00  0.00    +0.000 C 
ATOM      9  C   UNL     1       2.155   8.897  17.728  0.00  0.00    +0.000 C 
ATOM     10  O   UNL     1       2.286   7.175  19.373  0.00  0.00    +0.000 OA
ATOM     11  H   UNL     1       4.283   7.669  16.945  0.00  0.00    +0.000 HD
ENDBRANCH   6   7
BRANCH   5  12
ATOM     12  N   UNL     1       6.633   5.202  19.228  0.00  0.00    +0.000 NA
ATOM     13  H   UNL     1       7.611   5.462  19.341  0.00  0.00    +0.000 HD
ATOM     14  H   UNL     1       6.639   4.219  18.939  0.00  0.00    +0.000 HD
ENDBRANCH   5  12
BRANCH   3  15
ATOM     15  C   UNL     1       6.933   4.709  14.588  0.00  0.00    +0.000 C 
ATOM     16  O   UNL     1       7.816   5.435  14.170  0.00  0.00    +0.000 OA
BRANCH  15  17
ATOM     17  O   UNL     1       6.525   3.630  13.920  0.00  0.00    +0.000 OA
ATOM     18  H   UNL     1       6.870   2.775  14.254  0.00  0.00    +0.000 HD
ENDBRANCH  15  17
ENDBRANCH   3  15
BRANCH   1  19
ATOM     19  C   UNL     1       3.469   3.482  17.904  0.00  0.00    +0.000 C 
BRANCH  19  20
ATOM     20  O   UNL     1       3.042   3.942  19.188  0.00  0.00    +0.000 OA
BRANCH  20  21
ATOM     21  C   UNL     1       3.344   3.084  20.291  0.00  0.00    +0.000 C 
BRANCH  21  23
ATOM     22  C   UNL     1       0.805   3.552  20.421  0.00  0.00    +0.000 C 
ATOM     23  C   UNL     1       1.977   2.711  20.899  0.00  0.00    +0.000 C 
ENDBRANCH  21  23
BRANCH  21  24
ATOM     24  C   UNL     1       4.175   1.875  19.836  0.00  0.00    +0.000 C 
ATOM     25  C   UNL     1       5.179   1.401  20.881  0.00  0.00    +0.000 C 
ENDBRANCH  21  24
ENDBRANCH  20  21
ENDBRANCH  19  20
ENDBRANCH   1  19
TORSDOF 9
ENDMDL
MODEL 8
REMARK VINA RESULT:      -6.6      2.302      5.324
REMARK  Name = 
REMARK  12 active torsions:
REMARK  status: ('A' for Active; 'I' for Inactive)
REMARK    1  A    between atoms: C_1  and  C_2
REMARK    2  A    between atoms: C_2  and  C_3
REMARK    3  A    between atoms: C_3  and  C_4
REMARK    4  A    between atoms: C_3  and  O_6
REMARK    5  A    between atoms: C_4  and  C_5
REMARK    6  A    between atoms: O_6  and  C_7
REMARK    7  A    between atoms: C_7  and  C_8
REMARK    8  A    between atoms: C_10  and  C_11
REMARK    9  A    between atoms: C_11  and  O_13
REMARK   10  A    between atoms: C_15  and  N_16
REMARK   11  A    between atoms: C_17  and  N_18
REMARK   12  A    between atoms: C_19  and  C_20
REMARK                            x       y       z     vdW  Elec       q    Type
REMARK                         _______ _______ _______ _____ _____    ______ ____
ROOT
ATOM      1  C   UNL     1       3.934   5.811  18.790  0.00  0.00    +0.000 C 
ATOM      2  C   UNL     1       4.604   4.463  19.151  0.00  0.00    +0.000 C 
ATOM      3  C   UNL     1       3.712   3.289  19.463  0.00  0.00    +0.000 C 
ATOM      4  C   UNL     1       2.386   3.330  19.275  0.00  0.00    +0.000 C 
ATOM      5  C   UNL     1       1.643   4.528  18.768  0.00  0.00    +0.000 C 
ATOM      6  C   UNL     1       2.398   5.877  18.929  0.00  0.00    +0.000 C 
ENDROOT
BRANCH   6   7
ATOM      7  N   UNL     1       2.054   6.504  20.233  0.00  0.00    +0.000 N 
ATOM      8  C   UNL     1       1.705   7.830  20.339  0.00  0.00    +0.000 C 
ATOM      9  C   UNL     1       1.554   8.343  21.749  0.00  0.00    +0.000 C 
ATOM     10  O   UNL     1       1.595   8.584  19.377  0.00  0.00    +0.000 OA
ATOM     11  H   UNL     1       1.977   5.899  21.043  0.00  0.00    +0.000 HD
ENDBRANCH   6   7
BRANCH   5  12
ATOM     12  N   UNL     1       1.221   4.221  17.394  0.00  0.00    +0.000 NA
ATOM     13  H   UNL     1       1.938   3.690  16.902  0.00  0.00    +0.000 HD
ATOM     14  H   UNL     1       1.125   5.101  16.879  0.00  0.00    +0.000 HD
ENDBRANCH   5  12
BRANCH   3  15
ATOM     15  C   UNL     1       4.458   2.121  20.034  0.00  0.00    +0.000 C 
ATOM     16  O   UNL     1       4.862   2.103  21.182  0.00  0.00    +0.000 OA
BRANCH  15  17
ATOM     17  O   UNL     1       4.644   1.098  19.200  0.00  0.00    +0.000 OA
ATOM     18  H   UNL     1       5.007   0.283  19.610  0.00  0.00    +0.000 HD
ENDBRANCH  15  17
ENDBRANCH   3  15
BRANCH   1  19
ATOM     19  C   UNL     1       4.425   6.330  17.430  0.00  0.00    +0.000 C 
BRANCH  19  20
ATOM     20  O   UNL     1       5.308   5.332  16.916  0.00  0.00    +0.000 OA
BRANCH  20  21
ATOM     21  C   UNL     1       6.512   5.815  16.314  0.00  0.00    +0.000 C 
BRANCH  21  23
ATOM     22  C   UNL     1       7.697   7.768  17.522  0.00  0.00    +0.000 C 
ATOM     23  C   UNL     1       7.394   6.280  17.490  0.00  0.00    +0.000 C 
ENDBRANCH  21  23
BRANCH  21  24
ATOM     24  C   UNL     1       7.161   4.733  15.438  0.00  0.00    +0.000 C 
ATOM     25  C   UNL     1       6.188   4.074  14.466  0.00  0.00    +0.000 C 
ENDBRANCH  21  24
ENDBRANCH  20  21
ENDBRANCH  19  20
ENDBRANCH   1  19
TORSDOF 9
ENDMDL
MODEL 9
REMARK VINA RESULT:      -6.5      1.887      5.504
REMARK  Name = 
REMARK  12 active torsions:
REMARK  status: ('A' for Active; 'I' for Inactive)
REMARK    1  A    between atoms: C_1  and  C_2
REMARK    2  A    between atoms: C_2  and  C_3
REMARK    3  A    between atoms: C_3  and  C_4
REMARK    4  A    between atoms: C_3  and  O_6
REMARK    5  A    between atoms: C_4  and  C_5
REMARK    6  A    between atoms: O_6  and  C_7
REMARK    7  A    between atoms: C_7  and  C_8
REMARK    8  A    between atoms: C_10  and  C_11
REMARK    9  A    between atoms: C_11  and  O_13
REMARK   10  A    between atoms: C_15  and  N_16
REMARK   11  A    between atoms: C_17  and  N_18
REMARK   12  A    between atoms: C_19  and  C_20
REMARK                            x       y       z     vdW  Elec       q    Type
REMARK                         _______ _______ _______ _____ _____    ______ ____
ROOT
ATOM      1  C   UNL     1       3.547   5.586  17.534  0.00  0.00    +0.000 C 
ATOM      2  C   UNL     1       2.650   4.635  18.364  0.00  0.00    +0.000 C 
ATOM      3  C   UNL     1       3.312   3.506  19.111  0.00  0.00    +0.000 C 
ATOM      4  C   UNL     1       4.644   3.404  19.214  0.00  0.00    +0.000 C 
ATOM      5  C   UNL     1       5.614   4.362  18.594  0.00  0.00    +0.000 C 
ATOM      6  C   UNL     1       5.037   5.202  17.420  0.00  0.00    +0.000 C 
ENDROOT
BRANCH   6   7
ATOM      7  N   UNL     1       5.262   4.499  16.129  0.00  0.00    +0.000 N 
ATOM      8  C   UNL     1       6.344   4.772  15.325  0.00  0.00    +0.000 C 
ATOM      9  C   UNL     1       6.329   4.096  13.977  0.00  0.00    +0.000 C 
ATOM     10  O   UNL     1       7.231   5.566  15.624  0.00  0.00    +0.000 OA
ATOM     11  H   UNL     1       4.649   3.725  15.899  0.00  0.00    +0.000 HD
ENDBRANCH   6   7
BRANCH   5  12
ATOM     12  N   UNL     1       6.195   5.152  19.689  0.00  0.00    +0.000 NA
ATOM     13  H   UNL     1       7.091   4.767  19.982  0.00  0.00    +0.000 HD
ATOM     14  H   UNL     1       5.580   5.075  20.506  0.00  0.00    +0.000 HD
ENDBRANCH   5  12
BRANCH   3  15
ATOM     15  C   UNL     1       2.332   2.517  19.668  0.00  0.00    +0.000 C 
ATOM     16  O   UNL     1       1.978   2.535  20.832  0.00  0.00    +0.000 OA
BRANCH  15  17
ATOM     17  O   UNL     1       1.869   1.619  18.798  0.00  0.00    +0.000 OA
ATOM     18  H   UNL     1       1.720   1.954  17.888  0.00  0.00    +0.000 HD
ENDBRANCH  15  17
ENDBRANCH   3  15
BRANCH   1  19
ATOM     19  C   UNL     1       3.347   7.049  17.955  0.00  0.00    +0.000 C 
BRANCH  19  20
ATOM     20  O   UNL     1       2.477   7.024  19.088  0.00  0.00    +0.000 OA
BRANCH  20  21
ATOM     21  C   UNL     1       2.026   8.298  19.557  0.00  0.00    +0.000 C 
BRANCH  21  23
ATOM     22  C   UNL     1       0.340   9.974  18.542  0.00  0.00    +0.000 C 
ATOM     23  C   UNL     1       1.506   9.029  18.303  0.00  0.00    +0.000 C 
ENDBRANCH  21  23
BRANCH  21  24
ATOM     24  C   UNL     1       0.976   8.135  20.665  0.00  0.00    +0.000 C 
ATOM     25  C   UNL     1       1.309   8.908  21.937  0.00  0.00    +0.000 C 
ENDBRANCH  21  24
ENDBRANCH  20  21
ENDBRANCH  19  20
ENDBRANCH   1  19
TORSDOF 9
ENDMDL
