MODEL 1
REMARK VINA RESULT:      -9.3      0.000      0.000
REMARK  Name = 
REMARK  5 active torsions:
REMARK  status: ('A' for Active; 'I' for Inactive)
REMARK    1  A    between atoms: N_1  and  C_2
REMARK    2  A    between atoms: C_5  and  C_6
REMARK    3  A    between atoms: C_13  and  C_14
REMARK    4  A    between atoms: C_23  and  S_24
REMARK    5  A    between atoms: S_24  and  N_27
REMARK                            x       y       z     vdW  Elec       q    Type
REMARK                         _______ _______ _______ _____ _____    ______ ____
ROOT
ATOM      1  C   UNL     1       1.478  10.906  18.635  0.00  0.00    +0.000 A 
ATOM      2  N   UNL     1       1.980  10.039  17.721  0.00  0.00    +0.000 NA
ATOM      3  C   UNL     1       2.104   8.734  18.057  0.00  0.00    +0.000 A 
ATOM      4  C   UNL     1       1.761   8.207  19.289  0.00  0.00    +0.000 A 
ATOM      5  C   UNL     1       1.148   9.106  20.164  0.00  0.00    +0.000 A 
ATOM      6  C   UNL     1       1.013  10.483  19.855  0.00  0.00    +0.000 A 
ENDROOT
BRANCH   4   7
ATOM      7  C   UNL     1       2.133   6.851  19.707  0.00  0.00    +0.000 A 
ATOM      8  C   UNL     1       1.458   6.151  20.699  0.00  0.00    +0.000 A 
ATOM      9  C   UNL     1       1.789   4.818  20.969  0.00  0.00    +0.000 A 
ATOM     10  C   UNL     1       2.816   4.163  20.310  0.00  0.00    +0.000 A 
ATOM     11  N   UNL     1       3.033   2.878  20.630  0.00  0.00    +0.000 NA
ATOM     12  C   UNL     1       4.033   2.234  20.007  0.00  0.00    +0.000 A 
ATOM     13  C   UNL     1       4.869   2.824  19.077  0.00  0.00    +0.000 A 
ATOM     14  C   UNL     1       4.665   4.164  18.709  0.00  0.00    +0.000 A 
ATOM     15  C   UNL     1       3.574   4.850  19.333  0.00  0.00    +0.000 A 
ATOM     16  C   UNL     1       3.162   6.173  19.027  0.00  0.00    +0.000 A 
BRANCH  14  17
ATOM     17  C   UNL     1       5.581   4.779  17.695  0.00  0.00    +0.000 A 
ATOM     18  C   UNL     1       6.484   5.792  18.054  0.00  0.00    +0.000 A 
ATOM     19  C   UNL     1       7.343   6.326  17.101  0.00  0.00    +0.000 A 
ATOM     20  N   UNL     1       7.393   5.909  15.822  0.00  0.00    +0.000 NA
ATOM     21  C   UNL     1       6.519   4.949  15.472  0.00  0.00    +0.000 A 
ATOM     22  C   UNL     1       5.586   4.400  16.344  0.00  0.00    +0.000 A 
ENDBRANCH  14  17
ENDBRANCH   4   7
BRANCH   1  23
ATOM     23  N   UNL     1       1.562  12.201  18.175  0.00  0.00    +0.000 N 
ATOM     24  H   UNL     1       0.604  12.473  17.939  0.00  0.00    +0.000 HD
ATOM     25  H   UNL     1       1.970  12.833  18.849  0.00  0.00    +0.000 HD
ENDBRANCH   1  23
BRANCH   6  26
ATOM     26  S   UNL     1       0.362  11.401  21.206  0.00  0.00    +0.000 S 
ATOM     27  O   UNL     1       0.498  10.505  22.345  0.00  0.00    +0.000 OA
ATOM     28  O   UNL     1       1.100  12.645  21.213  0.00  0.00    +0.000 OA
BRANCH  26  29
ATOM     29  N   UNL     1      -1.303  11.783  21.154  0.00  0.00    +0.000 NA
ATOM     30  C   UNL     1      -1.769  12.971  20.376  0.00  0.00    +0.000 C 
ATOM     31  C   UNL     1      -1.379  14.295  21.028  0.00  0.00    +0.000 C 
ATOM     32  O   UNL     1      -1.901  14.397  22.358  0.00  0.00    +0.000 OA
ATOM     33  C   UNL     1      -1.478  13.301  23.183  0.00  0.00    +0.000 C 
ATOM     34  C   UNL     1      -1.872  11.946  22.566  0.00  0.00    +0.000 C 
ENDBRANCH  26  29
ENDBRANCH   6  26
TORSDOF 5
ENDMDL
MODEL 2
REMARK VINA RESULT:      -8.9      1.306      1.705
REMARK  Name = 
REMARK  5 active torsions:
REMARK  status: ('A' for Active; 'I' for Inactive)
REMARK    1  A    between atoms: N_1  and  C_2
REMARK    2  A    between atoms: C_5  and  C_6
REMARK    3  A    between atoms: C_13  and  C_14
REMARK    4  A    between atoms: C_23  and  S_24
REMARK    5  A    between atoms: S_24  and  N_27
REMARK                            x       y       z     vdW  Elec       q    Type
REMARK                         _______ _______ _______ _____ _____    ______ ____
ROOT
ATOM      1  C   UNL     1       2.028  10.778  18.237  0.00  0.00    +0.000 A 
ATOM      2  N   UNL     1       2.470   9.805  17.402  0.00  0.00    +0.000 NA
ATOM      3  C   UNL     1       2.449   8.520  17.828  0.00  0.00    +0.000 A 
ATOM      4  C   UNL     1       2.014   8.117  19.077  0.00  0.00    +0.000 A 
ATOM      5  C   UNL     1       1.467   9.131  19.866  0.00  0.00    +0.000 A 
ATOM      6  C   UNL     1       1.483  10.490  19.462  0.00  0.00    +0.000 A 
ENDROOT
BRANCH   4   7
ATOM      7  C   UNL     1       2.232   6.762  19.598  0.00  0.00    +0.000 A 
ATOM      8  C   UNL     1       1.505   6.230  20.655  0.00  0.00    +0.000 A 
ATOM      9  C   UNL     1       1.681   4.892  21.027  0.00  0.00    +0.000 A 
ATOM     10  C   UNL     1       2.605   4.068  20.406  0.00  0.00    +0.000 A 
ATOM     11  N   UNL     1       2.675   2.795  20.826  0.00  0.00    +0.000 NA
ATOM     12  C   UNL     1       3.575   1.988  20.242  0.00  0.00    +0.000 A 
ATOM     13  C   UNL     1       4.451   2.398  19.252  0.00  0.00    +0.000 A 
ATOM     14  C   UNL     1       4.398   3.719  18.780  0.00  0.00    +0.000 A 
ATOM     15  C   UNL     1       3.414   4.579  19.364  0.00  0.00    +0.000 A 
ATOM     16  C   UNL     1       3.154   5.913  18.958  0.00  0.00    +0.000 A 
BRANCH  14  17
ATOM     17  C   UNL     1       5.354   4.136  17.705  0.00  0.00    +0.000 A 
ATOM     18  C   UNL     1       6.601   4.700  18.021  0.00  0.00    +0.000 A 
ATOM     19  C   UNL     1       7.481   5.053  17.005  0.00  0.00    +0.000 A 
ATOM     20  N   UNL     1       7.229   4.862  15.697  0.00  0.00    +0.000 NA
ATOM     21  C   UNL     1       6.030   4.336  15.390  0.00  0.00    +0.000 A 
ATOM     22  C   UNL     1       5.066   4.008  16.337  0.00  0.00    +0.000 A 
ENDBRANCH  14  17
ENDBRANCH   4   7
BRANCH   1  23
ATOM     23  N   UNL     1       2.258  12.023  17.696  0.00  0.00    +0.000 N 
ATOM     24  H   UNL     1       3.047  11.905  17.055  0.00  0.00    +0.000 HD
ATOM     25  H   UNL     1       1.451  12.403  17.222  0.00  0.00    +0.000 HD
ENDBRANCH   1  23
BRANCH   6  26
ATOM     26  S   UNL     1       0.884  11.559  20.723  0.00  0.00    +0.000 S 
ATOM     27  O   UNL     1       0.853  10.724  21.914  0.00  0.00    +0.000 OA
ATOM     28  O   UNL     1       1.768  12.704  20.704  0.00  0.00    +0.000 OA
BRANCH  26  29
ATOM     29  N   UNL     1      -0.717  12.134  20.556  0.00  0.00    +0.000 NA
ATOM     30  C   UNL     1      -1.749  11.278  19.897  0.00  0.00    +0.000 C 
ATOM     31  C   UNL     1      -1.531  11.141  18.391  0.00  0.00    +0.000 C 
ATOM     32  O   UNL     1      -1.528  12.420  17.745  0.00  0.00    +0.000 OA
ATOM     33  C   UNL     1      -0.542  13.299  18.306  0.00  0.00    +0.000 C 
ATOM     34  C   UNL     1      -0.742  13.477  19.823  0.00  0.00    +0.000 C 
ENDBRANCH  26  29
ENDBRANCH   6  26
TORSDOF 5
ENDMDL
MODEL 3
REMARK VINA RESULT:      -8.9      0.817      1.453
REMARK  Name = 
REMARK  5 active torsions:
REMARK  status: ('A' for Active; 'I' for Inactive)
REMARK    1  A    between atoms: N_1  and  C_2
REMARK    2  A    between atoms: C_5  and  C_6
REMARK    3  A    between atoms: C_13  and  C_14
REMARK    4  A    between atoms: C_23  and  S_24
REMARK    5  A    between atoms: S_24  and  N_27
REMARK                            x       y       z     vdW  Elec       q    Type
REMARK                         _______ _______ _______ _____ _____    ______ ____
ROOT
ATOM      1  C   UNL     1       1.602  11.037  18.415  0.00  0.00    +0.000 A 
ATOM      2  N   UNL     1       2.264  10.175  17.605  0.00  0.00    +0.000 NA
ATOM      3  C   UNL     1       2.353   8.874  17.968  0.00  0.00    +0.000 A 
ATOM      4  C   UNL     1       1.820   8.348  19.130  0.00  0.00    +0.000 A 
ATOM      5  C   UNL     1       1.055   9.240  19.884  0.00  0.00    +0.000 A 
ATOM      6  C   UNL     1       0.949  10.613  19.545  0.00  0.00    +0.000 A 
ENDROOT
BRANCH   4   7
ATOM      7  C   UNL     1       2.141   7.001  19.616  0.00  0.00    +0.000 A 
ATOM      8  C   UNL     1       1.430   6.370  20.629  0.00  0.00    +0.000 A 
ATOM      9  C   UNL     1       1.713   5.041  20.965  0.00  0.00    +0.000 A 
ATOM     10  C   UNL     1       2.727   4.324  20.353  0.00  0.00    +0.000 A 
ATOM     11  N   UNL     1       2.898   3.049  20.736  0.00  0.00    +0.000 NA
ATOM     12  C   UNL     1       3.885   2.345  20.159  0.00  0.00    +0.000 A 
ATOM     13  C   UNL     1       4.753   2.864  19.216  0.00  0.00    +0.000 A 
ATOM     14  C   UNL     1       4.598   4.191  18.783  0.00  0.00    +0.000 A 
ATOM     15  C   UNL     1       3.521   4.940  19.358  0.00  0.00    +0.000 A 
ATOM     16  C   UNL     1       3.157   6.260  18.985  0.00  0.00    +0.000 A 
BRANCH  14  17
ATOM     17  C   UNL     1       5.548   4.728  17.757  0.00  0.00    +0.000 A 
ATOM     18  C   UNL     1       5.539   4.248  16.438  0.00  0.00    +0.000 A 
ATOM     19  C   UNL     1       6.412   4.783  15.499  0.00  0.00    +0.000 A 
ATOM     20  N   UNL     1       7.276   5.781  15.762  0.00  0.00    +0.000 NA
ATOM     21  C   UNL     1       7.297   6.233  17.029  0.00  0.00    +0.000 A 
ATOM     22  C   UNL     1       6.502   5.717  18.045  0.00  0.00    +0.000 A 
ENDBRANCH  14  17
ENDBRANCH   4   7
BRANCH   1  23
ATOM     23  N   UNL     1       1.738  12.330  17.964  0.00  0.00    +0.000 N 
ATOM     24  H   UNL     1       1.044  12.878  18.480  0.00  0.00    +0.000 HD
ATOM     25  H   UNL     1       2.670  12.698  18.095  0.00  0.00    +0.000 HD
ENDBRANCH   1  23
BRANCH   6  26
ATOM     26  S   UNL     1       0.066  11.526  20.761  0.00  0.00    +0.000 S 
ATOM     27  O   UNL     1      -1.332  11.244  20.473  0.00  0.00    +0.000 OA
ATOM     28  O   UNL     1       0.611  11.096  22.031  0.00  0.00    +0.000 OA
BRANCH  26  29
ATOM     29  N   UNL     1       0.187  13.229  20.692  0.00  0.00    +0.000 NA
ATOM     30  C   UNL     1       0.343  14.015  21.953  0.00  0.00    +0.000 C 
ATOM     31  C   UNL     1      -0.929  14.035  22.798  0.00  0.00    +0.000 C 
ATOM     32  O   UNL     1      -2.034  14.577  22.066  0.00  0.00    +0.000 OA
ATOM     33  C   UNL     1      -2.269  13.859  20.845  0.00  0.00    +0.000 C 
ATOM     34  C   UNL     1      -1.011  13.833  19.956  0.00  0.00    +0.000 C 
ENDBRANCH  26  29
ENDBRANCH   6  26
TORSDOF 5
ENDMDL
MODEL 4
REMARK VINA RESULT:      -8.8      1.082      1.696
REMARK  Name = 
REMARK  5 active torsions:
REMARK  status: ('A' for Active; 'I' for Inactive)
REMARK    1  A    between atoms: N_1  and  C_2
REMARK    2  A    between atoms: C_5  and  C_6
REMARK    3  A    between atoms: C_13  and  C_14
REMARK    4  A    between atoms: C_23  and  S_24
REMARK    5  A    between atoms: S_24  and  N_27
REMARK                            x       y       z     vdW  Elec       q    Type
REMARK                         _______ _______ _______ _____ _____    ______ ____
ROOT
ATOM      1  C   UNL     1       1.823  11.042  18.182  0.00  0.00    +0.000 A 
ATOM      2  N   UNL     1       2.474  10.129  17.419  0.00  0.00    +0.000 NA
ATOM      3  C   UNL     1       2.509   8.840  17.830  0.00  0.00    +0.000 A 
ATOM      4  C   UNL     1       1.930   8.375  18.997  0.00  0.00    +0.000 A 
ATOM      5  C   UNL     1       1.178   9.320  19.699  0.00  0.00    +0.000 A 
ATOM      6  C   UNL     1       1.128  10.682  19.309  0.00  0.00    +0.000 A 
ENDROOT
BRANCH   4   7
ATOM      7  C   UNL     1       2.192   7.037  19.539  0.00  0.00    +0.000 A 
ATOM      8  C   UNL     1       1.458   6.482  20.579  0.00  0.00    +0.000 A 
ATOM      9  C   UNL     1       1.682   5.157  20.971  0.00  0.00    +0.000 A 
ATOM     10  C   UNL     1       2.660   4.369  20.386  0.00  0.00    +0.000 A 
ATOM     11  N   UNL     1       2.774   3.105  20.821  0.00  0.00    +0.000 NA
ATOM     12  C   UNL     1       3.725   2.333  20.272  0.00  0.00    +0.000 A 
ATOM     13  C   UNL     1       4.611   2.772  19.304  0.00  0.00    +0.000 A 
ATOM     14  C   UNL     1       4.514   4.085  18.817  0.00  0.00    +0.000 A 
ATOM     15  C   UNL     1       3.475   4.906  19.363  0.00  0.00    +0.000 A 
ATOM     16  C   UNL     1       3.170   6.224  18.935  0.00  0.00    +0.000 A 
BRANCH  14  17
ATOM     17  C   UNL     1       5.482   4.534  17.765  0.00  0.00    +0.000 A 
ATOM     18  C   UNL     1       5.392   4.061  16.446  0.00  0.00    +0.000 A 
ATOM     19  C   UNL     1       6.286   4.515  15.484  0.00  0.00    +0.000 A 
ATOM     20  N   UNL     1       7.246   5.427  15.725  0.00  0.00    +0.000 NA
ATOM     21  C   UNL     1       7.344   5.871  16.991  0.00  0.00    +0.000 A 
ATOM     22  C   UNL     1       6.531   5.429  18.028  0.00  0.00    +0.000 A 
ENDBRANCH  14  17
ENDBRANCH   4   7
BRANCH   1  23
ATOM     23  N   UNL     1       2.015  12.313  17.688  0.00  0.00    +0.000 N 
ATOM     24  H   UNL     1       1.151  12.551  17.195  0.00  0.00    +0.000 HD
ATOM     25  H   UNL     1       2.227  12.988  18.409  0.00  0.00    +0.000 HD
ENDBRANCH   1  23
BRANCH   6  26
ATOM     26  S   UNL     1       0.249  11.668  20.469  0.00  0.00    +0.000 S 
ATOM     27  O   UNL     1      -0.736  10.759  21.036  0.00  0.00    +0.000 OA
ATOM     28  O   UNL     1       1.261  12.223  21.343  0.00  0.00    +0.000 OA
BRANCH  26  29
ATOM     29  N   UNL     1      -0.670  12.966  19.845  0.00  0.00    +0.000 NA
ATOM     30  C   UNL     1      -1.700  13.628  20.702  0.00  0.00    +0.000 C 
ATOM     31  C   UNL     1      -2.921  12.744  20.947  0.00  0.00    +0.000 C 
ATOM     32  O   UNL     1      -3.543  12.358  19.715  0.00  0.00    +0.000 OA
ATOM     33  C   UNL     1      -2.623  11.690  18.840  0.00  0.00    +0.000 C 
ATOM     34  C   UNL     1      -1.384  12.560  18.553  0.00  0.00    +0.000 C 
ENDBRANCH  26  29
ENDBRANCH   6  26
TORSDOF 5
ENDMDL
MODEL 5
REMARK VINA RESULT:      -8.6      1.074      1.459
REMARK  Name = 
REMARK  5 active torsions:
REMARK  status: ('A' for Active; 'I' for Inactive)
REMARK    1  A    between atoms: N_1  and  C_2
REMARK    2  A    between atoms: C_5  and  C_6
REMARK    3  A    between atoms: C_13  and  C_14
REMARK    4  A    between atoms: C_23  and  S_24
REMARK    5  A    between atoms: S_24  and  N_27
REMARK                            x       y       z     vdW  Elec       q    Type
REMARK                         _______ _______ _______ _____ _____    ______ ____
ROOT
ATOM      1  C   UNL     1       1.644  11.374  18.219  0.00  0.00    +0.000 A 
ATOM      2  N   UNL     1       2.503  10.548  17.572  0.00  0.00    +0.000 NA
ATOM      3  C   UNL     1       2.567   9.248  17.945  0.00  0.00    +0.000 A 
ATOM      4  C   UNL     1       1.815   8.689  18.963  0.00  0.00    +0.000 A 
ATOM      5  C   UNL     1       0.866   9.542  19.531  0.00  0.00    +0.000 A 
ATOM      6  C   UNL     1       0.778  10.912  19.178  0.00  0.00    +0.000 A 
ENDROOT
BRANCH   4   7
ATOM      7  C   UNL     1       2.080   7.352  19.507  0.00  0.00    +0.000 A 
ATOM      8  C   UNL     1       1.349   6.800  20.551  0.00  0.00    +0.000 A 
ATOM      9  C   UNL     1       1.575   5.476  20.945  0.00  0.00    +0.000 A 
ATOM     10  C   UNL     1       2.552   4.687  20.359  0.00  0.00    +0.000 A 
ATOM     11  N   UNL     1       2.668   3.424  20.797  0.00  0.00    +0.000 NA
ATOM     12  C   UNL     1       3.617   2.651  20.246  0.00  0.00    +0.000 A 
ATOM     13  C   UNL     1       4.500   3.088  19.275  0.00  0.00    +0.000 A 
ATOM     14  C   UNL     1       4.401   4.400  18.784  0.00  0.00    +0.000 A 
ATOM     15  C   UNL     1       3.364   5.222  19.332  0.00  0.00    +0.000 A 
ATOM     16  C   UNL     1       3.056   6.538  18.902  0.00  0.00    +0.000 A 
BRANCH  14  17
ATOM     17  C   UNL     1       5.366   4.848  17.729  0.00  0.00    +0.000 A 
ATOM     18  C   UNL     1       6.350   5.810  18.007  0.00  0.00    +0.000 A 
ATOM     19  C   UNL     1       7.250   6.187  17.018  0.00  0.00    +0.000 A 
ATOM     20  N   UNL     1       7.266   5.659  15.779  0.00  0.00    +0.000 NA
ATOM     21  C   UNL     1       6.315   4.748  15.506  0.00  0.00    +0.000 A 
ATOM     22  C   UNL     1       5.340   4.355  16.415  0.00  0.00    +0.000 A 
ENDBRANCH  14  17
ENDBRANCH   4   7
BRANCH   1  23
ATOM     23  N   UNL     1       1.820  12.676  17.809  0.00  0.00    +0.000 N 
ATOM     24  H   UNL     1       2.674  12.676  17.246  0.00  0.00    +0.000 HD
ATOM     25  H   UNL     1       1.034  13.035  17.286  0.00  0.00    +0.000 HD
ENDBRANCH   1  23
BRANCH   6  26
ATOM     26  S   UNL     1      -0.387  11.775  20.172  0.00  0.00    +0.000 S 
ATOM     27  O   UNL     1      -0.394  13.123  19.623  0.00  0.00    +0.000 OA
ATOM     28  O   UNL     1      -1.603  10.994  20.100  0.00  0.00    +0.000 OA
BRANCH  26  29
ATOM     29  N   UNL     1       0.003  11.982  21.822  0.00  0.00    +0.000 NA
ATOM     30  C   UNL     1      -0.767  11.241  22.867  0.00  0.00    +0.000 C 
ATOM     31  C   UNL     1      -2.194  11.763  23.031  0.00  0.00    +0.000 C 
ATOM     32  O   UNL     1      -2.206  13.155  23.368  0.00  0.00    +0.000 OA
ATOM     33  C   UNL     1      -1.504  13.945  22.396  0.00  0.00    +0.000 C 
ATOM     34  C   UNL     1      -0.053  13.460  22.217  0.00  0.00    +0.000 C 
ENDBRANCH  26  29
ENDBRANCH   6  26
TORSDOF 5
ENDMDL
MODEL 6
REMARK VINA RESULT:      -8.4      1.202      1.836
REMARK  Name = 
REMARK  5 active torsions:
REMARK  status: ('A' for Active; 'I' for Inactive)
REMARK    1  A    between atoms: N_1  and  C_2
REMARK    2  A    between atoms: C_5  and  C_6
REMARK    3  A    between atoms: C_13  and  C_14
REMARK    4  A    between atoms: C_23  and  S_24
REMARK    5  A    between atoms: S_24  and  N_27
REMARK                            x       y       z     vdW  Elec       q    Type
REMARK                         _______ _______ _______ _____ _____    ______ ____
ROOT
ATOM      1  C   UNL     1       1.888  11.130  18.047  0.00  0.00    +0.000 A 
ATOM      2  N   UNL     1       2.707  10.261  17.405  0.00  0.00    +0.000 NA
ATOM      3  C   UNL     1       2.737   8.969  17.811  0.00  0.00    +0.000 A 
ATOM      4  C   UNL     1       1.989   8.461  18.857  0.00  0.00    +0.000 A 
ATOM      5  C   UNL     1       1.079   9.358  19.422  0.00  0.00    +0.000 A 
ATOM      6  C   UNL     1       1.028  10.721  19.034  0.00  0.00    +0.000 A 
ENDROOT
BRANCH   4   7
ATOM      7  C   UNL     1       2.222   7.131  19.431  0.00  0.00    +0.000 A 
ATOM      8  C   UNL     1       1.487   6.624  20.495  0.00  0.00    +0.000 A 
ATOM      9  C   UNL     1       1.680   5.304  20.919  0.00  0.00    +0.000 A 
ATOM     10  C   UNL     1       2.628   4.475  20.342  0.00  0.00    +0.000 A 
ATOM     11  N   UNL     1       2.713   3.219  20.809  0.00  0.00    +0.000 NA
ATOM     12  C   UNL     1       3.635   2.407  20.268  0.00  0.00    +0.000 A 
ATOM     13  C   UNL     1       4.519   2.795  19.278  0.00  0.00    +0.000 A 
ATOM     14  C   UNL     1       4.451   4.098  18.757  0.00  0.00    +0.000 A 
ATOM     15  C   UNL     1       3.443   4.961  19.294  0.00  0.00    +0.000 A 
ATOM     16  C   UNL     1       3.168   6.275  18.836  0.00  0.00    +0.000 A 
BRANCH  14  17
ATOM     17  C   UNL     1       5.416   4.492  17.681  0.00  0.00    +0.000 A 
ATOM     18  C   UNL     1       5.247   4.054  16.358  0.00  0.00    +0.000 A 
ATOM     19  C   UNL     1       6.141   4.458  15.374  0.00  0.00    +0.000 A 
ATOM     20  N   UNL     1       7.177   5.288  15.597  0.00  0.00    +0.000 NA
ATOM     21  C   UNL     1       7.350   5.697  16.867  0.00  0.00    +0.000 A 
ATOM     22  C   UNL     1       6.540   5.298  17.924  0.00  0.00    +0.000 A 
ENDBRANCH  14  17
ENDBRANCH   4   7
BRANCH   1  23
ATOM     23  N   UNL     1       2.097  12.415  17.599  0.00  0.00    +0.000 N 
ATOM     24  H   UNL     1       1.210  12.711  17.183  0.00  0.00    +0.000 HD
ATOM     25  H   UNL     1       2.388  13.046  18.332  0.00  0.00    +0.000 HD
ENDBRANCH   1  23
BRANCH   6  26
ATOM     26  S   UNL     1      -0.089  11.647  20.028  0.00  0.00    +0.000 S 
ATOM     27  O   UNL     1      -0.018  12.995  19.483  0.00  0.00    +0.000 OA
ATOM     28  O   UNL     1      -1.347  10.937  19.952  0.00  0.00    +0.000 OA
BRANCH  26  29
ATOM     29  N   UNL     1       0.309  11.827  21.680  0.00  0.00    +0.000 NA
ATOM     30  C   UNL     1       0.223  10.651  22.598  0.00  0.00    +0.000 C 
ATOM     31  C   UNL     1      -1.217  10.228  22.883  0.00  0.00    +0.000 C 
ATOM     32  O   UNL     1      -1.973  11.301  23.456  0.00  0.00    +0.000 OA
ATOM     33  C   UNL     1      -1.962  12.467  22.620  0.00  0.00    +0.000 C 
ATOM     34  C   UNL     1      -0.525  12.937  22.326  0.00  0.00    +0.000 C 
ENDBRANCH  26  29
ENDBRANCH   6  26
TORSDOF 5
ENDMDL
MODEL 7
REMARK VINA RESULT:      -8.3      1.110      1.375
REMARK  Name = 
REMARK  5 active torsions:
REMARK  status: ('A' for Active; 'I' for Inactive)
REMARK    1  A    between atoms: N_1  and  C_2
REMARK    2  A    between atoms: C_5  and  C_6
REMARK    3  A    between atoms: C_13  and  C_14
REMARK    4  A    between atoms: C_23  and  S_24
REMARK    5  A    between atoms: S_24  and  N_27
REMARK                            x       y       z     vdW  Elec       q    Type
REMARK                         _______ _______ _______ _____ _____    ______ ____
ROOT
ATOM      1  C   UNL     1       2.103  10.918  17.971  0.00  0.00    +0.000 A 
ATOM      2  N   UNL     1       2.727   9.939  17.272  0.00  0.00    +0.000 NA
ATOM      3  C   UNL     1       2.687   8.671  17.744  0.00  0.00    +0.000 A 
ATOM      4  C   UNL     1       2.055   8.292  18.915  0.00  0.00    +0.000 A 
ATOM      5  C   UNL     1       1.334   9.305  19.549  0.00  0.00    +0.000 A 
ATOM      6  C   UNL     1       1.362  10.647  19.094  0.00  0.00    +0.000 A 
ENDROOT
BRANCH   4   7
ATOM      7  C   UNL     1       2.236   6.970  19.526  0.00  0.00    +0.000 A 
ATOM      8  C   UNL     1       1.476   6.520  20.598  0.00  0.00    +0.000 A 
ATOM      9  C   UNL     1       1.619   5.206  21.059  0.00  0.00    +0.000 A 
ATOM     10  C   UNL     1       2.541   4.328  20.514  0.00  0.00    +0.000 A 
ATOM     11  N   UNL     1       2.578   3.084  21.016  0.00  0.00    +0.000 NA
ATOM     12  C   UNL     1       3.474   2.225  20.505  0.00  0.00    +0.000 A 
ATOM     13  C   UNL     1       4.379   2.554  19.512  0.00  0.00    +0.000 A 
ATOM     14  C   UNL     1       4.362   3.843  18.956  0.00  0.00    +0.000 A 
ATOM     15  C   UNL     1       3.381   4.756  19.460  0.00  0.00    +0.000 A 
ATOM     16  C   UNL     1       3.156   6.066  18.964  0.00  0.00    +0.000 A 
BRANCH  14  17
ATOM     17  C   UNL     1       5.349   4.173  17.878  0.00  0.00    +0.000 A 
ATOM     18  C   UNL     1       6.592   4.750  18.185  0.00  0.00    +0.000 A 
ATOM     19  C   UNL     1       7.501   5.021  17.169  0.00  0.00    +0.000 A 
ATOM     20  N   UNL     1       7.282   4.736  15.872  0.00  0.00    +0.000 NA
ATOM     21  C   UNL     1       6.085   4.197  15.573  0.00  0.00    +0.000 A 
ATOM     22  C   UNL     1       5.095   3.947  16.516  0.00  0.00    +0.000 A 
ENDBRANCH  14  17
ENDBRANCH   4   7
BRANCH   1  23
ATOM     23  N   UNL     1       2.371  12.153  17.424  0.00  0.00    +0.000 N 
ATOM     24  H   UNL     1       1.570  12.742  17.666  0.00  0.00    +0.000 HD
ATOM     25  H   UNL     1       3.237  12.552  17.756  0.00  0.00    +0.000 HD
ENDBRANCH   1  23
BRANCH   6  26
ATOM     26  S   UNL     1       0.503  11.731  20.180  0.00  0.00    +0.000 S 
ATOM     27  O   UNL     1       1.329  11.763  21.378  0.00  0.00    +0.000 OA
ATOM     28  O   UNL     1       0.322  12.957  19.433  0.00  0.00    +0.000 OA
BRANCH  26  29
ATOM     29  N   UNL     1      -1.034  11.222  20.728  0.00  0.00    +0.000 NA
ATOM     30  C   UNL     1      -1.883  12.155  21.529  0.00  0.00    +0.000 C 
ATOM     31  C   UNL     1      -1.341  12.385  22.938  0.00  0.00    +0.000 C 
ATOM     32  O   UNL     1      -1.223  11.154  23.660  0.00  0.00    +0.000 OA
ATOM     33  C   UNL     1      -0.398  10.206  22.967  0.00  0.00    +0.000 C 
ATOM     34  C   UNL     1      -0.924   9.933  21.545  0.00  0.00    +0.000 C 
ENDBRANCH  26  29
ENDBRANCH   6  26
TORSDOF 5
ENDMDL
MODEL 8
REMARK VINA RESULT:      -8.1      1.256      1.634
REMARK  Name = 
REMARK  5 active torsions:
REMARK  status: ('A' for Active; 'I' for Inactive)
REMARK    1  A    between atoms: N_1  and  C_2
REMARK    2  A    between atoms: C_5  and  C_6
REMARK    3  A    between atoms: C_13  and  C_14
REMARK    4  A    between atoms: C_23  and  S_24
REMARK    5  A    between atoms: S_24  and  N_27
REMARK                            x       y       z     vdW  Elec       q    Type
REMARK                         _______ _______ _______ _____ _____    ______ ____
ROOT
ATOM      1  C   UNL     1       1.770  11.266  18.142  0.00  0.00    +0.000 A 
ATOM      2  N   UNL     1       2.568  10.401  17.468  0.00  0.00    +0.000 NA
ATOM      3  C   UNL     1       2.613   9.108  17.866  0.00  0.00    +0.000 A 
ATOM      4  C   UNL     1       1.901   8.593  18.933  0.00  0.00    +0.000 A 
ATOM      5  C   UNL     1       1.010   9.485  19.533  0.00  0.00    +0.000 A 
ATOM      6  C   UNL     1       0.943  10.850  19.155  0.00  0.00    +0.000 A 
ENDROOT
BRANCH   4   7
ATOM      7  C   UNL     1       2.154   7.259  19.491  0.00  0.00    +0.000 A 
ATOM      8  C   UNL     1       1.420   6.725  20.542  0.00  0.00    +0.000 A 
ATOM      9  C   UNL     1       1.635   5.403  20.950  0.00  0.00    +0.000 A 
ATOM     10  C   UNL     1       2.604   4.599  20.372  0.00  0.00    +0.000 A 
ATOM     11  N   UNL     1       2.709   3.340  20.823  0.00  0.00    +0.000 NA
ATOM     12  C   UNL     1       3.652   2.553  20.280  0.00  0.00    +0.000 A 
ATOM     13  C   UNL     1       4.538   2.972  19.303  0.00  0.00    +0.000 A 
ATOM     14  C   UNL     1       4.449   4.280  18.799  0.00  0.00    +0.000 A 
ATOM     15  C   UNL     1       3.420   5.116  19.338  0.00  0.00    +0.000 A 
ATOM     16  C   UNL     1       3.123   6.431  18.895  0.00  0.00    +0.000 A 
BRANCH  14  17
ATOM     17  C   UNL     1       5.417   4.708  17.739  0.00  0.00    +0.000 A 
ATOM     18  C   UNL     1       6.358   5.722  17.981  0.00  0.00    +0.000 A 
ATOM     19  C   UNL     1       7.262   6.080  16.989  0.00  0.00    +0.000 A 
ATOM     20  N   UNL     1       7.324   5.488  15.782  0.00  0.00    +0.000 NA
ATOM     21  C   UNL     1       6.415   4.526  15.542  0.00  0.00    +0.000 A 
ATOM     22  C   UNL     1       5.437   4.144  16.453  0.00  0.00    +0.000 A 
ENDBRANCH  14  17
ENDBRANCH   4   7
BRANCH   1  23
ATOM     23  N   UNL     1       1.962  12.554  17.695  0.00  0.00    +0.000 N 
ATOM     24  H   UNL     1       2.435  12.465  16.792  0.00  0.00    +0.000 HD
ATOM     25  H   UNL     1       1.101  13.075  17.611  0.00  0.00    +0.000 HD
ENDBRANCH   1  23
BRANCH   6  26
ATOM     26  S   UNL     1      -0.141  11.769  20.190  0.00  0.00    +0.000 S 
ATOM     27  O   UNL     1      -0.688  12.793  19.313  0.00  0.00    +0.000 OA
ATOM     28  O   UNL     1      -1.045  10.792  20.759  0.00  0.00    +0.000 OA
BRANCH  26  29
ATOM     29  N   UNL     1       0.568  12.637  21.480  0.00  0.00    +0.000 NA
ATOM     30  C   UNL     1      -0.293  13.454  22.387  0.00  0.00    +0.000 C 
ATOM     31  C   UNL     1      -0.845  14.707  21.709  0.00  0.00    +0.000 C 
ATOM     32  O   UNL     1       0.209  15.543  21.218  0.00  0.00    +0.000 OA
ATOM     33  C   UNL     1       1.072  14.837  20.315  0.00  0.00    +0.000 C 
ATOM     34  C   UNL     1       1.665  13.575  20.970  0.00  0.00    +0.000 C 
ENDBRANCH  26  29
ENDBRANCH   6  26
TORSDOF 5
ENDMDL
MODEL 9
REMARK VINA RESULT:      -8.0      1.975      2.774
REMARK  Name = 
REMARK  5 active torsions:
REMARK  status: ('A' for Active; 'I' for Inactive)
REMARK    1  A    between atoms: N_1  and  C_2
REMARK    2  A    between atoms: C_5  and  C_6
REMARK    3  A    between atoms: C_13  and  C_14
REMARK    4  A    between atoms: C_23  and  S_24
REMARK    5  A    between atoms: S_24  and  N_27
REMARK                            x       y       z     vdW  Elec       q    Type
REMARK                         _______ _______ _______ _____ _____    ______ ____
ROOT
ATOM      1  C   UNL     1       0.467  10.429  21.584  0.00  0.00    +0.000 A 
ATOM      2  N   UNL     1       1.081   9.609  22.472  0.00  0.00    +0.000 NA
ATOM      3  C   UNL     1       1.555   8.417  22.041  0.00  0.00    +0.000 A 
ATOM      4  C   UNL     1       1.450   7.957  20.741  0.00  0.00    +0.000 A 
ATOM      5  C   UNL     1       0.910   8.872  19.834  0.00  0.00    +0.000 A 
ATOM      6  C   UNL     1       0.390  10.124  20.249  0.00  0.00    +0.000 A 
ENDROOT
BRANCH   4   7
ATOM      7  C   UNL     1       1.746   6.572  20.359  0.00  0.00    +0.000 A 
ATOM      8  C   UNL     1       0.872   5.517  20.590  0.00  0.00    +0.000 A 
ATOM      9  C   UNL     1       1.164   4.240  20.097  0.00  0.00    +0.000 A 
ATOM     10  C   UNL     1       2.337   3.962  19.414  0.00  0.00    +0.000 A 
ATOM     11  N   UNL     1       2.505   2.709  18.964  0.00  0.00    +0.000 NA
ATOM     12  C   UNL     1       3.642   2.422  18.310  0.00  0.00    +0.000 A 
ATOM     13  C   UNL     1       4.661   3.333  18.098  0.00  0.00    +0.000 A 
ATOM     14  C   UNL     1       4.515   4.656  18.545  0.00  0.00    +0.000 A 
ATOM     15  C   UNL     1       3.288   4.987  19.205  0.00  0.00    +0.000 A 
ATOM     16  C   UNL     1       2.926   6.286  19.647  0.00  0.00    +0.000 A 
BRANCH  14  17
ATOM     17  C   UNL     1       5.631   5.625  18.298  0.00  0.00    +0.000 A 
ATOM     18  C   UNL     1       6.818   5.570  19.047  0.00  0.00    +0.000 A 
ATOM     19  C   UNL     1       7.848   6.463  18.779  0.00  0.00    +0.000 A 
ATOM     20  N   UNL     1       7.802   7.389  17.804  0.00  0.00    +0.000 NA
ATOM     21  C   UNL     1       6.660   7.454  17.095  0.00  0.00    +0.000 A 
ATOM     22  C   UNL     1       5.558   6.641  17.332  0.00  0.00    +0.000 A 
ENDBRANCH  14  17
ENDBRANCH   4   7
BRANCH   1  23
ATOM     23  N   UNL     1      -0.074  11.521  22.225  0.00  0.00    +0.000 N 
ATOM     24  H   UNL     1      -0.610  12.023  21.511  0.00  0.00    +0.000 HD
ATOM     25  H   UNL     1      -0.655  11.269  23.012  0.00  0.00    +0.000 HD
ENDBRANCH   1  23
BRANCH   6  26
ATOM     26  S   UNL     1      -0.375  10.991  18.924  0.00  0.00    +0.000 S 
ATOM     27  O   UNL     1      -0.505   9.993  17.873  0.00  0.00    +0.000 OA
ATOM     28  O   UNL     1      -1.580  11.562  19.487  0.00  0.00    +0.000 OA
BRANCH  26  29
ATOM     29  N   UNL     1       0.518  12.260  18.208  0.00  0.00    +0.000 NA
ATOM     30  C   UNL     1       1.940  12.486  18.608  0.00  0.00    +0.000 C 
ATOM     31  C   UNL     1       2.075  13.048  20.022  0.00  0.00    +0.000 C 
ATOM     32  O   UNL     1       1.367  14.285  20.162  0.00  0.00    +0.000 OA
ATOM     33  C   UNL     1      -0.019  14.149  19.819  0.00  0.00    +0.000 C 
ATOM     34  C   UNL     1      -0.196  13.602  18.390  0.00  0.00    +0.000 C 
ENDBRANCH  26  29
ENDBRANCH   6  26
TORSDOF 5
ENDMDL
