MODEL 1
REMARK VINA RESULT:      -8.3      0.000      0.000
REMARK  Name = 
REMARK  7 active torsions:
REMARK  status: ('A' for Active; 'I' for Inactive)
REMARK    1  A    between atoms: C_1  and  O_2
REMARK    2  A    between atoms: O_2  and  C_3
REMARK    3  A    between atoms: C_5  and  C_6
REMARK    4  A    between atoms: N_10  and  C_11
REMARK    5  A    between atoms: N_15  and  C_16
REMARK    6  A    between atoms: C_24  and  N_25
REMARK    7  A    between atoms: C_28  and  C_29
REMARK                            x       y       z     vdW  Elec       q    Type
REMARK                         _______ _______ _______ _____ _____    ______ ____
ROOT
ATOM      1  C   UNL     1       2.431   6.328  19.681  0.00  0.00    +0.000 A 
ATOM      2  C   UNL     1       1.759   5.265  20.250  0.00  0.00    +0.000 A 
ATOM      3  S   UNL     1       2.833   3.933  20.422  0.00  0.00    +0.000 S 
ATOM      4  C   UNL     1       4.069   4.830  19.627  0.00  0.00    +0.000 A 
ATOM      5  N   UNL     1       5.283   4.294  19.354  0.00  0.00    +0.000 N 
ATOM      6  N   UNL     1       3.735   6.060  19.326  0.00  0.00    +0.000 NA
ATOM      7  H   UNL     1       5.574   3.537  19.962  0.00  0.00    +0.000 HD
ENDROOT
BRANCH   5   8
ATOM      8  C   UNL     1       6.048   4.619  18.274  0.00  0.00    +0.000 A 
ATOM      9  C   UNL     1       5.839   4.487  16.913  0.00  0.00    +0.000 A 
ATOM     10  C   UNL     1       7.038   4.925  16.312  0.00  0.00    +0.000 A 
ATOM     11  N   UNL     1       7.931   5.356  17.205  0.00  0.00    +0.000 NA
ATOM     12  N   UNL     1       7.298   5.183  18.387  0.00  0.00    +0.000 N 
ATOM     13  C   UNL     1       7.936   5.640  19.600  0.00  0.00    +0.000 C 
ATOM     14  C   UNL     1       7.321   4.830  14.852  0.00  0.00    +0.000 C 
ATOM     15  C   UNL     1       6.038   4.547  14.047  0.00  0.00    +0.000 C 
ATOM     16  C   UNL     1       5.143   3.498  14.727  0.00  0.00    +0.000 C 
ATOM     17  C   UNL     1       4.691   3.960  16.122  0.00  0.00    +0.000 C 
ENDBRANCH   5   8
BRANCH   1  20
ATOM     18  C   UNL     1       1.019   9.605  20.381  0.00  0.00    +0.000 A 
ATOM     19  N   UNL     1       1.427   8.324  20.554  0.00  0.00    +0.000 NA
ATOM     20  C   UNL     1       1.882   7.659  19.472  0.00  0.00    +0.000 A 
ATOM     21  C   UNL     1       1.900   8.215  18.198  0.00  0.00    +0.000 A 
ATOM     22  C   UNL     1       1.457   9.521  18.030  0.00  0.00    +0.000 A 
ATOM     23  C   UNL     1       1.029  10.254  19.142  0.00  0.00    +0.000 A 
BRANCH  23  24
ATOM     24  N   UNL     1       0.690  11.623  18.970  0.00  0.00    +0.000 N 
ATOM     25  C   UNL     1      -0.550  12.178  18.745  0.00  0.00    +0.000 A 
ATOM     26  N   UNL     1      -0.525  13.495  18.746  0.00  0.00    +0.000 NA
ATOM     27  C   UNL     1       0.781  13.833  18.970  0.00  0.00    +0.000 A 
ATOM     28  C   UNL     1       1.199  15.248  19.063  0.00  0.00    +0.000 C 
ATOM     29  C   UNL     1       1.551  12.696  19.087  0.00  0.00    +0.000 A 
ENDBRANCH  23  24
BRANCH  18  31
ATOM     30  C   UNL     1      -0.329   9.473  22.302  0.00  0.00    +0.000 C 
ATOM     31  O   UNL     1       0.537  10.262  21.490  0.00  0.00    +0.000 OA
ENDBRANCH  18  31
ENDBRANCH   1  20
TORSDOF 4
ENDMDL
MODEL 2
REMARK VINA RESULT:      -8.1      0.831      1.023
REMARK  Name = 
REMARK  7 active torsions:
REMARK  status: ('A' for Active; 'I' for Inactive)
REMARK    1  A    between atoms: C_1  and  O_2
REMARK    2  A    between atoms: O_2  and  C_3
REMARK    3  A    between atoms: C_5  and  C_6
REMARK    4  A    between atoms: N_10  and  C_11
REMARK    5  A    between atoms: N_15  and  C_16
REMARK    6  A    between atoms: C_24  and  N_25
REMARK    7  A    between atoms: C_28  and  C_29
REMARK                            x       y       z     vdW  Elec       q    Type
REMARK                         _______ _______ _______ _____ _____    ______ ____
ROOT
ATOM      1  C   UNL     1       2.393   6.149  19.943  0.00  0.00    +0.000 A 
ATOM      2  C   UNL     1       1.689   5.035  20.352  0.00  0.00    +0.000 A 
ATOM      3  S   UNL     1       2.718   3.657  20.313  0.00  0.00    +0.000 S 
ATOM      4  C   UNL     1       3.980   4.624  19.650  0.00  0.00    +0.000 A 
ATOM      5  N   UNL     1       5.174   4.096  19.289  0.00  0.00    +0.000 N 
ATOM      6  N   UNL     1       3.686   5.895  19.540  0.00  0.00    +0.000 NA
ATOM      7  H   UNL     1       5.442   3.247  19.774  0.00  0.00    +0.000 HD
ENDROOT
BRANCH   5   8
ATOM      8  C   UNL     1       5.945   4.555  18.263  0.00  0.00    +0.000 A 
ATOM      9  C   UNL     1       5.805   4.481  16.889  0.00  0.00    +0.000 A 
ATOM     10  C   UNL     1       6.977   5.067  16.366  0.00  0.00    +0.000 A 
ATOM     11  N   UNL     1       7.787   5.531  17.320  0.00  0.00    +0.000 NA
ATOM     12  N   UNL     1       7.128   5.230  18.462  0.00  0.00    +0.000 N 
ATOM     13  C   UNL     1       7.669   5.676  19.725  0.00  0.00    +0.000 C 
ATOM     14  C   UNL     1       7.325   5.083  14.918  0.00  0.00    +0.000 C 
ATOM     15  C   UNL     1       6.109   4.724  14.042  0.00  0.00    +0.000 C 
ATOM     16  C   UNL     1       5.297   3.556  14.625  0.00  0.00    +0.000 C 
ATOM     17  C   UNL     1       4.747   3.892  16.020  0.00  0.00    +0.000 C 
ENDBRANCH   5   8
BRANCH   1  20
ATOM     18  C   UNL     1       1.189   9.363  21.146  0.00  0.00    +0.000 A 
ATOM     19  N   UNL     1       1.553   8.057  21.130  0.00  0.00    +0.000 NA
ATOM     20  C   UNL     1       1.887   7.513  19.942  0.00  0.00    +0.000 A 
ATOM     21  C   UNL     1       1.824   8.218  18.745  0.00  0.00    +0.000 A 
ATOM     22  C   UNL     1       1.427   9.549  18.771  0.00  0.00    +0.000 A 
ATOM     23  C   UNL     1       1.125  10.155  19.996  0.00  0.00    +0.000 A 
BRANCH  23  24
ATOM     24  N   UNL     1       0.834  11.546  20.017  0.00  0.00    +0.000 N 
ATOM     25  C   UNL     1       1.683  12.603  19.771  0.00  0.00    +0.000 A 
ATOM     26  N   UNL     1       1.059  13.764  19.762  0.00  0.00    +0.000 NA
ATOM     27  C   UNL     1      -0.252  13.474  20.022  0.00  0.00    +0.000 A 
ATOM     28  C   UNL     1      -1.275  14.539  20.069  0.00  0.00    +0.000 C 
ATOM     29  C   UNL     1      -0.408  12.117  20.206  0.00  0.00    +0.000 A 
ENDBRANCH  23  24
BRANCH  18  31
ATOM     30  C   UNL     1      -0.431   9.441  22.846  0.00  0.00    +0.000 C 
ATOM     31  O   UNL     1       0.830   9.896  22.362  0.00  0.00    +0.000 OA
ENDBRANCH  18  31
ENDBRANCH   1  20
TORSDOF 4
ENDMDL
MODEL 3
REMARK VINA RESULT:      -8.0      2.057      2.794
REMARK  Name = 
REMARK  7 active torsions:
REMARK  status: ('A' for Active; 'I' for Inactive)
REMARK    1  A    between atoms: C_1  and  O_2
REMARK    2  A    between atoms: O_2  and  C_3
REMARK    3  A    between atoms: C_5  and  C_6
REMARK    4  A    between atoms: N_10  and  C_11
REMARK    5  A    between atoms: N_15  and  C_16
REMARK    6  A    between atoms: C_24  and  N_25
REMARK    7  A    between atoms: C_28  and  C_29
REMARK                            x       y       z     vdW  Elec       q    Type
REMARK                         _______ _______ _______ _____ _____    ______ ____
ROOT
ATOM      1  C   UNL     1       2.700   5.116  18.243  0.00  0.00    +0.000 A 
ATOM      2  C   UNL     1       1.918   3.980  18.206  0.00  0.00    +0.000 A 
ATOM      3  S   UNL     1       2.840   2.667  17.586  0.00  0.00    +0.000 S 
ATOM      4  C   UNL     1       4.164   3.733  17.309  0.00  0.00    +0.000 A 
ATOM      5  N   UNL     1       5.311   3.315  16.722  0.00  0.00    +0.000 N 
ATOM      6  N   UNL     1       3.966   4.960  17.722  0.00  0.00    +0.000 NA
ATOM      7  H   UNL     1       5.520   2.328  16.822  0.00  0.00    +0.000 HD
ENDROOT
BRANCH   5   8
ATOM      8  C   UNL     1       6.104   4.091  15.931  0.00  0.00    +0.000 A 
ATOM      9  C   UNL     1       6.262   4.164  14.559  0.00  0.00    +0.000 A 
ATOM     10  C   UNL     1       7.297   5.103  14.356  0.00  0.00    +0.000 A 
ATOM     11  N   UNL     1       7.737   5.633  15.498  0.00  0.00    +0.000 NA
ATOM     12  N   UNL     1       6.982   5.022  16.439  0.00  0.00    +0.000 N 
ATOM     13  C   UNL     1       7.116   5.426  17.819  0.00  0.00    +0.000 C 
ATOM     14  C   UNL     1       7.901   5.400  13.027  0.00  0.00    +0.000 C 
ATOM     15  C   UNL     1       7.035   4.851  11.878  0.00  0.00    +0.000 C 
ATOM     16  C   UNL     1       6.493   3.445  12.178  0.00  0.00    +0.000 C 
ATOM     17  C   UNL     1       5.608   3.437  13.435  0.00  0.00    +0.000 C 
ENDBRANCH   5   8
BRANCH   1  20
ATOM     18  C   UNL     1       1.699   8.607  18.443  0.00  0.00    +0.000 A 
ATOM     19  N   UNL     1       2.180   7.440  17.949  0.00  0.00    +0.000 NA
ATOM     20  C   UNL     1       2.299   6.399  18.799  0.00  0.00    +0.000 A 
ATOM     21  C   UNL     1       1.998   6.494  20.153  0.00  0.00    +0.000 A 
ATOM     22  C   UNL     1       1.529   7.702  20.653  0.00  0.00    +0.000 A 
ATOM     23  C   UNL     1       1.345   8.784  19.784  0.00  0.00    +0.000 A 
BRANCH  23  24
ATOM     24  N   UNL     1       0.755   9.974  20.289  0.00  0.00    +0.000 N 
ATOM     25  C   UNL     1       1.309  10.918  21.125  0.00  0.00    +0.000 A 
ATOM     26  N   UNL     1       0.523  11.960  21.307  0.00  0.00    +0.000 NA
ATOM     27  C   UNL     1      -0.602  11.698  20.575  0.00  0.00    +0.000 A 
ATOM     28  C   UNL     1      -1.718  12.666  20.514  0.00  0.00    +0.000 C 
ATOM     29  C   UNL     1      -0.491  10.469  19.960  0.00  0.00    +0.000 A 
ENDBRANCH  23  24
BRANCH  18  31
ATOM     30  C   UNL     1       2.585  10.679  17.775  0.00  0.00    +0.000 C 
ATOM     31  O   UNL     1       1.605   9.664  17.568  0.00  0.00    +0.000 OA
ENDBRANCH  18  31
ENDBRANCH   1  20
TORSDOF 4
ENDMDL
MODEL 4
REMARK VINA RESULT:      -8.0      1.472      1.814
REMARK  Name = 
REMARK  7 active torsions:
REMARK  status: ('A' for Active; 'I' for Inactive)
REMARK    1  A    between atoms: C_1  and  O_2
REMARK    2  A    between atoms: O_2  and  C_3
REMARK    3  A    between atoms: C_5  and  C_6
REMARK    4  A    between atoms: N_10  and  C_11
REMARK    5  A    between atoms: N_15  and  C_16
REMARK    6  A    between atoms: C_24  and  N_25
REMARK    7  A    between atoms: C_28  and  C_29
REMARK                            x       y       z     vdW  Elec       q    Type
REMARK                         _______ _______ _______ _____ _____    ______ ____
ROOT
ATOM      1  C   UNL     1       2.694   5.662  18.327  0.00  0.00    +0.000 A 
ATOM      2  C   UNL     1       2.020   4.486  18.583  0.00  0.00    +0.000 A 
ATOM      3  S   UNL     1       3.059   3.149  18.279  0.00  0.00    +0.000 S 
ATOM      4  C   UNL     1       4.280   4.230  17.724  0.00  0.00    +0.000 A 
ATOM      5  N   UNL     1       5.461   3.786  17.231  0.00  0.00    +0.000 N 
ATOM      6  N   UNL     1       3.969   5.497  17.832  0.00  0.00    +0.000 NA
ATOM      7  H   UNL     1       5.759   2.875  17.562  0.00  0.00    +0.000 HD
ENDROOT
BRANCH   5   8
ATOM      8  C   UNL     1       6.180   4.414  16.259  0.00  0.00    +0.000 A 
ATOM      9  C   UNL     1       6.192   4.285  14.882  0.00  0.00    +0.000 A 
ATOM     10  C   UNL     1       7.217   5.150  14.440  0.00  0.00    +0.000 A 
ATOM     11  N   UNL     1       7.786   5.823  15.442  0.00  0.00    +0.000 NA
ATOM     12  N   UNL     1       7.124   5.378  16.533  0.00  0.00    +0.000 N 
ATOM     13  C   UNL     1       7.410   5.969  17.819  0.00  0.00    +0.000 C 
ATOM     14  C   UNL     1       7.683   5.234  13.027  0.00  0.00    +0.000 C 
ATOM     15  C   UNL     1       6.689   4.556  12.065  0.00  0.00    +0.000 C 
ATOM     16  C   UNL     1       6.156   3.226  12.620  0.00  0.00    +0.000 C 
ATOM     17  C   UNL     1       5.409   3.427  13.948  0.00  0.00    +0.000 C 
ENDBRANCH   5   8
BRANCH   1  20
ATOM     18  C   UNL     1       1.475   8.607  20.077  0.00  0.00    +0.000 A 
ATOM     19  N   UNL     1       1.850   7.328  19.833  0.00  0.00    +0.000 NA
ATOM     20  C   UNL     1       2.177   7.001  18.565  0.00  0.00    +0.000 A 
ATOM     21  C   UNL     1       2.095   7.901  17.509  0.00  0.00    +0.000 A 
ATOM     22  C   UNL     1       1.687   9.203  17.769  0.00  0.00    +0.000 A 
ATOM     23  C   UNL     1       1.392   9.586  19.082  0.00  0.00    +0.000 A 
BRANCH  23  24
ATOM     24  N   UNL     1       1.090  10.949  19.346  0.00  0.00    +0.000 N 
ATOM     25  C   UNL     1       1.932  12.038  19.304  0.00  0.00    +0.000 A 
ATOM     26  N   UNL     1       1.300  13.178  19.493  0.00  0.00    +0.000 NA
ATOM     27  C   UNL     1      -0.012  12.839  19.678  0.00  0.00    +0.000 A 
ATOM     28  C   UNL     1      -1.045  13.873  19.899  0.00  0.00    +0.000 C 
ATOM     29  C   UNL     1      -0.160  11.470  19.616  0.00  0.00    +0.000 A 
ENDBRANCH  23  24
BRANCH  18  31
ATOM     30  C   UNL     1      -0.209   8.550  21.716  0.00  0.00    +0.000 C 
ATOM     31  O   UNL     1       1.124   8.919  21.370  0.00  0.00    +0.000 OA
ENDBRANCH  18  31
ENDBRANCH   1  20
TORSDOF 4
ENDMDL
MODEL 5
REMARK VINA RESULT:      -7.9      1.315      1.819
REMARK  Name = 
REMARK  7 active torsions:
REMARK  status: ('A' for Active; 'I' for Inactive)
REMARK    1  A    between atoms: C_1  and  O_2
REMARK    2  A    between atoms: O_2  and  C_3
REMARK    3  A    between atoms: C_5  and  C_6
REMARK    4  A    between atoms: N_10  and  C_11
REMARK    5  A    between atoms: N_15  and  C_16
REMARK    6  A    between atoms: C_24  and  N_25
REMARK    7  A    between atoms: C_28  and  C_29
REMARK                            x       y       z     vdW  Elec       q    Type
REMARK                         _______ _______ _______ _____ _____    ______ ____
ROOT
ATOM      1  C   UNL     1       2.428   5.926  20.005  0.00  0.00    +0.000 A 
ATOM      2  C   UNL     1       1.774   4.778  20.400  0.00  0.00    +0.000 A 
ATOM      3  S   UNL     1       2.855   3.442  20.311  0.00  0.00    +0.000 S 
ATOM      4  C   UNL     1       4.066   4.471  19.649  0.00  0.00    +0.000 A 
ATOM      5  N   UNL     1       5.273   3.998  19.254  0.00  0.00    +0.000 N 
ATOM      6  N   UNL     1       3.722   5.732  19.573  0.00  0.00    +0.000 NA
ATOM      7  H   UNL     1       5.582   3.149  19.715  0.00  0.00    +0.000 HD
ENDROOT
BRANCH   5   8
ATOM      8  C   UNL     1       6.007   4.508  18.226  0.00  0.00    +0.000 A 
ATOM      9  C   UNL     1       5.848   4.453  16.853  0.00  0.00    +0.000 A 
ATOM     10  C   UNL     1       6.985   5.099  16.324  0.00  0.00    +0.000 A 
ATOM     11  N   UNL     1       7.789   5.580  17.274  0.00  0.00    +0.000 NA
ATOM     12  N   UNL     1       7.162   5.230  18.420  0.00  0.00    +0.000 N 
ATOM     13  C   UNL     1       7.704   5.677  19.682  0.00  0.00    +0.000 C 
ATOM     14  C   UNL     1       7.309   5.157  14.871  0.00  0.00    +0.000 C 
ATOM     15  C   UNL     1       6.096   4.760  14.007  0.00  0.00    +0.000 C 
ATOM     16  C   UNL     1       5.345   3.548  14.580  0.00  0.00    +0.000 C 
ATOM     17  C   UNL     1       4.803   3.834  15.989  0.00  0.00    +0.000 C 
ENDBRANCH   5   8
BRANCH   1  20
ATOM     18  C   UNL     1       1.370   9.233  18.923  0.00  0.00    +0.000 A 
ATOM     19  N   UNL     1       1.985   8.025  18.930  0.00  0.00    +0.000 NA
ATOM     20  C   UNL     1       1.871   7.270  20.043  0.00  0.00    +0.000 A 
ATOM     21  C   UNL     1       1.200   7.701  21.181  0.00  0.00    +0.000 A 
ATOM     22  C   UNL     1       0.594   8.951  21.170  0.00  0.00    +0.000 A 
ATOM     23  C   UNL     1       0.650   9.735  20.012  0.00  0.00    +0.000 A 
BRANCH  23  24
ATOM     24  N   UNL     1      -0.073  10.957  19.978  0.00  0.00    +0.000 N 
ATOM     25  C   UNL     1      -1.298  11.213  19.404  0.00  0.00    +0.000 A 
ATOM     26  N   UNL     1      -1.733  12.431  19.656  0.00  0.00    +0.000 NA
ATOM     27  C   UNL     1      -0.759  13.015  20.418  0.00  0.00    +0.000 A 
ATOM     28  C   UNL     1      -0.906  14.397  20.920  0.00  0.00    +0.000 C 
ATOM     29  C   UNL     1       0.284  12.133  20.607  0.00  0.00    +0.000 A 
ENDBRANCH  23  24
BRANCH  18  31
ATOM     30  C   UNL     1       2.512  11.014  17.897  0.00  0.00    +0.000 C 
ATOM     31  O   UNL     1       1.515  10.000  17.790  0.00  0.00    +0.000 OA
ENDBRANCH  18  31
ENDBRANCH   1  20
TORSDOF 4
ENDMDL
MODEL 6
REMARK VINA RESULT:      -7.4      2.317      8.962
REMARK  Name = 
REMARK  7 active torsions:
REMARK  status: ('A' for Active; 'I' for Inactive)
REMARK    1  A    between atoms: C_1  and  O_2
REMARK    2  A    between atoms: O_2  and  C_3
REMARK    3  A    between atoms: C_5  and  C_6
REMARK    4  A    between atoms: N_10  and  C_11
REMARK    5  A    between atoms: N_15  and  C_16
REMARK    6  A    between atoms: C_24  and  N_25
REMARK    7  A    between atoms: C_28  and  C_29
REMARK                            x       y       z     vdW  Elec       q    Type
REMARK                         _______ _______ _______ _____ _____    ______ ____
ROOT
ATOM      1  C   UNL     1       1.673   8.080  19.865  0.00  0.00    +0.000 A 
ATOM      2  C   UNL     1       1.256   7.588  21.085  0.00  0.00    +0.000 A 
ATOM      3  S   UNL     1      -0.093   8.498  21.642  0.00  0.00    +0.000 S 
ATOM      4  C   UNL     1       0.055   9.542  20.280  0.00  0.00    +0.000 A 
ATOM      5  N   UNL     1      -0.744  10.623  20.115  0.00  0.00    +0.000 N 
ATOM      6  N   UNL     1       0.988   9.193  19.430  0.00  0.00    +0.000 NA
ATOM      7  H   UNL     1      -1.650  10.572  20.567  0.00  0.00    +0.000 HD
ENDROOT
BRANCH   5   8
ATOM      8  C   UNL     1      -0.365  11.781  19.504  0.00  0.00    +0.000 A 
ATOM      9  C   UNL     1       0.634  12.696  19.784  0.00  0.00    +0.000 A 
ATOM     10  C   UNL     1       0.463  13.729  18.838  0.00  0.00    +0.000 A 
ATOM     11  N   UNL     1      -0.531  13.480  17.982  0.00  0.00    +0.000 NA
ATOM     12  N   UNL     1      -1.003  12.281  18.391  0.00  0.00    +0.000 N 
ATOM     13  C   UNL     1      -2.042  11.636  17.624  0.00  0.00    +0.000 C 
ATOM     14  C   UNL     1       1.236  15.002  18.847  0.00  0.00    +0.000 C 
ATOM     15  C   UNL     1       2.471  14.905  19.763  0.00  0.00    +0.000 C 
ATOM     16  C   UNL     1       2.160  14.185  21.085  0.00  0.00    +0.000 C 
ATOM     17  C   UNL     1       1.680  12.744  20.844  0.00  0.00    +0.000 C 
ENDBRANCH   5   8
BRANCH   1  20
ATOM     18  C   UNL     1       4.180   5.753  18.629  0.00  0.00    +0.000 A 
ATOM     19  N   UNL     1       3.284   6.351  19.453  0.00  0.00    +0.000 NA
ATOM     20  C   UNL     1       2.721   7.504  19.037  0.00  0.00    +0.000 A 
ATOM     21  C   UNL     1       3.059   8.118  17.836  0.00  0.00    +0.000 A 
ATOM     22  C   UNL     1       3.996   7.508  17.012  0.00  0.00    +0.000 A 
ATOM     23  C   UNL     1       4.558   6.284  17.392  0.00  0.00    +0.000 A 
BRANCH  23  24
ATOM     24  N   UNL     1       5.425   5.618  16.485  0.00  0.00    +0.000 N 
ATOM     25  C   UNL     1       6.745   5.268  16.661  0.00  0.00    +0.000 A 
ATOM     26  N   UNL     1       7.221   4.556  15.659  0.00  0.00    +0.000 NA
ATOM     27  C   UNL     1       6.184   4.436  14.775  0.00  0.00    +0.000 A 
ATOM     28  C   UNL     1       6.334   3.671  13.520  0.00  0.00    +0.000 C 
ATOM     29  C   UNL     1       5.076   5.103  15.253  0.00  0.00    +0.000 A 
ENDBRANCH  23  24
BRANCH  18  31
ATOM     30  C   UNL     1       3.924   3.442  18.970  0.00  0.00    +0.000 C 
ATOM     31  O   UNL     1       4.761   4.590  19.078  0.00  0.00    +0.000 OA
ENDBRANCH  18  31
ENDBRANCH   1  20
TORSDOF 4
ENDMDL
MODEL 7
REMARK VINA RESULT:      -7.4      2.450      9.013
REMARK  Name = 
REMARK  7 active torsions:
REMARK  status: ('A' for Active; 'I' for Inactive)
REMARK    1  A    between atoms: C_1  and  O_2
REMARK    2  A    between atoms: O_2  and  C_3
REMARK    3  A    between atoms: C_5  and  C_6
REMARK    4  A    between atoms: N_10  and  C_11
REMARK    5  A    between atoms: N_15  and  C_16
REMARK    6  A    between atoms: C_24  and  N_25
REMARK    7  A    between atoms: C_28  and  C_29
REMARK                            x       y       z     vdW  Elec       q    Type
REMARK                         _______ _______ _______ _____ _____    ______ ____
ROOT
ATOM      1  C   UNL     1       1.271   8.451  20.335  0.00  0.00    +0.000 A 
ATOM      2  C   UNL     1       0.902   8.087  21.614  0.00  0.00    +0.000 A 
ATOM      3  S   UNL     1      -0.332   9.144  22.179  0.00  0.00    +0.000 S 
ATOM      4  C   UNL     1      -0.198  10.067  20.731  0.00  0.00    +0.000 A 
ATOM      5  N   UNL     1      -0.922  11.195  20.530  0.00  0.00    +0.000 N 
ATOM      6  N   UNL     1       0.645   9.580  19.856  0.00  0.00    +0.000 NA
ATOM      7  H   UNL     1      -1.796  11.251  21.041  0.00  0.00    +0.000 HD
ENDROOT
BRANCH   5   8
ATOM      8  C   UNL     1      -0.497  12.269  19.807  0.00  0.00    +0.000 A 
ATOM      9  C   UNL     1       0.411  13.275  20.082  0.00  0.00    +0.000 A 
ATOM     10  C   UNL     1       0.348  14.142  18.970  0.00  0.00    +0.000 A 
ATOM     11  N   UNL     1      -0.491  13.707  18.028  0.00  0.00    +0.000 NA
ATOM     12  N   UNL     1      -0.974  12.556  18.548  0.00  0.00    +0.000 N 
ATOM     13  C   UNL     1      -1.858  11.740  17.748  0.00  0.00    +0.000 C 
ATOM     14  C   UNL     1       1.062  15.448  18.892  0.00  0.00    +0.000 C 
ATOM     15  C   UNL     1       2.144  15.565  19.982  0.00  0.00    +0.000 C 
ATOM     16  C   UNL     1       1.661  15.033  21.341  0.00  0.00    +0.000 C 
ATOM     17  C   UNL     1       1.278  13.546  21.262  0.00  0.00    +0.000 C 
ENDBRANCH   5   8
BRANCH   1  20
ATOM     18  C   UNL     1       3.491   5.835  19.128  0.00  0.00    +0.000 A 
ATOM     19  N   UNL     1       2.702   6.563  19.957  0.00  0.00    +0.000 NA
ATOM     20  C   UNL     1       2.213   7.731  19.492  0.00  0.00    +0.000 A 
ATOM     21  C   UNL     1       2.526   8.232  18.233  0.00  0.00    +0.000 A 
ATOM     22  C   UNL     1       3.354   7.488  17.402  0.00  0.00    +0.000 A 
ATOM     23  C   UNL     1       3.834   6.247  17.837  0.00  0.00    +0.000 A 
BRANCH  23  24
ATOM     24  N   UNL     1       4.583   5.449  16.931  0.00  0.00    +0.000 N 
ATOM     25  C   UNL     1       4.455   4.103  16.668  0.00  0.00    +0.000 A 
ATOM     26  N   UNL     1       5.236   3.701  15.685  0.00  0.00    +0.000 NA
ATOM     27  C   UNL     1       5.919   4.816  15.285  0.00  0.00    +0.000 A 
ATOM     28  C   UNL     1       6.887   4.761  14.170  0.00  0.00    +0.000 C 
ATOM     29  C   UNL     1       5.550   5.898  16.056  0.00  0.00    +0.000 A 
ENDBRANCH  23  24
BRANCH  18  31
ATOM     30  C   UNL     1       3.005   3.737  20.069  0.00  0.00    +0.000 C 
ATOM     31  O   UNL     1       3.999   4.657  19.625  0.00  0.00    +0.000 OA
ENDBRANCH  18  31
ENDBRANCH   1  20
TORSDOF 4
ENDMDL
MODEL 8
REMARK VINA RESULT:      -7.4      3.818     10.207
REMARK  Name = 
REMARK  7 active torsions:
REMARK  status: ('A' for Active; 'I' for Inactive)
REMARK    1  A    between atoms: C_1  and  O_2
REMARK    2  A    between atoms: O_2  and  C_3
REMARK    3  A    between atoms: C_5  and  C_6
REMARK    4  A    between atoms: N_10  and  C_11
REMARK    5  A    between atoms: N_15  and  C_16
REMARK    6  A    between atoms: C_24  and  N_25
REMARK    7  A    between atoms: C_28  and  C_29
REMARK                            x       y       z     vdW  Elec       q    Type
REMARK                         _______ _______ _______ _____ _____    ______ ____
ROOT
ATOM      1  C   UNL     1       0.092  11.863  19.256  0.00  0.00    +0.000 A 
ATOM      2  C   UNL     1       0.557  12.902  18.476  0.00  0.00    +0.000 A 
ATOM      3  S   UNL     1      -0.459  14.275  18.683  0.00  0.00    +0.000 S 
ATOM      4  C   UNL     1      -1.497  13.349  19.698  0.00  0.00    +0.000 A 
ATOM      5  N   UNL     1      -2.642  13.861  20.210  0.00  0.00    +0.000 N 
ATOM      6  N   UNL     1      -1.078  12.131  19.932  0.00  0.00    +0.000 NA
ATOM      7  H   UNL     1      -2.663  14.868  20.316  0.00  0.00    +0.000 HD
ENDROOT
BRANCH   5   8
ATOM      8  C   UNL     1      -3.769  13.137  20.462  0.00  0.00    +0.000 A 
ATOM      9  C   UNL     1      -4.610  12.408  19.639  0.00  0.00    +0.000 A 
ATOM     10  C   UNL     1      -5.652  11.963  20.480  0.00  0.00    +0.000 A 
ATOM     11  N   UNL     1      -5.476  12.326  21.751  0.00  0.00    +0.000 NA
ATOM     12  N   UNL     1      -4.314  13.017  21.720  0.00  0.00    +0.000 N 
ATOM     13  C   UNL     1      -3.745  13.493  22.959  0.00  0.00    +0.000 C 
ATOM     14  C   UNL     1      -6.866  11.250  19.993  0.00  0.00    +0.000 C 
ATOM     15  C   UNL     1      -6.680  10.740  18.551  0.00  0.00    +0.000 C 
ATOM     16  C   UNL     1      -5.985  11.775  17.653  0.00  0.00    +0.000 C 
ATOM     17  C   UNL     1      -4.583  12.127  18.176  0.00  0.00    +0.000 C 
ENDBRANCH   5   8
BRANCH   1  20
ATOM     18  C   UNL     1       1.291   8.799  20.805  0.00  0.00    +0.000 A 
ATOM     19  N   UNL     1       0.784  10.049  20.664  0.00  0.00    +0.000 NA
ATOM     20  C   UNL     1       0.746  10.574  19.422  0.00  0.00    +0.000 A 
ATOM     21  C   UNL     1       1.246   9.911  18.307  0.00  0.00    +0.000 A 
ATOM     22  C   UNL     1       1.785   8.641  18.468  0.00  0.00    +0.000 A 
ATOM     23  C   UNL     1       1.791   8.049  19.736  0.00  0.00    +0.000 A 
BRANCH  23  24
ATOM     24  N   UNL     1       2.238   6.706  19.862  0.00  0.00    +0.000 N 
ATOM     25  C   UNL     1       3.381   6.132  19.351  0.00  0.00    +0.000 A 
ATOM     26  N   UNL     1       3.548   4.888  19.753  0.00  0.00    +0.000 NA
ATOM     27  C   UNL     1       2.472   4.617  20.552  0.00  0.00    +0.000 A 
ATOM     28  C   UNL     1       2.323   3.304  21.214  0.00  0.00    +0.000 C 
ATOM     29  C   UNL     1       1.640   5.714  20.613  0.00  0.00    +0.000 A 
ENDBRANCH  23  24
BRANCH  18  31
ATOM     30  C   UNL     1       0.788   9.145  23.075  0.00  0.00    +0.000 C 
ATOM     31  O   UNL     1       1.344   8.288  22.081  0.00  0.00    +0.000 OA
ENDBRANCH  18  31
ENDBRANCH   1  20
TORSDOF 4
ENDMDL
MODEL 9
REMARK VINA RESULT:      -7.3      1.336      2.061
REMARK  Name = 
REMARK  7 active torsions:
REMARK  status: ('A' for Active; 'I' for Inactive)
REMARK    1  A    between atoms: C_1  and  O_2
REMARK    2  A    between atoms: O_2  and  C_3
REMARK    3  A    between atoms: C_5  and  C_6
REMARK    4  A    between atoms: N_10  and  C_11
REMARK    5  A    between atoms: N_15  and  C_16
REMARK    6  A    between atoms: C_24  and  N_25
REMARK    7  A    between atoms: C_28  and  C_29
REMARK                            x       y       z     vdW  Elec       q    Type
REMARK                         _______ _______ _______ _____ _____    ______ ____
ROOT
ATOM      1  C   UNL     1       2.003   6.657  20.117  0.00  0.00    +0.000 A 
ATOM      2  C   UNL     1       1.401   5.908  21.108  0.00  0.00    +0.000 A 
ATOM      3  S   UNL     1       2.225   4.407  21.273  0.00  0.00    +0.000 S 
ATOM      4  C   UNL     1       3.238   4.820  19.944  0.00  0.00    +0.000 A 
ATOM      5  N   UNL     1       4.170   3.965  19.459  0.00  0.00    +0.000 N 
ATOM      6  N   UNL     1       3.034   6.020  19.462  0.00  0.00    +0.000 NA
ATOM      7  H   UNL     1       4.522   3.280  20.119  0.00  0.00    +0.000 HD
ENDROOT
BRANCH   5   8
ATOM      8  C   UNL     1       4.553   3.896  18.153  0.00  0.00    +0.000 A 
ATOM      9  C   UNL     1       5.605   4.468  17.461  0.00  0.00    +0.000 A 
ATOM     10  C   UNL     1       5.412   4.088  16.115  0.00  0.00    +0.000 A 
ATOM     11  N   UNL     1       4.353   3.292  15.956  0.00  0.00    +0.000 NA
ATOM     12  N   UNL     1       3.862   3.169  17.210  0.00  0.00    +0.000 N 
ATOM     13  C   UNL     1       2.747   2.282  17.445  0.00  0.00    +0.000 C 
ATOM     14  C   UNL     1       6.235   4.594  14.982  0.00  0.00    +0.000 C 
ATOM     15  C   UNL     1       7.524   5.273  15.480  0.00  0.00    +0.000 C 
ATOM     16  C   UNL     1       7.276   6.165  16.707  0.00  0.00    +0.000 C 
ATOM     17  C   UNL     1       6.722   5.356  17.891  0.00  0.00    +0.000 C 
ENDBRANCH   5   8
BRANCH   1  20
ATOM     18  C   UNL     1       0.899  10.108  20.426  0.00  0.00    +0.000 A 
ATOM     19  N   UNL     1       1.124   8.805  20.724  0.00  0.00    +0.000 NA
ATOM     20  C   UNL     1       1.650   8.022  19.759  0.00  0.00    +0.000 A 
ATOM     21  C   UNL     1       1.919   8.485  18.476  0.00  0.00    +0.000 A 
ATOM     22  C   UNL     1       1.662   9.817  18.176  0.00  0.00    +0.000 A 
ATOM     23  C   UNL     1       1.165  10.666  19.172  0.00  0.00    +0.000 A 
BRANCH  23  24
ATOM     24  N   UNL     1       1.019  12.049  18.881  0.00  0.00    +0.000 N 
ATOM     25  C   UNL     1      -0.123  12.736  18.536  0.00  0.00    +0.000 A 
ATOM     26  N   UNL     1       0.073  14.036  18.445  0.00  0.00    +0.000 NA
ATOM     27  C   UNL     1       1.398  14.223  18.730  0.00  0.00    +0.000 A 
ATOM     28  C   UNL     1       1.991  15.577  18.749  0.00  0.00    +0.000 C 
ATOM     29  C   UNL     1       2.004  13.010  18.977  0.00  0.00    +0.000 A 
ENDBRANCH  23  24
BRANCH  18  31
ATOM     30  C   UNL     1      -0.329  10.145  22.430  0.00  0.00    +0.000 C 
ATOM     31  O   UNL     1       0.342  10.887  21.414  0.00  0.00    +0.000 OA
ENDBRANCH  18  31
ENDBRANCH   1  20
TORSDOF 4
ENDMDL
