MODEL 1
REMARK VINA RESULT:      -7.4      0.000      0.000
REMARK  Name = 
REMARK  6 active torsions:
REMARK  status: ('A' for Active; 'I' for Inactive)
REMARK    1  A    between atoms: C_1  and  C_2
REMARK    2  A    between atoms: C_9  and  C_10
REMARK    3  A    between atoms: C_9  and  O_11
REMARK    4  A    between atoms: C_20  and  C_21
REMARK    5  A    between atoms: C_21  and  C_23
REMARK    6  A    between atoms: C_23  and  N_24
REMARK                            x       y       z     vdW  Elec       q    Type
REMARK                         _______ _______ _______ _____ _____    ______ ____
ROOT
ATOM      1  C   UNL     1      -0.278   9.840  17.982  0.00  0.00    +0.000 C 
ATOM      2  C   UNL     1       0.904  10.203  18.924  0.00  0.00    +0.000 C 
ATOM      3  C   UNL     1       2.222  10.057  18.170  0.00  0.00    +0.000 C 
ATOM      4  C   UNL     1       2.485   8.604  17.804  0.00  0.00    +0.000 C 
ATOM      5  C   UNL     1       2.450   7.661  19.021  0.00  0.00    +0.000 C 
ATOM      6  C   UNL     1       2.534   6.183  18.591  0.00  0.00    +0.000 C 
ATOM      7  C   UNL     1       3.691   5.886  17.625  0.00  0.00    +0.000 C 
ATOM      8  C   UNL     1       3.554   4.482  17.055  0.00  0.00    +0.000 C 
ATOM      9  C   UNL     1       3.382   3.387  18.118  0.00  0.00    +0.000 C 
ATOM     10  C   UNL     1       2.766   2.155  17.441  0.00  0.00    +0.000 C 
ATOM     11  C   UNL     1       2.522   3.784  19.337  0.00  0.00    +0.000 C 
ATOM     12  C   UNL     1       2.671   5.247  19.805  0.00  0.00    +0.000 C 
ATOM     13  C   UNL     1       1.651   5.552  20.922  0.00  0.00    +0.000 C 
ATOM     14  C   UNL     1       1.448   7.043  21.219  0.00  0.00    +0.000 C 
ATOM     15  C   UNL     1       1.196   7.849  19.932  0.00  0.00    +0.000 C 
ATOM     16  C   UNL     1       0.962   9.341  20.207  0.00  0.00    +0.000 C 
ATOM     17  C   UNL     1      -0.287   9.822  20.953  0.00  0.00    +0.000 C 
ATOM     18  C   UNL     1      -0.239  11.358  20.743  0.00  0.00    +0.000 C 
ATOM     19  C   UNL     1       0.729  11.597  19.565  0.00  0.00    +0.000 C 
ENDROOT
BRANCH   9  20
ATOM     20  O   UNL     1       4.678   3.001  18.583  0.00  0.00    +0.000 OA
ATOM     21  H   UNL     1       5.002   3.689  19.188  0.00  0.00    +0.000 HD
ENDBRANCH   9  20
BRANCH  19  22
ATOM     22  C   UNL     1       0.475  12.702  18.550  0.00  0.00    +0.000 C 
ATOM     23  O   UNL     1      -0.674  12.904  18.146  0.00  0.00    +0.000 OA
BRANCH  22  24
ATOM     24  C   UNL     1       1.592  13.576  18.062  0.00  0.00    +0.000 C 
BRANCH  24  25
ATOM     25  N   UNL     1       2.124  14.377  19.136  0.00  0.00    +0.000 N 
ATOM     26  C   UNL     1       3.384  14.381  19.651  0.00  0.00    +0.000 A 
ATOM     27  C   UNL     1       3.334  15.346  20.625  0.00  0.00    +0.000 A 
ATOM     28  N   UNL     1       2.077  15.889  20.663  0.00  0.00    +0.000 NA
ATOM     29  N   UNL     1       1.342  15.291  19.739  0.00  0.00    +0.000 NA
ENDBRANCH  24  25
ENDBRANCH  22  24
ENDBRANCH  19  22
TORSDOF 4
ENDMDL
MODEL 2
REMARK VINA RESULT:      -7.3      3.741      8.148
REMARK  Name = 
REMARK  6 active torsions:
REMARK  status: ('A' for Active; 'I' for Inactive)
REMARK    1  A    between atoms: C_1  and  C_2
REMARK    2  A    between atoms: C_9  and  C_10
REMARK    3  A    between atoms: C_9  and  O_11
REMARK    4  A    between atoms: C_20  and  C_21
REMARK    5  A    between atoms: C_21  and  C_23
REMARK    6  A    between atoms: C_23  and  N_24
REMARK                            x       y       z     vdW  Elec       q    Type
REMARK                         _______ _______ _______ _____ _____    ______ ____
ROOT
ATOM      1  C   UNL     1       4.371   6.136  19.530  0.00  0.00    +0.000 C 
ATOM      2  C   UNL     1       2.943   5.774  19.035  0.00  0.00    +0.000 C 
ATOM      3  C   UNL     1       2.633   6.549  17.759  0.00  0.00    +0.000 C 
ATOM      4  C   UNL     1       2.552   8.045  18.032  0.00  0.00    +0.000 C 
ATOM      5  C   UNL     1       1.544   8.400  19.141  0.00  0.00    +0.000 C 
ATOM      6  C   UNL     1       1.624   9.893  19.517  0.00  0.00    +0.000 C 
ATOM      7  C   UNL     1       1.558  10.839  18.309  0.00  0.00    +0.000 C 
ATOM      8  C   UNL     1       1.897  12.260  18.734  0.00  0.00    +0.000 C 
ATOM      9  C   UNL     1       1.074  12.772  19.925  0.00  0.00    +0.000 C 
ATOM     10  C   UNL     1       1.826  13.953  20.555  0.00  0.00    +0.000 C 
ATOM     11  C   UNL     1       0.770  11.721  21.014  0.00  0.00    +0.000 C 
ATOM     12  C   UNL     1       0.507  10.290  20.499  0.00  0.00    +0.000 C 
ATOM     13  C   UNL     1       0.372   9.315  21.688  0.00  0.00    +0.000 C 
ATOM     14  C   UNL     1       0.470   7.830  21.318  0.00  0.00    +0.000 C 
ATOM     15  C   UNL     1       1.700   7.545  20.437  0.00  0.00    +0.000 C 
ATOM     16  C   UNL     1       1.835   6.059  20.077  0.00  0.00    +0.000 C 
ATOM     17  C   UNL     1       2.149   5.009  21.148  0.00  0.00    +0.000 C 
ATOM     18  C   UNL     1       2.469   3.747  20.306  0.00  0.00    +0.000 C 
ATOM     19  C   UNL     1       2.753   4.250  18.874  0.00  0.00    +0.000 C 
ENDROOT
BRANCH   9  20
ATOM     20  O   UNL     1      -0.166  13.285  19.429  0.00  0.00    +0.000 OA
ATOM     21  H   UNL     1      -0.382  14.093  19.925  0.00  0.00    +0.000 HD
ENDBRANCH   9  20
BRANCH  19  22
ATOM     22  C   UNL     1       3.819   3.596  18.008  0.00  0.00    +0.000 C 
ATOM     23  O   UNL     1       4.701   2.915  18.539  0.00  0.00    +0.000 OA
BRANCH  22  24
ATOM     24  C   UNL     1       3.792   3.732  16.514  0.00  0.00    +0.000 C 
BRANCH  24  25
ATOM     25  N   UNL     1       5.031   4.286  16.027  0.00  0.00    +0.000 N 
ATOM     26  C   UNL     1       6.064   3.648  15.411  0.00  0.00    +0.000 A 
ATOM     27  C   UNL     1       6.957   4.657  15.146  0.00  0.00    +0.000 A 
ATOM     28  N   UNL     1       6.444   5.846  15.592  0.00  0.00    +0.000 NA
ATOM     29  N   UNL     1       5.256   5.608  16.126  0.00  0.00    +0.000 NA
ENDBRANCH  24  25
ENDBRANCH  22  24
ENDBRANCH  19  22
TORSDOF 4
ENDMDL
MODEL 3
REMARK VINA RESULT:      -7.2      1.424      1.583
REMARK  Name = 
REMARK  6 active torsions:
REMARK  status: ('A' for Active; 'I' for Inactive)
REMARK    1  A    between atoms: C_1  and  C_2
REMARK    2  A    between atoms: C_9  and  C_10
REMARK    3  A    between atoms: C_9  and  O_11
REMARK    4  A    between atoms: C_20  and  C_21
REMARK    5  A    between atoms: C_21  and  C_23
REMARK    6  A    between atoms: C_23  and  N_24
REMARK                            x       y       z     vdW  Elec       q    Type
REMARK                         _______ _______ _______ _____ _____    ______ ____
ROOT
ATOM      1  C   UNL     1      -0.127   9.874  18.007  0.00  0.00    +0.000 C 
ATOM      2  C   UNL     1       1.058  10.185  18.962  0.00  0.00    +0.000 C 
ATOM      3  C   UNL     1       2.377  10.003  18.216  0.00  0.00    +0.000 C 
ATOM      4  C   UNL     1       2.593   8.546  17.835  0.00  0.00    +0.000 C 
ATOM      5  C   UNL     1       2.516   7.591  19.040  0.00  0.00    +0.000 C 
ATOM      6  C   UNL     1       2.553   6.116  18.593  0.00  0.00    +0.000 C 
ATOM      7  C   UNL     1       3.707   5.790  17.633  0.00  0.00    +0.000 C 
ATOM      8  C   UNL     1       3.526   4.399  17.045  0.00  0.00    +0.000 C 
ATOM      9  C   UNL     1       3.309   3.298  18.093  0.00  0.00    +0.000 C 
ATOM     10  C   UNL     1       2.656   2.096  17.397  0.00  0.00    +0.000 C 
ATOM     11  C   UNL     1       2.453   3.710  19.310  0.00  0.00    +0.000 C 
ATOM     12  C   UNL     1       2.648   5.161  19.797  0.00  0.00    +0.000 C 
ATOM     13  C   UNL     1       1.631   5.488  20.910  0.00  0.00    +0.000 C 
ATOM     14  C   UNL     1       1.476   6.981  21.223  0.00  0.00    +0.000 C 
ATOM     15  C   UNL     1       1.262   7.811  19.944  0.00  0.00    +0.000 C 
ATOM     16  C   UNL     1       1.077   9.306  20.235  0.00  0.00    +0.000 C 
ATOM     17  C   UNL     1      -0.160   9.822  20.977  0.00  0.00    +0.000 C 
ATOM     18  C   UNL     1      -0.058  11.357  20.786  0.00  0.00    +0.000 C 
ATOM     19  C   UNL     1       0.927  11.577  19.618  0.00  0.00    +0.000 C 
ENDROOT
BRANCH   9  20
ATOM     20  O   UNL     1       4.588   2.863  18.563  0.00  0.00    +0.000 OA
ATOM     21  H   UNL     1       4.747   1.965  18.227  0.00  0.00    +0.000 HD
ENDBRANCH   9  20
BRANCH  19  22
ATOM     22  C   UNL     1       0.718  12.701  18.614  0.00  0.00    +0.000 C 
ATOM     23  O   UNL     1       1.657  13.056  17.895  0.00  0.00    +0.000 OA
BRANCH  22  24
ATOM     24  C   UNL     1      -0.621  13.359  18.456  0.00  0.00    +0.000 C 
BRANCH  24  25
ATOM     25  N   UNL     1      -0.667  14.609  19.172  0.00  0.00    +0.000 N 
ATOM     26  C   UNL     1      -1.057  14.841  20.456  0.00  0.00    +0.000 A 
ATOM     27  C   UNL     1      -0.874  16.192  20.612  0.00  0.00    +0.000 A 
ATOM     28  N   UNL     1      -0.382  16.722  19.447  0.00  0.00    +0.000 NA
ATOM     29  N   UNL     1      -0.252  15.739  18.571  0.00  0.00    +0.000 NA
ENDBRANCH  24  25
ENDBRANCH  22  24
ENDBRANCH  19  22
TORSDOF 4
ENDMDL
MODEL 4
REMARK VINA RESULT:      -7.1      1.388      1.602
REMARK  Name = 
REMARK  6 active torsions:
REMARK  status: ('A' for Active; 'I' for Inactive)
REMARK    1  A    between atoms: C_1  and  C_2
REMARK    2  A    between atoms: C_9  and  C_10
REMARK    3  A    between atoms: C_9  and  O_11
REMARK    4  A    between atoms: C_20  and  C_21
REMARK    5  A    between atoms: C_21  and  C_23
REMARK    6  A    between atoms: C_23  and  N_24
REMARK                            x       y       z     vdW  Elec       q    Type
REMARK                         _______ _______ _______ _____ _____    ______ ____
ROOT
ATOM      1  C   UNL     1      -0.551   9.820  17.965  0.00  0.00    +0.000 C 
ATOM      2  C   UNL     1       0.573  10.299  18.925  0.00  0.00    +0.000 C 
ATOM      3  C   UNL     1       1.907  10.311  18.185  0.00  0.00    +0.000 C 
ATOM      4  C   UNL     1       2.334   8.900  17.805  0.00  0.00    +0.000 C 
ATOM      5  C   UNL     1       2.391   7.943  19.010  0.00  0.00    +0.000 C 
ATOM      6  C   UNL     1       2.644   6.489  18.563  0.00  0.00    +0.000 C 
ATOM      7  C   UNL     1       3.837   6.335  17.608  0.00  0.00    +0.000 C 
ATOM      8  C   UNL     1       3.862   4.933  17.020  0.00  0.00    +0.000 C 
ATOM      9  C   UNL     1       3.802   3.811  18.067  0.00  0.00    +0.000 C 
ATOM     10  C   UNL     1       3.334   2.528  17.369  0.00  0.00    +0.000 C 
ATOM     11  C   UNL     1       2.890   4.094  19.280  0.00  0.00    +0.000 C 
ATOM     12  C   UNL     1       2.871   5.558  19.768  0.00  0.00    +0.000 C 
ATOM     13  C   UNL     1       1.812   5.734  20.876  0.00  0.00    +0.000 C 
ATOM     14  C   UNL     1       1.441   7.189  21.188  0.00  0.00    +0.000 C 
ATOM     15  C   UNL     1       1.114   7.979  19.908  0.00  0.00    +0.000 C 
ATOM     16  C   UNL     1       0.713   9.432  20.198  0.00  0.00    +0.000 C 
ATOM     17  C   UNL     1      -0.589   9.762  20.934  0.00  0.00    +0.000 C 
ATOM     18  C   UNL     1      -0.710  11.296  20.744  0.00  0.00    +0.000 C 
ATOM     19  C   UNL     1       0.238  11.657  19.580  0.00  0.00    +0.000 C 
ENDROOT
BRANCH   9  20
ATOM     20  O   UNL     1       5.129   3.566  18.543  0.00  0.00    +0.000 OA
ATOM     21  H   UNL     1       5.651   4.377  18.423  0.00  0.00    +0.000 HD
ENDBRANCH   9  20
BRANCH  19  22
ATOM     22  C   UNL     1      -0.127  12.740  18.575  0.00  0.00    +0.000 C 
ATOM     23  O   UNL     1      -1.109  12.583  17.843  0.00  0.00    +0.000 OA
BRANCH  22  24
ATOM     24  C   UNL     1       0.663  14.012  18.488  0.00  0.00    +0.000 C 
BRANCH  24  25
ATOM     25  N   UNL     1      -0.108  15.129  18.971  0.00  0.00    +0.000 N 
ATOM     26  C   UNL     1      -0.268  16.359  18.410  0.00  0.00    +0.000 A 
ATOM     27  C   UNL     1      -1.116  17.004  19.275  0.00  0.00    +0.000 A 
ATOM     28  N   UNL     1      -1.441  16.161  20.305  0.00  0.00    +0.000 NA
ATOM     29  N   UNL     1      -0.822  15.008  20.105  0.00  0.00    +0.000 NA
ENDBRANCH  24  25
ENDBRANCH  22  24
ENDBRANCH  19  22
TORSDOF 4
ENDMDL
MODEL 5
REMARK VINA RESULT:      -7.1      0.851      1.061
REMARK  Name = 
REMARK  6 active torsions:
REMARK  status: ('A' for Active; 'I' for Inactive)
REMARK    1  A    between atoms: C_1  and  C_2
REMARK    2  A    between atoms: C_9  and  C_10
REMARK    3  A    between atoms: C_9  and  O_11
REMARK    4  A    between atoms: C_20  and  C_21
REMARK    5  A    between atoms: C_21  and  C_23
REMARK    6  A    between atoms: C_23  and  N_24
REMARK                            x       y       z     vdW  Elec       q    Type
REMARK                         _______ _______ _______ _____ _____    ______ ____
ROOT
ATOM      1  C   UNL     1      -0.648   9.892  17.996  0.00  0.00    +0.000 C 
ATOM      2  C   UNL     1       0.471  10.404  18.944  0.00  0.00    +0.000 C 
ATOM      3  C   UNL     1       1.797  10.452  18.191  0.00  0.00    +0.000 C 
ATOM      4  C   UNL     1       2.260   9.053  17.808  0.00  0.00    +0.000 C 
ATOM      5  C   UNL     1       2.355   8.100  19.013  0.00  0.00    +0.000 C 
ATOM      6  C   UNL     1       2.644   6.653  18.564  0.00  0.00    +0.000 C 
ATOM      7  C   UNL     1       3.832   6.532  17.598  0.00  0.00    +0.000 C 
ATOM      8  C   UNL     1       3.891   5.130  17.010  0.00  0.00    +0.000 C 
ATOM      9  C   UNL     1       3.873   4.008  18.059  0.00  0.00    +0.000 C 
ATOM     10  C   UNL     1       3.434   2.711  17.366  0.00  0.00    +0.000 C 
ATOM     11  C   UNL     1       2.965   4.266  19.281  0.00  0.00    +0.000 C 
ATOM     12  C   UNL     1       2.909   5.730  19.768  0.00  0.00    +0.000 C 
ATOM     13  C   UNL     1       1.857   5.876  20.886  0.00  0.00    +0.000 C 
ATOM     14  C   UNL     1       1.448   7.321  21.201  0.00  0.00    +0.000 C 
ATOM     15  C   UNL     1       1.087   8.100  19.924  0.00  0.00    +0.000 C 
ATOM     16  C   UNL     1       0.648   9.541  20.217  0.00  0.00    +0.000 C 
ATOM     17  C   UNL     1      -0.656   9.836  20.965  0.00  0.00    +0.000 C 
ATOM     18  C   UNL     1      -0.821  11.365  20.775  0.00  0.00    +0.000 C 
ATOM     19  C   UNL     1       0.104  11.752  19.601  0.00  0.00    +0.000 C 
ENDROOT
BRANCH   9  20
ATOM     20  O   UNL     1       5.210   3.801  18.521  0.00  0.00    +0.000 OA
ATOM     21  H   UNL     1       5.571   4.658  18.805  0.00  0.00    +0.000 HD
ENDBRANCH   9  20
BRANCH  19  22
ATOM     22  C   UNL     1      -0.301  12.823  18.600  0.00  0.00    +0.000 C 
ATOM     23  O   UNL     1      -1.054  12.529  17.667  0.00  0.00    +0.000 OA
BRANCH  22  24
ATOM     24  C   UNL     1       0.168  14.240  18.750  0.00  0.00    +0.000 C 
BRANCH  24  25
ATOM     25  N   UNL     1       1.595  14.290  18.948  0.00  0.00    +0.000 N 
ATOM     26  C   UNL     1       2.286  14.659  20.062  0.00  0.00    +0.000 A 
ATOM     27  C   UNL     1       3.600  14.492  19.698  0.00  0.00    +0.000 A 
ATOM     28  N   UNL     1       3.659  14.031  18.409  0.00  0.00    +0.000 NA
ATOM     29  N   UNL     1       2.421  13.904  17.959  0.00  0.00    +0.000 NA
ENDBRANCH  24  25
ENDBRANCH  22  24
ENDBRANCH  19  22
TORSDOF 4
ENDMDL
MODEL 6
REMARK VINA RESULT:      -7.0      4.407      8.523
REMARK  Name = 
REMARK  6 active torsions:
REMARK  status: ('A' for Active; 'I' for Inactive)
REMARK    1  A    between atoms: C_1  and  C_2
REMARK    2  A    between atoms: C_9  and  C_10
REMARK    3  A    between atoms: C_9  and  O_11
REMARK    4  A    between atoms: C_20  and  C_21
REMARK    5  A    between atoms: C_21  and  C_23
REMARK    6  A    between atoms: C_23  and  N_24
REMARK                            x       y       z     vdW  Elec       q    Type
REMARK                         _______ _______ _______ _____ _____    ______ ____
ROOT
ATOM      1  C   UNL     1       5.792   6.328  18.465  0.00  0.00    +0.000 C 
ATOM      2  C   UNL     1       4.518   5.634  17.908  0.00  0.00    +0.000 C 
ATOM      3  C   UNL     1       3.929   6.476  16.780  0.00  0.00    +0.000 C 
ATOM      4  C   UNL     1       3.414   7.809  17.304  0.00  0.00    +0.000 C 
ATOM      5  C   UNL     1       2.399   7.654  18.452  0.00  0.00    +0.000 C 
ATOM      6  C   UNL     1       2.044   9.018  19.077  0.00  0.00    +0.000 C 
ATOM      7  C   UNL     1       1.639  10.083  18.048  0.00  0.00    +0.000 C 
ATOM      8  C   UNL     1       1.554  11.450  18.710  0.00  0.00    +0.000 C 
ATOM      9  C   UNL     1       0.671  11.485  19.967  0.00  0.00    +0.000 C 
ATOM     10  C   UNL     1       1.061  12.718  20.792  0.00  0.00    +0.000 C 
ATOM     11  C   UNL     1       0.750  10.227  20.859  0.00  0.00    +0.000 C 
ATOM     12  C   UNL     1       0.907   8.889  20.107  0.00  0.00    +0.000 C 
ATOM     13  C   UNL     1       1.127   7.739  21.112  0.00  0.00    +0.000 C 
ATOM     14  C   UNL     1       1.651   6.436  20.495  0.00  0.00    +0.000 C 
ATOM     15  C   UNL     1       2.867   6.687  19.585  0.00  0.00    +0.000 C 
ATOM     16  C   UNL     1       3.426   5.393  18.977  0.00  0.00    +0.000 C 
ATOM     17  C   UNL     1       4.092   4.329  19.855  0.00  0.00    +0.000 C 
ATOM     18  C   UNL     1       4.737   3.380  18.812  0.00  0.00    +0.000 C 
ATOM     19  C   UNL     1       4.789   4.173  17.489  0.00  0.00    +0.000 C 
ENDROOT
BRANCH   9  20
ATOM     20  O   UNL     1      -0.687  11.669  19.560  0.00  0.00    +0.000 OA
ATOM     21  H   UNL     1      -1.251  11.100  20.111  0.00  0.00    +0.000 HD
ENDBRANCH   9  20
BRANCH  19  22
ATOM     22  C   UNL     1       5.959   4.026  16.529  0.00  0.00    +0.000 C 
ATOM     23  O   UNL     1       7.109   4.203  16.941  0.00  0.00    +0.000 OA
BRANCH  22  24
ATOM     24  C   UNL     1       5.742   3.630  15.098  0.00  0.00    +0.000 C 
BRANCH  24  25
ATOM     25  N   UNL     1       6.666   4.316  14.230  0.00  0.00    +0.000 N 
ATOM     26  C   UNL     1       6.853   4.156  12.891  0.00  0.00    +0.000 A 
ATOM     27  C   UNL     1       7.828   5.074  12.587  0.00  0.00    +0.000 A 
ATOM     28  N   UNL     1       8.185   5.749  13.724  0.00  0.00    +0.000 NA
ATOM     29  N   UNL     1       7.460   5.280  14.727  0.00  0.00    +0.000 NA
ENDBRANCH  24  25
ENDBRANCH  22  24
ENDBRANCH  19  22
TORSDOF 4
ENDMDL
MODEL 7
REMARK VINA RESULT:      -7.0      4.728      8.715
REMARK  Name = 
REMARK  6 active torsions:
REMARK  status: ('A' for Active; 'I' for Inactive)
REMARK    1  A    between atoms: C_1  and  C_2
REMARK    2  A    between atoms: C_9  and  C_10
REMARK    3  A    between atoms: C_9  and  O_11
REMARK    4  A    between atoms: C_20  and  C_21
REMARK    5  A    between atoms: C_21  and  C_23
REMARK    6  A    between atoms: C_23  and  N_24
REMARK                            x       y       z     vdW  Elec       q    Type
REMARK                         _______ _______ _______ _____ _____    ______ ____
ROOT
ATOM      1  C   UNL     1       6.170   6.661  18.397  0.00  0.00    +0.000 C 
ATOM      2  C   UNL     1       5.049   5.861  17.679  0.00  0.00    +0.000 C 
ATOM      3  C   UNL     1       4.386   6.743  16.625  0.00  0.00    +0.000 C 
ATOM      4  C   UNL     1       3.644   7.905  17.271  0.00  0.00    +0.000 C 
ATOM      5  C   UNL     1       2.615   7.451  18.323  0.00  0.00    +0.000 C 
ATOM      6  C   UNL     1       2.021   8.653  19.084  0.00  0.00    +0.000 C 
ATOM      7  C   UNL     1       1.501   9.769  18.166  0.00  0.00    +0.000 C 
ATOM      8  C   UNL     1       1.171  11.011  18.982  0.00  0.00    +0.000 C 
ATOM      9  C   UNL     1       0.238  10.750  20.173  0.00  0.00    +0.000 C 
ATOM     10  C   UNL     1       0.391  11.911  21.165  0.00  0.00    +0.000 C 
ATOM     11  C   UNL     1       0.473   9.414  20.911  0.00  0.00    +0.000 C 
ATOM     12  C   UNL     1       0.873   8.223  20.014  0.00  0.00    +0.000 C 
ATOM     13  C   UNL     1       1.226   6.999  20.885  0.00  0.00    +0.000 C 
ATOM     14  C   UNL     1       1.976   5.881  20.151  0.00  0.00    +0.000 C 
ATOM     15  C   UNL     1       3.178   6.428  19.359  0.00  0.00    +0.000 C 
ATOM     16  C   UNL     1       3.961   5.322  18.638  0.00  0.00    +0.000 C 
ATOM     17  C   UNL     1       4.745   4.266  19.422  0.00  0.00    +0.000 C 
ATOM     18  C   UNL     1       5.578   3.568  18.317  0.00  0.00    +0.000 C 
ATOM     19  C   UNL     1       5.565   4.524  17.105  0.00  0.00    +0.000 C 
ENDROOT
BRANCH   9  20
ATOM     20  O   UNL     1      -1.113  10.778  19.704  0.00  0.00    +0.000 OA
ATOM     21  H   UNL     1      -1.203  11.517  19.079  0.00  0.00    +0.000 HD
ENDBRANCH   9  20
BRANCH  19  22
ATOM     22  C   UNL     1       6.787   4.680  16.212  0.00  0.00    +0.000 C 
ATOM     23  O   UNL     1       7.835   4.100  16.510  0.00  0.00    +0.000 OA
BRANCH  22  24
ATOM     24  C   UNL     1       6.727   5.495  14.954  0.00  0.00    +0.000 C 
BRANCH  24  25
ATOM     25  N   UNL     1       6.613   4.645  13.796  0.00  0.00    +0.000 N 
ATOM     26  C   UNL     1       5.686   3.682  13.535  0.00  0.00    +0.000 A 
ATOM     27  C   UNL     1       6.042   3.217  12.294  0.00  0.00    +0.000 A 
ATOM     28  N   UNL     1       7.142   3.902  11.850  0.00  0.00    +0.000 NA
ATOM     29  N   UNL     1       7.482   4.782  12.779  0.00  0.00    +0.000 NA
ENDBRANCH  24  25
ENDBRANCH  22  24
ENDBRANCH  19  22
TORSDOF 4
ENDMDL
MODEL 8
REMARK VINA RESULT:      -6.9      3.230      4.633
REMARK  Name = 
REMARK  6 active torsions:
REMARK  status: ('A' for Active; 'I' for Inactive)
REMARK    1  A    between atoms: C_1  and  C_2
REMARK    2  A    between atoms: C_9  and  C_10
REMARK    3  A    between atoms: C_9  and  O_11
REMARK    4  A    between atoms: C_20  and  C_21
REMARK    5  A    between atoms: C_21  and  C_23
REMARK    6  A    between atoms: C_23  and  N_24
REMARK                            x       y       z     vdW  Elec       q    Type
REMARK                         _______ _______ _______ _____ _____    ______ ____
ROOT
ATOM      1  C   UNL     1       1.515  11.139  21.827  0.00  0.00    +0.000 C 
ATOM      2  C   UNL     1       0.249  10.720  21.030  0.00  0.00    +0.000 C 
ATOM      3  C   UNL     1      -0.301   9.413  21.593  0.00  0.00    +0.000 C 
ATOM      4  C   UNL     1       0.670   8.265  21.356  0.00  0.00    +0.000 C 
ATOM      5  C   UNL     1       1.056   8.098  19.875  0.00  0.00    +0.000 C 
ATOM      6  C   UNL     1       2.176   7.053  19.699  0.00  0.00    +0.000 C 
ATOM      7  C   UNL     1       1.894   5.720  20.408  0.00  0.00    +0.000 C 
ATOM      8  C   UNL     1       3.140   4.847  20.403  0.00  0.00    +0.000 C 
ATOM      9  C   UNL     1       3.764   4.651  19.013  0.00  0.00    +0.000 C 
ATOM     10  C   UNL     1       5.222   4.212  19.199  0.00  0.00    +0.000 C 
ATOM     11  C   UNL     1       3.717   5.889  18.092  0.00  0.00    +0.000 C 
ATOM     12  C   UNL     1       2.447   6.758  18.213  0.00  0.00    +0.000 C 
ATOM     13  C   UNL     1       2.595   8.036  17.360  0.00  0.00    +0.000 C 
ATOM     14  C   UNL     1       1.577   9.140  17.670  0.00  0.00    +0.000 C 
ATOM     15  C   UNL     1       1.493   9.426  19.180  0.00  0.00    +0.000 C 
ATOM     16  C   UNL     1       0.499  10.548  19.513  0.00  0.00    +0.000 C 
ATOM     17  C   UNL     1       0.764  11.994  19.084  0.00  0.00    +0.000 C 
ATOM     18  C   UNL     1      -0.317  12.786  19.863  0.00  0.00    +0.000 C 
ATOM     19  C   UNL     1      -0.808  11.846  20.985  0.00  0.00    +0.000 C 
ENDROOT
BRANCH   9  20
ATOM     20  O   UNL     1       3.085   3.574  18.361  0.00  0.00    +0.000 OA
ATOM     21  H   UNL     1       2.242   3.911  18.013  0.00  0.00    +0.000 HD
ENDBRANCH   9  20
BRANCH  19  22
ATOM     22  C   UNL     1      -1.175  12.386  22.359  0.00  0.00    +0.000 C 
ATOM     23  O   UNL     1      -0.747  13.488  22.713  0.00  0.00    +0.000 OA
BRANCH  22  24
ATOM     24  C   UNL     1      -2.082  11.618  23.275  0.00  0.00    +0.000 C 
BRANCH  24  25
ATOM     25  N   UNL     1      -3.419  12.155  23.242  0.00  0.00    +0.000 N 
ATOM     26  C   UNL     1      -4.069  12.757  22.208  0.00  0.00    +0.000 A 
ATOM     27  C   UNL     1      -5.308  13.042  22.725  0.00  0.00    +0.000 A 
ATOM     28  N   UNL     1      -5.370  12.608  24.023  0.00  0.00    +0.000 NA
ATOM     29  N   UNL     1      -4.206  12.058  24.329  0.00  0.00    +0.000 NA
ENDBRANCH  24  25
ENDBRANCH  22  24
ENDBRANCH  19  22
TORSDOF 4
ENDMDL
MODEL 9
REMARK VINA RESULT:      -6.9      4.535      8.597
REMARK  Name = 
REMARK  6 active torsions:
REMARK  status: ('A' for Active; 'I' for Inactive)
REMARK    1  A    between atoms: C_1  and  C_2
REMARK    2  A    between atoms: C_9  and  C_10
REMARK    3  A    between atoms: C_9  and  O_11
REMARK    4  A    between atoms: C_20  and  C_21
REMARK    5  A    between atoms: C_21  and  C_23
REMARK    6  A    between atoms: C_23  and  N_24
REMARK                            x       y       z     vdW  Elec       q    Type
REMARK                         _______ _______ _______ _____ _____    ______ ____
ROOT
ATOM      1  C   UNL     1       1.816   4.970  17.784  0.00  0.00    +0.000 C 
ATOM      2  C   UNL     1       3.082   5.519  18.498  0.00  0.00    +0.000 C 
ATOM      3  C   UNL     1       2.802   5.672  19.990  0.00  0.00    +0.000 C 
ATOM      4  C   UNL     1       1.751   6.744  20.243  0.00  0.00    +0.000 C 
ATOM      5  C   UNL     1       2.116   8.103  19.618  0.00  0.00    +0.000 C 
ATOM      6  C   UNL     1       0.951   9.107  19.734  0.00  0.00    +0.000 C 
ATOM      7  C   UNL     1       0.376   9.225  21.153  0.00  0.00    +0.000 C 
ATOM      8  C   UNL     1      -0.915  10.029  21.132  0.00  0.00    +0.000 C 
ATOM      9  C   UNL     1      -0.796  11.391  20.434  0.00  0.00    +0.000 C 
ATOM     10  C   UNL     1      -2.205  11.853  20.039  0.00  0.00    +0.000 C 
ATOM     11  C   UNL     1       0.116  11.412  19.188  0.00  0.00    +0.000 C 
ATOM     12  C   UNL     1       1.368  10.513  19.266  0.00  0.00    +0.000 C 
ATOM     13  C   UNL     1       2.102  10.507  17.909  0.00  0.00    +0.000 C 
ATOM     14  C   UNL     1       3.139   9.390  17.743  0.00  0.00    +0.000 C 
ATOM     15  C   UNL     1       2.559   8.015  18.124  0.00  0.00    +0.000 C 
ATOM     16  C   UNL     1       3.571   6.876  17.939  0.00  0.00    +0.000 C 
ATOM     17  C   UNL     1       4.060   6.470  16.545  0.00  0.00    +0.000 C 
ATOM     18  C   UNL     1       4.810   5.142  16.820  0.00  0.00    +0.000 C 
ATOM     19  C   UNL     1       4.332   4.661  18.207  0.00  0.00    +0.000 C 
ENDROOT
BRANCH   9  20
ATOM     20  O   UNL     1      -0.295  12.340  21.379  0.00  0.00    +0.000 OA
ATOM     21  H   UNL     1      -1.053  12.791  21.789  0.00  0.00    +0.000 HD
ENDBRANCH   9  20
BRANCH  19  22
ATOM     22  C   UNL     1       4.132   3.182  18.501  0.00  0.00    +0.000 C 
ATOM     23  O   UNL     1       3.868   2.408  17.575  0.00  0.00    +0.000 OA
BRANCH  22  24
ATOM     24  C   UNL     1       4.289   2.641  19.891  0.00  0.00    +0.000 C 
BRANCH  24  25
ATOM     25  N   UNL     1       3.018   2.590  20.569  0.00  0.00    +0.000 N 
ATOM     26  C   UNL     1       1.781   2.374  20.043  0.00  0.00    +0.000 A 
ATOM     27  C   UNL     1       0.953   2.406  21.137  0.00  0.00    +0.000 A 
ATOM     28  N   UNL     1       1.698   2.626  22.265  0.00  0.00    +0.000 NA
ATOM     29  N   UNL     1       2.968   2.731  21.906  0.00  0.00    +0.000 NA
ENDBRANCH  24  25
ENDBRANCH  22  24
ENDBRANCH  19  22
TORSDOF 4
ENDMDL
