MODEL 1
REMARK VINA RESULT:      -8.8      0.000      0.000
REMARK  Name = 
REMARK  3 active torsions:
REMARK  status: ('A' for Active; 'I' for Inactive)
REMARK    1  A    between atoms: N_7  and  C_8
REMARK    2  A    between atoms: C_12  and  C_13
REMARK    3  A    between atoms: C_20  and  N_21
REMARK                            x       y       z     vdW  Elec       q    Type
REMARK                         _______ _______ _______ _____ _____    ______ ____
ROOT
ATOM      1  C   UNL     1       1.446   7.941  20.007  0.00  0.00    +0.000 A 
ATOM      2  N   UNL     1       1.537   8.875  19.087  0.00  0.00    +0.000 NA
ATOM      3  N   UNL     1       0.769   9.968  19.385  0.00  0.00    +0.000 NA
ATOM      4  C   UNL     1       0.167   9.884  20.558  0.00  0.00    +0.000 A 
ATOM      5  N   UNL     1      -0.588  10.887  21.079  0.00  0.00    +0.000 N 
ATOM      6  C   UNL     1      -1.379  11.665  20.132  0.00  0.00    +0.000 C 
ATOM      7  C   UNL     1      -1.421  13.116  20.566  0.00  0.00    +0.000 C 
ATOM      8  C   UNL     1      -1.887  13.313  22.021  0.00  0.00    +0.000 C 
ATOM      9  C   UNL     1      -1.052  12.403  22.947  0.00  0.00    +0.000 C 
ATOM     10  C   UNL     1      -0.926  10.950  22.493  0.00  0.00    +0.000 C 
ATOM     11  S   UNL     1       0.434   8.364  21.328  0.00  0.00    +0.000 S 
ENDROOT
BRANCH   1  16
ATOM     12  C   UNL     1       4.021   5.295  19.134  0.00  0.00    +0.000 A 
ATOM     13  C   UNL     1       3.523   4.239  19.911  0.00  0.00    +0.000 A 
ATOM     14  C   UNL     1       2.402   4.403  20.723  0.00  0.00    +0.000 A 
ATOM     15  C   UNL     1       1.738   5.624  20.760  0.00  0.00    +0.000 A 
ATOM     16  C   UNL     1       2.211   6.698  20.003  0.00  0.00    +0.000 A 
ATOM     17  C   UNL     1       3.372   6.537  19.233  0.00  0.00    +0.000 A 
BRANCH  12  24
ATOM     18  O   UNL     1       6.896   5.221  19.768  0.00  0.00    +0.000 OA
ATOM     19  C   UNL     1       6.452   5.082  18.630  0.00  0.00    +0.000 A 
ATOM     20  C   UNL     1       7.438   4.757  17.573  0.00  0.00    +0.000 A 
ATOM     21  C   UNL     1       7.071   4.561  16.310  0.00  0.00    +0.000 A 
ATOM     22  C   UNL     1       5.642   4.694  16.029  0.00  0.00    +0.000 A 
ATOM     23  N   UNL     1       4.720   4.934  16.901  0.00  0.00    +0.000 NA
ATOM     24  N   UNL     1       5.113   5.134  18.217  0.00  0.00    +0.000 N 
ENDBRANCH  12  24
ENDBRANCH   1  16
BRANCH   8  25
ATOM     25  N   UNL     1      -3.348  13.287  22.292  0.00  0.00    +0.000 NA
ATOM     26  C   UNL     1      -3.636  13.150  23.729  0.00  0.00    +0.000 C 
ATOM     27  C   UNL     1      -5.129  12.980  24.017  0.00  0.00    +0.000 C 
ATOM     28  C   UNL     1      -5.942  14.109  23.399  0.00  0.00    +0.000 C 
ATOM     29  C   UNL     1      -5.644  14.189  21.916  0.00  0.00    +0.000 C 
ATOM     30  C   UNL     1      -4.142  14.349  21.679  0.00  0.00    +0.000 C 
ENDBRANCH   8  25
TORSDOF 3
ENDMDL
MODEL 2
REMARK VINA RESULT:      -8.6      1.505      1.830
REMARK  Name = 
REMARK  3 active torsions:
REMARK  status: ('A' for Active; 'I' for Inactive)
REMARK    1  A    between atoms: N_7  and  C_8
REMARK    2  A    between atoms: C_12  and  C_13
REMARK    3  A    between atoms: C_20  and  N_21
REMARK                            x       y       z     vdW  Elec       q    Type
REMARK                         _______ _______ _______ _____ _____    ______ ____
ROOT
ATOM      1  C   UNL     1       2.262   7.765  18.729  0.00  0.00    +0.000 A 
ATOM      2  N   UNL     1       1.946   8.579  17.746  0.00  0.00    +0.000 NA
ATOM      3  N   UNL     1       1.090   9.567  18.151  0.00  0.00    +0.000 NA
ATOM      4  C   UNL     1       0.827   9.537  19.447  0.00  0.00    +0.000 A 
ATOM      5  N   UNL     1       0.055  10.467  20.068  0.00  0.00    +0.000 N 
ATOM      6  C   UNL     1      -1.076  10.987  19.310  0.00  0.00    +0.000 C 
ATOM      7  C   UNL     1      -1.275  12.456  19.622  0.00  0.00    +0.000 C 
ATOM      8  C   UNL     1      -1.390  12.759  21.127  0.00  0.00    +0.000 C 
ATOM      9  C   UNL     1      -0.196  12.115  21.865  0.00  0.00    +0.000 C 
ATOM     10  C   UNL     1       0.077  10.653  21.511  0.00  0.00    +0.000 C 
ATOM     11  S   UNL     1       1.554   8.187  20.235  0.00  0.00    +0.000 S 
ENDROOT
BRANCH   1  16
ATOM     12  C   UNL     1       4.837   5.352  17.338  0.00  0.00    +0.000 A 
ATOM     13  C   UNL     1       4.892   4.447  18.408  0.00  0.00    +0.000 A 
ATOM     14  C   UNL     1       4.137   4.644  19.562  0.00  0.00    +0.000 A 
ATOM     15  C   UNL     1       3.291   5.743  19.665  0.00  0.00    +0.000 A 
ATOM     16  C   UNL     1       3.217   6.667  18.620  0.00  0.00    +0.000 A 
ATOM     17  C   UNL     1       4.024   6.486  17.486  0.00  0.00    +0.000 A 
BRANCH  12  24
ATOM     18  O   UNL     1       7.490   6.366  16.558  0.00  0.00    +0.000 OA
ATOM     19  C   UNL     1       6.809   5.637  15.840  0.00  0.00    +0.000 A 
ATOM     20  C   UNL     1       7.436   5.184  14.577  0.00  0.00    +0.000 A 
ATOM     21  C   UNL     1       6.804   4.373  13.733  0.00  0.00    +0.000 A 
ATOM     22  C   UNL     1       5.455   3.967  14.124  0.00  0.00    +0.000 A 
ATOM     23  N   UNL     1       4.858   4.285  15.224  0.00  0.00    +0.000 NA
ATOM     24  N   UNL     1       5.528   5.130  16.100  0.00  0.00    +0.000 N 
ENDBRANCH  12  24
ENDBRANCH   1  16
BRANCH   8  25
ATOM     25  N   UNL     1      -2.705  12.539  21.782  0.00  0.00    +0.000 NA
ATOM     26  C   UNL     1      -2.673  12.895  23.210  0.00  0.00    +0.000 C 
ATOM     27  C   UNL     1      -3.973  12.544  23.935  0.00  0.00    +0.000 C 
ATOM     28  C   UNL     1      -5.177  13.168  23.241  0.00  0.00    +0.000 C 
ATOM     29  C   UNL     1      -5.192  12.746  21.786  0.00  0.00    +0.000 C 
ATOM     30  C   UNL     1      -3.869  13.108  21.108  0.00  0.00    +0.000 C 
ENDBRANCH   8  25
TORSDOF 3
ENDMDL
MODEL 3
REMARK VINA RESULT:      -8.5      0.503      1.032
REMARK  Name = 
REMARK  3 active torsions:
REMARK  status: ('A' for Active; 'I' for Inactive)
REMARK    1  A    between atoms: N_7  and  C_8
REMARK    2  A    between atoms: C_12  and  C_13
REMARK    3  A    between atoms: C_20  and  N_21
REMARK                            x       y       z     vdW  Elec       q    Type
REMARK                         _______ _______ _______ _____ _____    ______ ____
ROOT
ATOM      1  C   UNL     1       1.485   8.094  19.885  0.00  0.00    +0.000 A 
ATOM      2  N   UNL     1       1.585   8.982  18.921  0.00  0.00    +0.000 NA
ATOM      3  N   UNL     1       0.859  10.111  19.184  0.00  0.00    +0.000 NA
ATOM      4  C   UNL     1       0.282  10.101  20.373  0.00  0.00    +0.000 A 
ATOM      5  N   UNL     1      -0.429  11.152  20.862  0.00  0.00    +0.000 N 
ATOM      6  C   UNL     1      -1.215  11.911  19.897  0.00  0.00    +0.000 C 
ATOM      7  C   UNL     1      -1.201  13.381  20.265  0.00  0.00    +0.000 C 
ATOM      8  C   UNL     1      -1.627  13.659  21.718  0.00  0.00    +0.000 C 
ATOM      9  C   UNL     1      -0.801  12.766  22.668  0.00  0.00    +0.000 C 
ATOM     10  C   UNL     1      -0.732  11.290  22.279  0.00  0.00    +0.000 C 
ATOM     11  S   UNL     1       0.517   8.610  21.206  0.00  0.00    +0.000 S 
ENDROOT
BRANCH   1  16
ATOM     12  C   UNL     1       3.999   5.355  19.131  0.00  0.00    +0.000 A 
ATOM     13  C   UNL     1       3.443   4.327  19.906  0.00  0.00    +0.000 A 
ATOM     14  C   UNL     1       2.304   4.538  20.679  0.00  0.00    +0.000 A 
ATOM     15  C   UNL     1       1.679   5.780  20.679  0.00  0.00    +0.000 A 
ATOM     16  C   UNL     1       2.210   6.827  19.923  0.00  0.00    +0.000 A 
ATOM     17  C   UNL     1       3.388   6.618  19.192  0.00  0.00    +0.000 A 
BRANCH  12  24
ATOM     18  O   UNL     1       6.857   5.316  19.839  0.00  0.00    +0.000 OA
ATOM     19  C   UNL     1       6.442   5.117  18.699  0.00  0.00    +0.000 A 
ATOM     20  C   UNL     1       7.453   4.736  17.687  0.00  0.00    +0.000 A 
ATOM     21  C   UNL     1       7.118   4.473  16.427  0.00  0.00    +0.000 A 
ATOM     22  C   UNL     1       5.697   4.590  16.104  0.00  0.00    +0.000 A 
ATOM     23  N   UNL     1       4.753   4.876  16.938  0.00  0.00    +0.000 NA
ATOM     24  N   UNL     1       5.114   5.146  18.251  0.00  0.00    +0.000 N 
ENDBRANCH  12  24
ENDBRANCH   1  16
BRANCH   8  25
ATOM     25  N   UNL     1      -3.081  13.695  22.021  0.00  0.00    +0.000 NA
ATOM     26  C   UNL     1      -3.898  13.501  20.811  0.00  0.00    +0.000 C 
ATOM     27  C   UNL     1      -5.394  13.676  21.076  0.00  0.00    +0.000 C 
ATOM     28  C   UNL     1      -5.864  12.770  22.206  0.00  0.00    +0.000 C 
ATOM     29  C   UNL     1      -5.023  13.030  23.440  0.00  0.00    +0.000 C 
ATOM     30  C   UNL     1      -3.537  12.853  23.123  0.00  0.00    +0.000 C 
ENDBRANCH   8  25
TORSDOF 3
ENDMDL
MODEL 4
REMARK VINA RESULT:      -8.4      1.002      1.274
REMARK  Name = 
REMARK  3 active torsions:
REMARK  status: ('A' for Active; 'I' for Inactive)
REMARK    1  A    between atoms: N_7  and  C_8
REMARK    2  A    between atoms: C_12  and  C_13
REMARK    3  A    between atoms: C_20  and  N_21
REMARK                            x       y       z     vdW  Elec       q    Type
REMARK                         _______ _______ _______ _____ _____    ______ ____
ROOT
ATOM      1  C   UNL     1       1.600   7.642  19.996  0.00  0.00    +0.000 A 
ATOM      2  N   UNL     1       1.780   8.568  19.081  0.00  0.00    +0.000 NA
ATOM      3  N   UNL     1       1.043   9.693  19.334  0.00  0.00    +0.000 NA
ATOM      4  C   UNL     1       0.375   9.638  20.474  0.00  0.00    +0.000 A 
ATOM      5  N   UNL     1      -0.364  10.675  20.950  0.00  0.00    +0.000 N 
ATOM      6  C   UNL     1      -1.069  11.481  19.960  0.00  0.00    +0.000 C 
ATOM      7  C   UNL     1      -1.074  12.934  20.389  0.00  0.00    +0.000 C 
ATOM      8  C   UNL     1      -1.610  13.156  21.815  0.00  0.00    +0.000 C 
ATOM      9  C   UNL     1      -0.865  12.216  22.788  0.00  0.00    +0.000 C 
ATOM     10  C   UNL     1      -0.776  10.757  22.343  0.00  0.00    +0.000 C 
ATOM     11  S   UNL     1       0.536   8.112  21.259  0.00  0.00    +0.000 S 
ENDROOT
BRANCH   1  16
ATOM     12  C   UNL     1       4.097   4.883  19.261  0.00  0.00    +0.000 A 
ATOM     13  C   UNL     1       3.521   3.856  20.022  0.00  0.00    +0.000 A 
ATOM     14  C   UNL     1       2.373   4.073  20.781  0.00  0.00    +0.000 A 
ATOM     15  C   UNL     1       1.760   5.321  20.780  0.00  0.00    +0.000 A 
ATOM     16  C   UNL     1       2.312   6.368  20.037  0.00  0.00    +0.000 A 
ATOM     17  C   UNL     1       3.498   6.151  19.321  0.00  0.00    +0.000 A 
BRANCH  12  24
ATOM     18  O   UNL     1       4.059   3.921  16.478  0.00  0.00    +0.000 OA
ATOM     19  C   UNL     1       5.090   4.233  17.070  0.00  0.00    +0.000 A 
ATOM     20  C   UNL     1       6.339   4.212  16.273  0.00  0.00    +0.000 A 
ATOM     21  C   UNL     1       7.511   4.553  16.800  0.00  0.00    +0.000 A 
ATOM     22  C   UNL     1       7.492   4.940  18.210  0.00  0.00    +0.000 A 
ATOM     23  N   UNL     1       6.442   5.023  18.957  0.00  0.00    +0.000 NA
ATOM     24  N   UNL     1       5.222   4.668  18.396  0.00  0.00    +0.000 N 
ENDBRANCH  12  24
ENDBRANCH   1  16
BRANCH   8  25
ATOM     25  N   UNL     1      -3.083  13.193  22.006  0.00  0.00    +0.000 NA
ATOM     26  C   UNL     1      -3.450  13.242  23.432  0.00  0.00    +0.000 C 
ATOM     27  C   UNL     1      -4.959  13.137  23.656  0.00  0.00    +0.000 C 
ATOM     28  C   UNL     1      -5.710  14.196  22.859  0.00  0.00    +0.000 C 
ATOM     29  C   UNL     1      -5.332  14.085  21.396  0.00  0.00    +0.000 C 
ATOM     30  C   UNL     1      -3.816  14.185  21.224  0.00  0.00    +0.000 C 
ENDBRANCH   8  25
TORSDOF 3
ENDMDL
MODEL 5
REMARK VINA RESULT:      -8.3      1.119      1.644
REMARK  Name = 
REMARK  3 active torsions:
REMARK  status: ('A' for Active; 'I' for Inactive)
REMARK    1  A    between atoms: N_7  and  C_8
REMARK    2  A    between atoms: C_12  and  C_13
REMARK    3  A    between atoms: C_20  and  N_21
REMARK                            x       y       z     vdW  Elec       q    Type
REMARK                         _______ _______ _______ _____ _____    ______ ____
ROOT
ATOM      1  C   UNL     1       1.576   7.818  19.949  0.00  0.00    +0.000 A 
ATOM      2  N   UNL     1       1.785   8.718  19.014  0.00  0.00    +0.000 NA
ATOM      3  N   UNL     1       1.075   9.866  19.238  0.00  0.00    +0.000 NA
ATOM      4  C   UNL     1       0.399   9.854  20.374  0.00  0.00    +0.000 A 
ATOM      5  N   UNL     1      -0.317  10.919  20.823  0.00  0.00    +0.000 N 
ATOM      6  C   UNL     1      -0.995  11.721  19.811  0.00  0.00    +0.000 C 
ATOM      7  C   UNL     1      -0.966  13.183  20.207  0.00  0.00    +0.000 C 
ATOM      8  C   UNL     1      -1.505  13.450  21.624  0.00  0.00    +0.000 C 
ATOM      9  C   UNL     1      -0.789  12.514  22.622  0.00  0.00    +0.000 C 
ATOM     10  C   UNL     1      -0.734  11.043  22.211  0.00  0.00    +0.000 C 
ATOM     11  S   UNL     1       0.517   8.342  21.195  0.00  0.00    +0.000 S 
ENDROOT
BRANCH   1  16
ATOM     12  C   UNL     1       4.026   4.992  19.315  0.00  0.00    +0.000 A 
ATOM     13  C   UNL     1       3.402   3.987  20.067  0.00  0.00    +0.000 A 
ATOM     14  C   UNL     1       2.238   4.240  20.790  0.00  0.00    +0.000 A 
ATOM     15  C   UNL     1       1.656   5.502  20.758  0.00  0.00    +0.000 A 
ATOM     16  C   UNL     1       2.255   6.528  20.023  0.00  0.00    +0.000 A 
ATOM     17  C   UNL     1       3.456   6.275  19.345  0.00  0.00    +0.000 A 
BRANCH  12  24
ATOM     18  O   UNL     1       4.048   3.960  16.556  0.00  0.00    +0.000 OA
ATOM     19  C   UNL     1       5.068   4.275  17.167  0.00  0.00    +0.000 A 
ATOM     20  C   UNL     1       6.336   4.219  16.405  0.00  0.00    +0.000 A 
ATOM     21  C   UNL     1       7.499   4.559  16.954  0.00  0.00    +0.000 A 
ATOM     22  C   UNL     1       7.447   4.982  18.353  0.00  0.00    +0.000 A 
ATOM     23  N   UNL     1       6.379   5.096  19.069  0.00  0.00    +0.000 NA
ATOM     24  N   UNL     1       5.170   4.741  18.485  0.00  0.00    +0.000 N 
ENDBRANCH  12  24
ENDBRANCH   1  16
BRANCH   8  25
ATOM     25  N   UNL     1      -2.977  13.528  21.805  0.00  0.00    +0.000 NA
ATOM     26  C   UNL     1      -3.698  13.279  20.545  0.00  0.00    +0.000 C 
ATOM     27  C   UNL     1      -5.207  13.495  20.677  0.00  0.00    +0.000 C 
ATOM     28  C   UNL     1      -5.785  12.664  21.814  0.00  0.00    +0.000 C 
ATOM     29  C   UNL     1      -5.041  12.979  23.096  0.00  0.00    +0.000 C 
ATOM     30  C   UNL     1      -3.539  12.758  22.912  0.00  0.00    +0.000 C 
ENDBRANCH   8  25
TORSDOF 3
ENDMDL
MODEL 6
REMARK VINA RESULT:      -8.3      2.171      3.272
REMARK  Name = 
REMARK  3 active torsions:
REMARK  status: ('A' for Active; 'I' for Inactive)
REMARK    1  A    between atoms: N_7  and  C_8
REMARK    2  A    between atoms: C_12  and  C_13
REMARK    3  A    between atoms: C_20  and  N_21
REMARK                            x       y       z     vdW  Elec       q    Type
REMARK                         _______ _______ _______ _____ _____    ______ ____
ROOT
ATOM      1  C   UNL     1       1.512   7.448  20.443  0.00  0.00    +0.000 A 
ATOM      2  N   UNL     1       0.676   7.631  21.440  0.00  0.00    +0.000 NA
ATOM      3  N   UNL     1       0.161   8.899  21.454  0.00  0.00    +0.000 NA
ATOM      4  C   UNL     1       0.551   9.637  20.429  0.00  0.00    +0.000 A 
ATOM      5  N   UNL     1       0.104  10.902  20.213  0.00  0.00    +0.000 N 
ATOM      6  C   UNL     1      -0.129  11.721  21.397  0.00  0.00    +0.000 C 
ATOM      7  C   UNL     1      -1.335  12.612  21.178  0.00  0.00    +0.000 C 
ATOM      8  C   UNL     1      -1.256  13.452  19.889  0.00  0.00    +0.000 C 
ATOM      9  C   UNL     1      -0.935  12.524  18.699  0.00  0.00    +0.000 C 
ATOM     10  C   UNL     1       0.228  11.558  18.920  0.00  0.00    +0.000 C 
ATOM     11  S   UNL     1       1.692   8.820  19.426  0.00  0.00    +0.000 S 
ENDROOT
BRANCH   1  16
ATOM     12  C   UNL     1       3.879   4.876  18.970  0.00  0.00    +0.000 A 
ATOM     13  C   UNL     1       3.231   3.709  19.400  0.00  0.00    +0.000 A 
ATOM     14  C   UNL     1       2.078   3.766  20.180  0.00  0.00    +0.000 A 
ATOM     15  C   UNL     1       1.531   4.995  20.530  0.00  0.00    +0.000 A 
ATOM     16  C   UNL     1       2.155   6.177  20.123  0.00  0.00    +0.000 A 
ATOM     17  C   UNL     1       3.345   6.106  19.385  0.00  0.00    +0.000 A 
BRANCH  12  24
ATOM     18  O   UNL     1       6.721   5.130  19.698  0.00  0.00    +0.000 OA
ATOM     19  C   UNL     1       6.333   4.953  18.545  0.00  0.00    +0.000 A 
ATOM     20  C   UNL     1       7.384   4.756  17.520  0.00  0.00    +0.000 A 
ATOM     21  C   UNL     1       7.083   4.532  16.243  0.00  0.00    +0.000 A 
ATOM     22  C   UNL     1       5.659   4.501  15.916  0.00  0.00    +0.000 A 
ATOM     23  N   UNL     1       4.687   4.622  16.758  0.00  0.00    +0.000 NA
ATOM     24  N   UNL     1       5.011   4.853  18.089  0.00  0.00    +0.000 N 
ENDBRANCH  12  24
ENDBRANCH   1  16
BRANCH   8  25
ATOM     25  N   UNL     1      -0.456  14.704  19.924  0.00  0.00    +0.000 NA
ATOM     26  C   UNL     1      -0.042  15.127  18.575  0.00  0.00    +0.000 C 
ATOM     27  C   UNL     1       0.901  16.331  18.599  0.00  0.00    +0.000 C 
ATOM     28  C   UNL     1       0.293  17.491  19.376  0.00  0.00    +0.000 C 
ATOM     29  C   UNL     1      -0.082  17.022  20.767  0.00  0.00    +0.000 C 
ATOM     30  C   UNL     1      -1.015  15.813  20.691  0.00  0.00    +0.000 C 
ENDBRANCH   8  25
TORSDOF 3
ENDMDL
MODEL 7
REMARK VINA RESULT:      -8.2      3.407     11.012
REMARK  Name = 
REMARK  3 active torsions:
REMARK  status: ('A' for Active; 'I' for Inactive)
REMARK    1  A    between atoms: N_7  and  C_8
REMARK    2  A    between atoms: C_12  and  C_13
REMARK    3  A    between atoms: C_20  and  N_21
REMARK                            x       y       z     vdW  Elec       q    Type
REMARK                         _______ _______ _______ _____ _____    ______ ____
ROOT
ATOM      1  C   UNL     1       1.842   7.729  19.683  0.00  0.00    +0.000 A 
ATOM      2  N   UNL     1       2.001   6.483  20.072  0.00  0.00    +0.000 NA
ATOM      3  N   UNL     1       2.869   5.799  19.266  0.00  0.00    +0.000 NA
ATOM      4  C   UNL     1       3.416   6.549  18.325  0.00  0.00    +0.000 A 
ATOM      5  N   UNL     1       4.357   6.085  17.460  0.00  0.00    +0.000 N 
ATOM      6  C   UNL     1       4.211   4.703  17.019  0.00  0.00    +0.000 C 
ATOM      7  C   UNL     1       5.576   4.064  16.864  0.00  0.00    +0.000 C 
ATOM      8  C   UNL     1       6.537   4.868  15.969  0.00  0.00    +0.000 C 
ATOM      9  C   UNL     1       6.580   6.331  16.458  0.00  0.00    +0.000 C 
ATOM     10  C   UNL     1       5.216   6.979  16.698  0.00  0.00    +0.000 C 
ATOM     11  S   UNL     1       2.788   8.155  18.315  0.00  0.00    +0.000 S 
ENDROOT
BRANCH   1  16
ATOM     12  C   UNL     1       0.286  11.028  20.723  0.00  0.00    +0.000 A 
ATOM     13  C   UNL     1      -0.364  10.606  21.892  0.00  0.00    +0.000 A 
ATOM     14  C   UNL     1      -0.324   9.276  22.303  0.00  0.00    +0.000 A 
ATOM     15  C   UNL     1       0.387   8.337  21.564  0.00  0.00    +0.000 A 
ATOM     16  C   UNL     1       1.042   8.722  20.392  0.00  0.00    +0.000 A 
ATOM     17  C   UNL     1       0.948  10.054  19.959  0.00  0.00    +0.000 A 
BRANCH  12  24
ATOM     18  O   UNL     1       2.400  12.985  21.338  0.00  0.00    +0.000 OA
ATOM     19  C   UNL     1       1.418  13.247  20.646  0.00  0.00    +0.000 A 
ATOM     20  C   UNL     1       1.390  14.591  20.025  0.00  0.00    +0.000 A 
ATOM     21  C   UNL     1       0.390  14.978  19.238  0.00  0.00    +0.000 A 
ATOM     22  C   UNL     1      -0.679  14.002  19.033  0.00  0.00    +0.000 A 
ATOM     23  N   UNL     1      -0.706  12.800  19.505  0.00  0.00    +0.000 NA
ATOM     24  N   UNL     1       0.344  12.405  20.323  0.00  0.00    +0.000 N 
ENDBRANCH  12  24
ENDBRANCH   1  16
BRANCH   8  25
ATOM     25  N   UNL     1       6.405   4.717  14.497  0.00  0.00    +0.000 NA
ATOM     26  C   UNL     1       7.652   5.070  13.796  0.00  0.00    +0.000 C 
ATOM     27  C   UNL     1       7.496   5.059  12.275  0.00  0.00    +0.000 C 
ATOM     28  C   UNL     1       6.950   3.724  11.786  0.00  0.00    +0.000 C 
ATOM     29  C   UNL     1       5.651   3.419  12.504  0.00  0.00    +0.000 C 
ATOM     30  C   UNL     1       5.855   3.452  14.019  0.00  0.00    +0.000 C 
ENDBRANCH   8  25
TORSDOF 3
ENDMDL
MODEL 8
REMARK VINA RESULT:      -8.1      3.587     11.113
REMARK  Name = 
REMARK  3 active torsions:
REMARK  status: ('A' for Active; 'I' for Inactive)
REMARK    1  A    between atoms: N_7  and  C_8
REMARK    2  A    between atoms: C_12  and  C_13
REMARK    3  A    between atoms: C_20  and  N_21
REMARK                            x       y       z     vdW  Elec       q    Type
REMARK                         _______ _______ _______ _____ _____    ______ ____
ROOT
ATOM      1  C   UNL     1       1.831   7.697  19.731  0.00  0.00    +0.000 A 
ATOM      2  N   UNL     1       1.987   6.447  20.109  0.00  0.00    +0.000 NA
ATOM      3  N   UNL     1       2.858   5.770  19.300  0.00  0.00    +0.000 NA
ATOM      4  C   UNL     1       3.411   6.528  18.369  0.00  0.00    +0.000 A 
ATOM      5  N   UNL     1       4.355   6.072  17.505  0.00  0.00    +0.000 N 
ATOM      6  C   UNL     1       4.210   4.695  17.049  0.00  0.00    +0.000 C 
ATOM      7  C   UNL     1       5.575   4.056  16.895  0.00  0.00    +0.000 C 
ATOM      8  C   UNL     1       6.541   4.867  16.012  0.00  0.00    +0.000 C 
ATOM      9  C   UNL     1       6.583   6.326  16.515  0.00  0.00    +0.000 C 
ATOM     10  C   UNL     1       5.219   6.972  16.755  0.00  0.00    +0.000 C 
ATOM     11  S   UNL     1       2.784   8.135  18.371  0.00  0.00    +0.000 S 
ENDROOT
BRANCH   1  16
ATOM     12  C   UNL     1       0.317  10.995  20.834  0.00  0.00    +0.000 A 
ATOM     13  C   UNL     1      -0.388  10.548  21.960  0.00  0.00    +0.000 A 
ATOM     14  C   UNL     1      -0.397   9.203  22.323  0.00  0.00    +0.000 A 
ATOM     15  C   UNL     1       0.319   8.274  21.577  0.00  0.00    +0.000 A 
ATOM     16  C   UNL     1       1.028   8.684  20.445  0.00  0.00    +0.000 A 
ATOM     17  C   UNL     1       0.984  10.032  20.060  0.00  0.00    +0.000 A 
BRANCH  12  24
ATOM     18  O   UNL     1      -1.260  12.470  18.832  0.00  0.00    +0.000 OA
ATOM     19  C   UNL     1      -0.401  12.998  19.536  0.00  0.00    +0.000 A 
ATOM     20  C   UNL     1      -0.260  14.467  19.414  0.00  0.00    +0.000 A 
ATOM     21  C   UNL     1       0.620  15.149  20.142  0.00  0.00    +0.000 A 
ATOM     22  C   UNL     1       1.440  14.360  21.060  0.00  0.00    +0.000 A 
ATOM     23  N   UNL     1       1.348  13.086  21.252  0.00  0.00    +0.000 NA
ATOM     24  N   UNL     1       0.425  12.384  20.488  0.00  0.00    +0.000 N 
ENDBRANCH  12  24
ENDBRANCH   1  16
BRANCH   8  25
ATOM     25  N   UNL     1       6.416   4.731  14.538  0.00  0.00    +0.000 NA
ATOM     26  C   UNL     1       7.649   5.138  13.843  0.00  0.00    +0.000 C 
ATOM     27  C   UNL     1       7.495   5.141  12.321  0.00  0.00    +0.000 C 
ATOM     28  C   UNL     1       6.999   3.793  11.815  0.00  0.00    +0.000 C 
ATOM     29  C   UNL     1       5.711   3.432  12.527  0.00  0.00    +0.000 C 
ATOM     30  C   UNL     1       5.913   3.452  14.043  0.00  0.00    +0.000 C 
ENDBRANCH   8  25
TORSDOF 3
ENDMDL
MODEL 9
REMARK VINA RESULT:      -8.1      2.032      2.922
REMARK  Name = 
REMARK  3 active torsions:
REMARK  status: ('A' for Active; 'I' for Inactive)
REMARK    1  A    between atoms: N_7  and  C_8
REMARK    2  A    between atoms: C_12  and  C_13
REMARK    3  A    between atoms: C_20  and  N_21
REMARK                            x       y       z     vdW  Elec       q    Type
REMARK                         _______ _______ _______ _____ _____    ______ ____
ROOT
ATOM      1  C   UNL     1       1.730   8.840  18.477  0.00  0.00    +0.000 A 
ATOM      2  N   UNL     1       1.511   9.942  17.795  0.00  0.00    +0.000 NA
ATOM      3  N   UNL     1       0.658  10.790  18.448  0.00  0.00    +0.000 NA
ATOM      4  C   UNL     1       0.303  10.360  19.646  0.00  0.00    +0.000 A 
ATOM      5  N   UNL     1      -0.482  11.081  20.490  0.00  0.00    +0.000 N 
ATOM      6  C   UNL     1      -1.540  11.875  19.877  0.00  0.00    +0.000 C 
ATOM      7  C   UNL     1      -1.715  13.174  20.636  0.00  0.00    +0.000 C 
ATOM      8  C   UNL     1      -1.928  12.983  22.149  0.00  0.00    +0.000 C 
ATOM      9  C   UNL     1      -0.811  12.075  22.706  0.00  0.00    +0.000 C 
ATOM     10  C   UNL     1      -0.558  10.792  21.914  0.00  0.00    +0.000 C 
ATOM     11  S   UNL     1       0.929   8.792  19.995  0.00  0.00    +0.000 S 
ENDROOT
BRANCH   1  16
ATOM     12  C   UNL     1       3.384   5.448  18.090  0.00  0.00    +0.000 A 
ATOM     13  C   UNL     1       4.553   5.848  17.428  0.00  0.00    +0.000 A 
ATOM     14  C   UNL     1       4.773   7.180  17.086  0.00  0.00    +0.000 A 
ATOM     15  C   UNL     1       3.835   8.151  17.419  0.00  0.00    +0.000 A 
ATOM     16  C   UNL     1       2.656   7.787  18.074  0.00  0.00    +0.000 A 
ATOM     17  C   UNL     1       2.422   6.434  18.364  0.00  0.00    +0.000 A 
BRANCH  12  24
ATOM     18  O   UNL     1       1.115   3.684  17.449  0.00  0.00    +0.000 OA
ATOM     19  C   UNL     1       2.064   3.335  18.149  0.00  0.00    +0.000 A 
ATOM     20  C   UNL     1       2.079   1.919  18.580  0.00  0.00    +0.000 A 
ATOM     21  C   UNL     1       3.066   1.422  19.320  0.00  0.00    +0.000 A 
ATOM     22  C   UNL     1       4.127   2.360  19.685  0.00  0.00    +0.000 A 
ATOM     23  N   UNL     1       4.205   3.595  19.314  0.00  0.00    +0.000 NA
ATOM     24  N   UNL     1       3.170   4.102  18.540  0.00  0.00    +0.000 N 
ENDBRANCH  12  24
ENDBRANCH   1  16
BRANCH   8  25
ATOM     25  N   UNL     1      -3.293  12.634  22.620  0.00  0.00    +0.000 NA
ATOM     26  C   UNL     1      -3.429  12.800  24.077  0.00  0.00    +0.000 C 
ATOM     27  C   UNL     1      -4.780  12.312  24.602  0.00  0.00    +0.000 C 
ATOM     28  C   UNL     1      -5.932  12.980  23.864  0.00  0.00    +0.000 C 
ATOM     29  C   UNL     1      -5.774  12.752  22.374  0.00  0.00    +0.000 C 
ATOM     30  C   UNL     1      -4.406  13.246  21.899  0.00  0.00    +0.000 C 
ENDBRANCH   8  25
TORSDOF 3
ENDMDL
