MODEL 1
REMARK VINA RESULT:      -8.0      0.000      0.000
REMARK  Name = 
REMARK  9 active torsions:
REMARK  status: ('A' for Active; 'I' for Inactive)
REMARK    1  A    between atoms: C_1  and  C_2
REMARK    2  A    between atoms: C_2  and  N_3
REMARK    3  A    between atoms: C_6  and  C_7
REMARK    4  A    between atoms: C_7  and  N_8
REMARK    5  A    between atoms: N_8  and  C_9
REMARK    6  A    between atoms: N_8  and  C_16
REMARK    7  A    between atoms: C_9  and  C_10
REMARK    8  A    between atoms: C_16  and  C_17
REMARK    9  A    between atoms: C_21  and  N_22
REMARK                            x       y       z     vdW  Elec       q    Type
REMARK                         _______ _______ _______ _____ _____    ______ ____
ROOT
ATOM      1  N   UNL     1       2.966   6.720  18.354  0.00  0.00    +0.000 NA
ENDROOT
BRANCH   1   2
ATOM      2  C   UNL     1       1.777   7.604  18.275  0.00  0.00    +0.000 C 
BRANCH   2   6
ATOM      3  N   UNL     1       0.281  10.352  21.137  0.00  0.00    +0.000 N 
ATOM      4  C   UNL     1       1.129   9.278  21.614  0.00  0.00    +0.000 C 
ATOM      5  C   UNL     1       1.166   8.147  20.624  0.00  0.00    +0.000 C 
ATOM      6  C   UNL     1       1.585   8.757  19.295  0.00  0.00    +0.000 C 
ATOM      7  O   UNL     1       0.559   9.681  18.887  0.00  0.00    +0.000 OA
ATOM      8  C   UNL     1      -0.013  10.544  19.795  0.00  0.00    +0.000 C 
ATOM      9  O   UNL     1      -0.773  11.430  19.404  0.00  0.00    +0.000 OA
BRANCH   3  11
ATOM     10  C   UNL     1      -1.039  10.496  23.220  0.00  0.00    +0.000 C 
ATOM     11  C   UNL     1      -0.271  11.252  22.146  0.00  0.00    +0.000 C 
ENDBRANCH   3  11
ENDBRANCH   2   6
ENDBRANCH   1   2
BRANCH   1  12
ATOM     12  C   UNL     1       2.670   5.336  17.913  0.00  0.00    +0.000 C 
BRANCH  12  13
ATOM     13  C   UNL     1       2.529   4.356  19.066  0.00  0.00    +0.000 A 
ATOM     14  C   UNL     1       1.418   4.423  19.920  0.00  0.00    +0.000 A 
ATOM     15  C   UNL     1       1.360   3.640  21.074  0.00  0.00    +0.000 A 
ATOM     16  C   UNL     1       2.404   2.768  21.380  0.00  0.00    +0.000 A 
ATOM     17  C   UNL     1       3.488   2.651  20.511  0.00  0.00    +0.000 A 
ATOM     18  C   UNL     1       3.549   3.432  19.356  0.00  0.00    +0.000 A 
ENDBRANCH  12  13
ENDBRANCH   1  12
BRANCH   1  19
ATOM     19  C   UNL     1       4.072   7.290  17.531  0.00  0.00    +0.000 C 
BRANCH  19  20
ATOM     20  C   UNL     1       5.202   6.312  17.268  0.00  0.00    +0.000 A 
ATOM     21  C   UNL     1       5.939   5.786  18.340  0.00  0.00    +0.000 A 
ATOM     22  C   UNL     1       7.051   4.973  18.112  0.00  0.00    +0.000 A 
ATOM     23  C   UNL     1       7.424   4.650  16.807  0.00  0.00    +0.000 A 
ATOM     24  C   UNL     1       6.657   5.122  15.734  0.00  0.00    +0.000 A 
ATOM     25  C   UNL     1       5.548   5.952  15.958  0.00  0.00    +0.000 A 
BRANCH  24  26
ATOM     26  N   UNL     1       7.021   4.751  14.362  0.00  0.00    +0.000 N 
ATOM     27  O   UNL     1       7.902   5.415  13.798  0.00  0.00    +0.000 OA
ATOM     28  O   UNL     1       6.425   3.793  13.847  0.00  0.00    +0.000 OA
ENDBRANCH  24  26
ENDBRANCH  19  20
ENDBRANCH   1  19
TORSDOF 8
ENDMDL
MODEL 2
REMARK VINA RESULT:      -7.8      1.917      8.001
REMARK  Name = 
REMARK  9 active torsions:
REMARK  status: ('A' for Active; 'I' for Inactive)
REMARK    1  A    between atoms: C_1  and  C_2
REMARK    2  A    between atoms: C_2  and  N_3
REMARK    3  A    between atoms: C_6  and  C_7
REMARK    4  A    between atoms: C_7  and  N_8
REMARK    5  A    between atoms: N_8  and  C_9
REMARK    6  A    between atoms: N_8  and  C_16
REMARK    7  A    between atoms: C_9  and  C_10
REMARK    8  A    between atoms: C_16  and  C_17
REMARK    9  A    between atoms: C_21  and  N_22
REMARK                            x       y       z     vdW  Elec       q    Type
REMARK                         _______ _______ _______ _____ _____    ______ ____
ROOT
ATOM      1  N   UNL     1       4.007   5.265  17.843  0.00  0.00    +0.000 NA
ENDROOT
BRANCH   1   2
ATOM      2  C   UNL     1       5.254   5.697  17.163  0.00  0.00    +0.000 C 
BRANCH   2   6
ATOM      3  N   UNL     1       6.581   4.268  13.398  0.00  0.00    +0.000 N 
ATOM      4  C   UNL     1       5.358   3.708  13.938  0.00  0.00    +0.000 C 
ATOM      5  C   UNL     1       5.284   3.918  15.424  0.00  0.00    +0.000 C 
ATOM      6  C   UNL     1       5.466   5.412  15.654  0.00  0.00    +0.000 C 
ATOM      7  O   UNL     1       6.788   5.772  15.211  0.00  0.00    +0.000 OA
ATOM      8  C   UNL     1       7.295   5.274  14.031  0.00  0.00    +0.000 C 
ATOM      9  O   UNL     1       8.359   5.710  13.590  0.00  0.00    +0.000 OA
BRANCH   3  11
ATOM     10  C   UNL     1       6.194   2.551  11.664  0.00  0.00    +0.000 C 
ATOM     11  C   UNL     1       7.052   3.719  12.130  0.00  0.00    +0.000 C 
ENDBRANCH   3  11
ENDBRANCH   2   6
ENDBRANCH   1   2
BRANCH   1  12
ATOM     12  C   UNL     1       3.962   3.800  18.059  0.00  0.00    +0.000 C 
BRANCH  12  13
ATOM     13  C   UNL     1       2.985   3.383  19.147  0.00  0.00    +0.000 A 
ATOM     14  C   UNL     1       1.610   3.607  18.987  0.00  0.00    +0.000 A 
ATOM     15  C   UNL     1       0.725   3.381  20.043  0.00  0.00    +0.000 A 
ATOM     16  C   UNL     1       1.202   2.913  21.266  0.00  0.00    +0.000 A 
ATOM     17  C   UNL     1       2.559   2.633  21.421  0.00  0.00    +0.000 A 
ATOM     18  C   UNL     1       3.447   2.857  20.368  0.00  0.00    +0.000 A 
ENDBRANCH  12  13
ENDBRANCH   1  12
BRANCH   1  19
ATOM     19  C   UNL     1       3.872   5.975  19.147  0.00  0.00    +0.000 C 
BRANCH  19  20
ATOM     20  C   UNL     1       2.836   7.083  19.134  0.00  0.00    +0.000 A 
ATOM     21  C   UNL     1       2.558   7.771  17.942  0.00  0.00    +0.000 A 
ATOM     22  C   UNL     1       1.690   8.865  17.935  0.00  0.00    +0.000 A 
ATOM     23  C   UNL     1       1.064   9.268  19.114  0.00  0.00    +0.000 A 
ATOM     24  C   UNL     1       1.290   8.548  20.295  0.00  0.00    +0.000 A 
ATOM     25  C   UNL     1       2.173   7.458  20.311  0.00  0.00    +0.000 A 
BRANCH  24  26
ATOM     26  N   UNL     1       0.601   8.944  21.528  0.00  0.00    +0.000 N 
ATOM     27  O   UNL     1      -0.590   8.628  21.653  0.00  0.00    +0.000 OA
ATOM     28  O   UNL     1       1.253   9.573  22.375  0.00  0.00    +0.000 OA
ENDBRANCH  24  26
ENDBRANCH  19  20
ENDBRANCH   1  19
TORSDOF 8
ENDMDL
MODEL 3
REMARK VINA RESULT:      -7.7      1.017      1.257
REMARK  Name = 
REMARK  9 active torsions:
REMARK  status: ('A' for Active; 'I' for Inactive)
REMARK    1  A    between atoms: C_1  and  C_2
REMARK    2  A    between atoms: C_2  and  N_3
REMARK    3  A    between atoms: C_6  and  C_7
REMARK    4  A    between atoms: C_7  and  N_8
REMARK    5  A    between atoms: N_8  and  C_9
REMARK    6  A    between atoms: N_8  and  C_16
REMARK    7  A    between atoms: C_9  and  C_10
REMARK    8  A    between atoms: C_16  and  C_17
REMARK    9  A    between atoms: C_21  and  N_22
REMARK                            x       y       z     vdW  Elec       q    Type
REMARK                         _______ _______ _______ _____ _____    ______ ____
ROOT
ATOM      1  N   UNL     1       3.012   7.120  18.131  0.00  0.00    +0.000 NA
ENDROOT
BRANCH   1   2
ATOM      2  C   UNL     1       1.941   8.006  17.610  0.00  0.00    +0.000 C 
BRANCH   2   6
ATOM      3  N   UNL     1      -0.286  10.643  20.072  0.00  0.00    +0.000 N 
ATOM      4  C   UNL     1       0.810   9.917  20.682  0.00  0.00    +0.000 C 
ATOM      5  C   UNL     1       1.166   8.704  19.868  0.00  0.00    +0.000 C 
ATOM      6  C   UNL     1       1.430   9.202  18.454  0.00  0.00    +0.000 C 
ATOM      7  O   UNL     1       0.202   9.748  17.939  0.00  0.00    +0.000 OA
ATOM      8  C   UNL     1      -0.597  10.550  18.724  0.00  0.00    +0.000 C 
ATOM      9  O   UNL     1      -1.559  11.134  18.224  0.00  0.00    +0.000 OA
BRANCH   3  11
ATOM     10  C   UNL     1      -0.225  12.136  22.040  0.00  0.00    +0.000 C 
ATOM     11  C   UNL     1      -1.077  11.501  20.951  0.00  0.00    +0.000 C 
ENDBRANCH   3  11
ENDBRANCH   2   6
ENDBRANCH   1   2
BRANCH   1  12
ATOM     12  C   UNL     1       2.807   5.703  17.748  0.00  0.00    +0.000 C 
BRANCH  12  13
ATOM     13  C   UNL     1       2.202   4.862  18.861  0.00  0.00    +0.000 A 
ATOM     14  C   UNL     1       2.505   5.140  20.202  0.00  0.00    +0.000 A 
ATOM     15  C   UNL     1       2.089   4.277  21.218  0.00  0.00    +0.000 A 
ATOM     16  C   UNL     1       1.351   3.137  20.907  0.00  0.00    +0.000 A 
ATOM     17  C   UNL     1       0.994   2.879  19.584  0.00  0.00    +0.000 A 
ATOM     18  C   UNL     1       1.408   3.739  18.566  0.00  0.00    +0.000 A 
ENDBRANCH  12  13
ENDBRANCH   1  12
BRANCH   1  19
ATOM     19  C   UNL     1       4.339   7.592  17.641  0.00  0.00    +0.000 C 
BRANCH  19  20
ATOM     20  C   UNL     1       5.323   6.470  17.368  0.00  0.00    +0.000 A 
ATOM     21  C   UNL     1       5.945   5.807  18.437  0.00  0.00    +0.000 A 
ATOM     22  C   UNL     1       6.934   4.848  18.205  0.00  0.00    +0.000 A 
ATOM     23  C   UNL     1       7.293   4.518  16.898  0.00  0.00    +0.000 A 
ATOM     24  C   UNL     1       6.633   5.132  15.826  0.00  0.00    +0.000 A 
ATOM     25  C   UNL     1       5.650   6.107  16.054  0.00  0.00    +0.000 A 
BRANCH  24  26
ATOM     26  N   UNL     1       6.978   4.757  14.450  0.00  0.00    +0.000 N 
ATOM     27  O   UNL     1       6.270   3.911  13.886  0.00  0.00    +0.000 OA
ATOM     28  O   UNL     1       7.960   5.309  13.932  0.00  0.00    +0.000 OA
ENDBRANCH  24  26
ENDBRANCH  19  20
ENDBRANCH   1  19
TORSDOF 8
ENDMDL
MODEL 4
REMARK VINA RESULT:      -7.7      1.299      1.935
REMARK  Name = 
REMARK  9 active torsions:
REMARK  status: ('A' for Active; 'I' for Inactive)
REMARK    1  A    between atoms: C_1  and  C_2
REMARK    2  A    between atoms: C_2  and  N_3
REMARK    3  A    between atoms: C_6  and  C_7
REMARK    4  A    between atoms: C_7  and  N_8
REMARK    5  A    between atoms: N_8  and  C_9
REMARK    6  A    between atoms: N_8  and  C_16
REMARK    7  A    between atoms: C_9  and  C_10
REMARK    8  A    between atoms: C_16  and  C_17
REMARK    9  A    between atoms: C_21  and  N_22
REMARK                            x       y       z     vdW  Elec       q    Type
REMARK                         _______ _______ _______ _____ _____    ______ ____
ROOT
ATOM      1  N   UNL     1       3.047   6.612  18.658  0.00  0.00    +0.000 NA
ENDROOT
BRANCH   1   2
ATOM      2  C   UNL     1       2.675   7.796  19.472  0.00  0.00    +0.000 C 
BRANCH   2   6
ATOM      3  N   UNL     1      -0.610  10.469  19.256  0.00  0.00    +0.000 N 
ATOM      4  C   UNL     1      -0.028  10.015  18.009  0.00  0.00    +0.000 C 
ATOM      5  C   UNL     1       1.371   9.508  18.225  0.00  0.00    +0.000 C 
ATOM      6  C   UNL     1       1.278   8.451  19.315  0.00  0.00    +0.000 C 
ATOM      7  O   UNL     1       0.839   9.096  20.524  0.00  0.00    +0.000 OA
ATOM      8  C   UNL     1      -0.175  10.029  20.497  0.00  0.00    +0.000 C 
ATOM      9  O   UNL     1      -0.643  10.456  21.553  0.00  0.00    +0.000 OA
BRANCH   3  11
ATOM     10  C   UNL     1      -2.439  11.325  17.833  0.00  0.00    +0.000 C 
ATOM     11  C   UNL     1      -1.701  11.435  19.159  0.00  0.00    +0.000 C 
ENDBRANCH   3  11
ENDBRANCH   2   6
ENDBRANCH   1   2
BRANCH   1  12
ATOM     12  C   UNL     1       1.862   5.861  18.181  0.00  0.00    +0.000 C 
BRANCH  12  13
ATOM     13  C   UNL     1       1.695   4.510  18.857  0.00  0.00    +0.000 A 
ATOM     14  C   UNL     1       1.270   4.435  20.192  0.00  0.00    +0.000 A 
ATOM     15  C   UNL     1       1.272   3.216  20.871  0.00  0.00    +0.000 A 
ATOM     16  C   UNL     1       1.681   2.054  20.219  0.00  0.00    +0.000 A 
ATOM     17  C   UNL     1       2.052   2.105  18.876  0.00  0.00    +0.000 A 
ATOM     18  C   UNL     1       2.052   3.323  18.194  0.00  0.00    +0.000 A 
ENDBRANCH  12  13
ENDBRANCH   1  12
BRANCH   1  19
ATOM     19  C   UNL     1       3.878   7.041  17.496  0.00  0.00    +0.000 C 
BRANCH  19  20
ATOM     20  C   UNL     1       5.041   6.113  17.202  0.00  0.00    +0.000 A 
ATOM     21  C   UNL     1       5.737   5.502  18.258  0.00  0.00    +0.000 A 
ATOM     22  C   UNL     1       6.876   4.733  18.012  0.00  0.00    +0.000 A 
ATOM     23  C   UNL     1       7.319   4.539  16.704  0.00  0.00    +0.000 A 
ATOM     24  C   UNL     1       6.595   5.095  15.642  0.00  0.00    +0.000 A 
ATOM     25  C   UNL     1       5.458   5.881  15.884  0.00  0.00    +0.000 A 
BRANCH  24  26
ATOM     26  N   UNL     1       7.033   4.859  14.262  0.00  0.00    +0.000 N 
ATOM     27  O   UNL     1       6.485   3.946  13.628  0.00  0.00    +0.000 OA
ATOM     28  O   UNL     1       7.930   5.587  13.810  0.00  0.00    +0.000 OA
ENDBRANCH  24  26
ENDBRANCH  19  20
ENDBRANCH   1  19
TORSDOF 8
ENDMDL
MODEL 5
REMARK VINA RESULT:      -7.7      2.101      2.591
REMARK  Name = 
REMARK  9 active torsions:
REMARK  status: ('A' for Active; 'I' for Inactive)
REMARK    1  A    between atoms: C_1  and  C_2
REMARK    2  A    between atoms: C_2  and  N_3
REMARK    3  A    between atoms: C_6  and  C_7
REMARK    4  A    between atoms: C_7  and  N_8
REMARK    5  A    between atoms: N_8  and  C_9
REMARK    6  A    between atoms: N_8  and  C_16
REMARK    7  A    between atoms: C_9  and  C_10
REMARK    8  A    between atoms: C_16  and  C_17
REMARK    9  A    between atoms: C_21  and  N_22
REMARK                            x       y       z     vdW  Elec       q    Type
REMARK                         _______ _______ _______ _____ _____    ______ ____
ROOT
ATOM      1  N   UNL     1       2.314   7.016  19.621  0.00  0.00    +0.000 NA
ENDROOT
BRANCH   1   2
ATOM      2  C   UNL     1       2.020   8.471  19.638  0.00  0.00    +0.000 C 
BRANCH   2   6
ATOM      3  N   UNL     1      -0.624  10.702  22.090  0.00  0.00    +0.000 N 
ATOM      4  C   UNL     1      -0.714  10.891  20.656  0.00  0.00    +0.000 C 
ATOM      5  C   UNL     1       0.553  10.451  19.978  0.00  0.00    +0.000 C 
ATOM      6  C   UNL     1       0.800   9.017  20.425  0.00  0.00    +0.000 C 
ATOM      7  O   UNL     1       1.028   9.027  21.846  0.00  0.00    +0.000 OA
ATOM      8  C   UNL     1       0.244   9.795  22.680  0.00  0.00    +0.000 C 
ATOM      9  O   UNL     1       0.348   9.675  23.901  0.00  0.00    +0.000 OA
BRANCH   3  11
ATOM     10  C   UNL     1      -1.083  12.985  22.912  0.00  0.00    +0.000 C 
ATOM     11  C   UNL     1      -1.502  11.523  22.919  0.00  0.00    +0.000 C 
ENDBRANCH   3  11
ENDBRANCH   2   6
ENDBRANCH   1   2
BRANCH   1  12
ATOM     12  C   UNL     1       1.359   6.238  20.445  0.00  0.00    +0.000 C 
BRANCH  12  13
ATOM     13  C   UNL     1       1.629   4.742  20.425  0.00  0.00    +0.000 A 
ATOM     14  C   UNL     1       0.833   3.891  19.643  0.00  0.00    +0.000 A 
ATOM     15  C   UNL     1       0.966   2.505  19.743  0.00  0.00    +0.000 A 
ATOM     16  C   UNL     1       1.905   1.953  20.613  0.00  0.00    +0.000 A 
ATOM     17  C   UNL     1       2.741   2.789  21.354  0.00  0.00    +0.000 A 
ATOM     18  C   UNL     1       2.612   4.175  21.256  0.00  0.00    +0.000 A 
ENDBRANCH  12  13
ENDBRANCH   1  12
BRANCH   1  19
ATOM     19  C   UNL     1       2.296   6.516  18.215  0.00  0.00    +0.000 C 
BRANCH  19  20
ATOM     20  C   UNL     1       3.577   5.819  17.800  0.00  0.00    +0.000 A 
ATOM     21  C   UNL     1       3.547   4.475  17.397  0.00  0.00    +0.000 A 
ATOM     22  C   UNL     1       4.729   3.786  17.117  0.00  0.00    +0.000 A 
ATOM     23  C   UNL     1       5.957   4.441  17.208  0.00  0.00    +0.000 A 
ATOM     24  C   UNL     1       5.990   5.799  17.550  0.00  0.00    +0.000 A 
ATOM     25  C   UNL     1       4.807   6.491  17.847  0.00  0.00    +0.000 A 
BRANCH  24  26
ATOM     26  N   UNL     1       7.277   6.502  17.606  0.00  0.00    +0.000 N 
ATOM     27  O   UNL     1       7.666   7.079  16.581  0.00  0.00    +0.000 OA
ATOM     28  O   UNL     1       7.901   6.477  18.677  0.00  0.00    +0.000 OA
ENDBRANCH  24  26
ENDBRANCH  19  20
ENDBRANCH   1  19
TORSDOF 8
ENDMDL
MODEL 6
REMARK VINA RESULT:      -7.6      1.358      2.034
REMARK  Name = 
REMARK  9 active torsions:
REMARK  status: ('A' for Active; 'I' for Inactive)
REMARK    1  A    between atoms: C_1  and  C_2
REMARK    2  A    between atoms: C_2  and  N_3
REMARK    3  A    between atoms: C_6  and  C_7
REMARK    4  A    between atoms: C_7  and  N_8
REMARK    5  A    between atoms: N_8  and  C_9
REMARK    6  A    between atoms: N_8  and  C_16
REMARK    7  A    between atoms: C_9  and  C_10
REMARK    8  A    between atoms: C_16  and  C_17
REMARK    9  A    between atoms: C_21  and  N_22
REMARK                            x       y       z     vdW  Elec       q    Type
REMARK                         _______ _______ _______ _____ _____    ______ ____
ROOT
ATOM      1  N   UNL     1       3.055   6.767  18.571  0.00  0.00    +0.000 NA
ENDROOT
BRANCH   1   2
ATOM      2  C   UNL     1       2.669   7.992  19.315  0.00  0.00    +0.000 C 
BRANCH   2   6
ATOM      3  N   UNL     1      -0.771  10.467  19.152  0.00  0.00    +0.000 N 
ATOM      4  C   UNL     1      -0.223   9.992  17.897  0.00  0.00    +0.000 C 
ATOM      5  C   UNL     1       1.211   9.573  18.064  0.00  0.00    +0.000 C 
ATOM      6  C   UNL     1       1.230   8.561  19.200  0.00  0.00    +0.000 C 
ATOM      7  O   UNL     1       0.813   9.234  20.402  0.00  0.00    +0.000 OA
ATOM      8  C   UNL     1      -0.253  10.107  20.387  0.00  0.00    +0.000 C 
ATOM      9  O   UNL     1      -0.694  10.553  21.447  0.00  0.00    +0.000 OA
BRANCH   3  11
ATOM     10  C   UNL     1      -2.367  11.583  17.633  0.00  0.00    +0.000 C 
ATOM     11  C   UNL     1      -1.919  11.365  19.071  0.00  0.00    +0.000 C 
ENDBRANCH   3  11
ENDBRANCH   2   6
ENDBRANCH   1   2
BRANCH   1  12
ATOM     12  C   UNL     1       1.878   5.981  18.130  0.00  0.00    +0.000 C 
BRANCH  12  13
ATOM     13  C   UNL     1       1.754   4.640  18.837  0.00  0.00    +0.000 A 
ATOM     14  C   UNL     1       1.740   3.449  18.096  0.00  0.00    +0.000 A 
ATOM     15  C   UNL     1       1.463   2.230  18.717  0.00  0.00    +0.000 A 
ATOM     16  C   UNL     1       1.212   2.185  20.087  0.00  0.00    +0.000 A 
ATOM     17  C   UNL     1       1.278   3.353  20.845  0.00  0.00    +0.000 A 
ATOM     18  C   UNL     1       1.556   4.574  20.228  0.00  0.00    +0.000 A 
ENDBRANCH  12  13
ENDBRANCH   1  12
BRANCH   1  19
ATOM     19  C   UNL     1       3.889   7.137  17.391  0.00  0.00    +0.000 C 
BRANCH  19  20
ATOM     20  C   UNL     1       5.028   6.171  17.122  0.00  0.00    +0.000 A 
ATOM     21  C   UNL     1       5.686   5.547  18.193  0.00  0.00    +0.000 A 
ATOM     22  C   UNL     1       6.806   4.743  17.972  0.00  0.00    +0.000 A 
ATOM     23  C   UNL     1       7.265   4.526  16.673  0.00  0.00    +0.000 A 
ATOM     24  C   UNL     1       6.576   5.097  15.595  0.00  0.00    +0.000 A 
ATOM     25  C   UNL     1       5.460   5.919  15.813  0.00  0.00    +0.000 A 
BRANCH  24  26
ATOM     26  N   UNL     1       7.030   4.838  14.224  0.00  0.00    +0.000 N 
ATOM     27  O   UNL     1       7.947   5.540  13.776  0.00  0.00    +0.000 OA
ATOM     28  O   UNL     1       6.468   3.931  13.592  0.00  0.00    +0.000 OA
ENDBRANCH  24  26
ENDBRANCH  19  20
ENDBRANCH   1  19
TORSDOF 8
ENDMDL
MODEL 7
REMARK VINA RESULT:      -7.5      2.626      4.704
REMARK  Name = 
REMARK  9 active torsions:
REMARK  status: ('A' for Active; 'I' for Inactive)
REMARK    1  A    between atoms: C_1  and  C_2
REMARK    2  A    between atoms: C_2  and  N_3
REMARK    3  A    between atoms: C_6  and  C_7
REMARK    4  A    between atoms: C_7  and  N_8
REMARK    5  A    between atoms: N_8  and  C_9
REMARK    6  A    between atoms: N_8  and  C_16
REMARK    7  A    between atoms: C_9  and  C_10
REMARK    8  A    between atoms: C_16  and  C_17
REMARK    9  A    between atoms: C_21  and  N_22
REMARK                            x       y       z     vdW  Elec       q    Type
REMARK                         _______ _______ _______ _____ _____    ______ ____
ROOT
ATOM      1  N   UNL     1       2.830   7.125  17.975  0.00  0.00    +0.000 NA
ENDROOT
BRANCH   1   2
ATOM      2  C   UNL     1       1.774   8.153  17.794  0.00  0.00    +0.000 C 
BRANCH   2   6
ATOM      3  N   UNL     1       1.070  11.984  19.469  0.00  0.00    +0.000 N 
ATOM      4  C   UNL     1       0.352  10.859  20.035  0.00  0.00    +0.000 C 
ATOM      5  C   UNL     1       0.310   9.710  19.067  0.00  0.00    +0.000 C 
ATOM      6  C   UNL     1       1.754   9.425  18.681  0.00  0.00    +0.000 C 
ATOM      7  O   UNL     1       2.266  10.579  17.991  0.00  0.00    +0.000 OA
ATOM      8  C   UNL     1       2.002  11.850  18.452  0.00  0.00    +0.000 C 
ATOM      9  O   UNL     1       2.572  12.817  17.944  0.00  0.00    +0.000 OA
BRANCH   3  11
ATOM     10  C   UNL     1      -0.332  14.005  19.241  0.00  0.00    +0.000 C 
ATOM     11  C   UNL     1       0.768  13.302  20.021  0.00  0.00    +0.000 C 
ENDBRANCH   3  11
ENDBRANCH   2   6
ENDBRANCH   1   2
BRANCH   1  12
ATOM     12  C   UNL     1       4.143   7.567  17.450  0.00  0.00    +0.000 C 
BRANCH  12  13
ATOM     13  C   UNL     1       5.119   6.422  17.234  0.00  0.00    +0.000 A 
ATOM     14  C   UNL     1       6.333   6.385  17.936  0.00  0.00    +0.000 A 
ATOM     15  C   UNL     1       7.304   5.432  17.626  0.00  0.00    +0.000 A 
ATOM     16  C   UNL     1       7.068   4.493  16.623  0.00  0.00    +0.000 A 
ATOM     17  C   UNL     1       5.843   4.483  15.956  0.00  0.00    +0.000 A 
ATOM     18  C   UNL     1       4.869   5.435  16.263  0.00  0.00    +0.000 A 
ENDBRANCH  12  13
ENDBRANCH   1  12
BRANCH   1  19
ATOM     19  C   UNL     1       2.952   6.779  19.421  0.00  0.00    +0.000 C 
BRANCH  19  20
ATOM     20  C   UNL     1       2.586   5.341  19.737  0.00  0.00    +0.000 A 
ATOM     21  C   UNL     1       1.354   5.046  20.341  0.00  0.00    +0.000 A 
ATOM     22  C   UNL     1       1.047   3.743  20.738  0.00  0.00    +0.000 A 
ATOM     23  C   UNL     1       1.956   2.711  20.510  0.00  0.00    +0.000 A 
ATOM     24  C   UNL     1       3.162   2.987  19.853  0.00  0.00    +0.000 A 
ATOM     25  C   UNL     1       3.482   4.297  19.465  0.00  0.00    +0.000 A 
BRANCH  24  26
ATOM     26  N   UNL     1       4.104   1.897  19.574  0.00  0.00    +0.000 N 
ATOM     27  O   UNL     1       3.879   1.176  18.592  0.00  0.00    +0.000 OA
ATOM     28  O   UNL     1       5.070   1.761  20.339  0.00  0.00    +0.000 OA
ENDBRANCH  24  26
ENDBRANCH  19  20
ENDBRANCH   1  19
TORSDOF 8
ENDMDL
MODEL 8
REMARK VINA RESULT:      -7.5      1.788      8.077
REMARK  Name = 
REMARK  9 active torsions:
REMARK  status: ('A' for Active; 'I' for Inactive)
REMARK    1  A    between atoms: C_1  and  C_2
REMARK    2  A    between atoms: C_2  and  N_3
REMARK    3  A    between atoms: C_6  and  C_7
REMARK    4  A    between atoms: C_7  and  N_8
REMARK    5  A    between atoms: N_8  and  C_9
REMARK    6  A    between atoms: N_8  and  C_16
REMARK    7  A    between atoms: C_9  and  C_10
REMARK    8  A    between atoms: C_16  and  C_17
REMARK    9  A    between atoms: C_21  and  N_22
REMARK                            x       y       z     vdW  Elec       q    Type
REMARK                         _______ _______ _______ _____ _____    ______ ____
ROOT
ATOM      1  N   UNL     1       3.240   5.954  17.781  0.00  0.00    +0.000 NA
ENDROOT
BRANCH   1   2
ATOM      2  C   UNL     1       4.646   5.659  17.406  0.00  0.00    +0.000 C 
BRANCH   2   6
ATOM      3  N   UNL     1       6.372   4.263  13.793  0.00  0.00    +0.000 N 
ATOM      4  C   UNL     1       5.085   3.719  14.179  0.00  0.00    +0.000 C 
ATOM      5  C   UNL     1       4.845   3.907  15.651  0.00  0.00    +0.000 C 
ATOM      6  C   UNL     1       5.025   5.393  15.926  0.00  0.00    +0.000 C 
ATOM      7  O   UNL     1       6.394   5.735  15.644  0.00  0.00    +0.000 OA
ATOM      8  C   UNL     1       7.026   5.246  14.521  0.00  0.00    +0.000 C 
ATOM      9  O   UNL     1       8.140   5.668  14.212  0.00  0.00    +0.000 OA
BRANCH   3  11
ATOM     10  C   UNL     1       5.998   2.862  11.793  0.00  0.00    +0.000 C 
ATOM     11  C   UNL     1       6.975   3.726  12.577  0.00  0.00    +0.000 C 
ENDBRANCH   3  11
ENDBRANCH   2   6
ENDBRANCH   1   2
BRANCH   1  12
ATOM     12  C   UNL     1       2.399   4.735  17.818  0.00  0.00    +0.000 C 
BRANCH  12  13
ATOM     13  C   UNL     1       2.387   4.055  19.178  0.00  0.00    +0.000 A 
ATOM     14  C   UNL     1       3.505   3.330  19.616  0.00  0.00    +0.000 A 
ATOM     15  C   UNL     1       3.445   2.569  20.785  0.00  0.00    +0.000 A 
ATOM     16  C   UNL     1       2.272   2.535  21.537  0.00  0.00    +0.000 A 
ATOM     17  C   UNL     1       1.172   3.295  21.143  0.00  0.00    +0.000 A 
ATOM     18  C   UNL     1       1.228   4.058  19.975  0.00  0.00    +0.000 A 
ENDBRANCH  12  13
ENDBRANCH   1  12
BRANCH   1  19
ATOM     19  C   UNL     1       3.206   6.635  19.108  0.00  0.00    +0.000 C 
BRANCH  19  20
ATOM     20  C   UNL     1       2.235   7.798  19.171  0.00  0.00    +0.000 A 
ATOM     21  C   UNL     1       1.885   8.486  17.999  0.00  0.00    +0.000 A 
ATOM     22  C   UNL     1       1.080   9.626  18.052  0.00  0.00    +0.000 A 
ATOM     23  C   UNL     1       0.590  10.078  19.277  0.00  0.00    +0.000 A 
ATOM     24  C   UNL     1       0.884   9.361  20.444  0.00  0.00    +0.000 A 
ATOM     25  C   UNL     1       1.705   8.224  20.398  0.00  0.00    +0.000 A 
BRANCH  24  26
ATOM     26  N   UNL     1       0.336   9.809  21.729  0.00  0.00    +0.000 N 
ATOM     27  O   UNL     1      -0.718  10.459  21.713  0.00  0.00    +0.000 OA
ATOM     28  O   UNL     1       0.961   9.510  22.758  0.00  0.00    +0.000 OA
ENDBRANCH  24  26
ENDBRANCH  19  20
ENDBRANCH   1  19
TORSDOF 8
ENDMDL
MODEL 9
REMARK VINA RESULT:      -7.5      2.085      2.646
REMARK  Name = 
REMARK  9 active torsions:
REMARK  status: ('A' for Active; 'I' for Inactive)
REMARK    1  A    between atoms: C_1  and  C_2
REMARK    2  A    between atoms: C_2  and  N_3
REMARK    3  A    between atoms: C_6  and  C_7
REMARK    4  A    between atoms: C_7  and  N_8
REMARK    5  A    between atoms: N_8  and  C_9
REMARK    6  A    between atoms: N_8  and  C_16
REMARK    7  A    between atoms: C_9  and  C_10
REMARK    8  A    between atoms: C_16  and  C_17
REMARK    9  A    between atoms: C_21  and  N_22
REMARK                            x       y       z     vdW  Elec       q    Type
REMARK                         _______ _______ _______ _____ _____    ______ ____
ROOT
ATOM      1  N   UNL     1       2.718   6.676  18.808  0.00  0.00    +0.000 NA
ENDROOT
BRANCH   1   2
ATOM      2  C   UNL     1       2.031   7.541  19.801  0.00  0.00    +0.000 C 
BRANCH   2   6
ATOM      3  N   UNL     1      -0.171  11.107  19.155  0.00  0.00    +0.000 N 
ATOM      4  C   UNL     1       0.754  11.079  20.270  0.00  0.00    +0.000 C 
ATOM      5  C   UNL     1       1.069   9.664  20.669  0.00  0.00    +0.000 C 
ATOM      6  C   UNL     1       1.557   8.965  19.409  0.00  0.00    +0.000 C 
ATOM      7  O   UNL     1       0.471   8.938  18.465  0.00  0.00    +0.000 OA
ATOM      8  C   UNL     1      -0.323  10.047  18.273  0.00  0.00    +0.000 C 
ATOM      9  O   UNL     1      -1.145  10.061  17.357  0.00  0.00    +0.000 OA
BRANCH   3  11
ATOM     10  C   UNL     1      -0.163  13.430  18.316  0.00  0.00    +0.000 C 
ATOM     11  C   UNL     1      -0.962  12.322  18.986  0.00  0.00    +0.000 C 
ENDBRANCH   3  11
ENDBRANCH   2   6
ENDBRANCH   1   2
BRANCH   1  12
ATOM     12  C   UNL     1       1.768   5.842  18.035  0.00  0.00    +0.000 C 
BRANCH  12  13
ATOM     13  C   UNL     1       2.010   4.350  18.198  0.00  0.00    +0.000 A 
ATOM     14  C   UNL     1       1.318   3.623  19.177  0.00  0.00    +0.000 A 
ATOM     15  C   UNL     1       1.650   2.294  19.444  0.00  0.00    +0.000 A 
ATOM     16  C   UNL     1       2.668   1.671  18.724  0.00  0.00    +0.000 A 
ATOM     17  C   UNL     1       3.327   2.364  17.709  0.00  0.00    +0.000 A 
ATOM     18  C   UNL     1       2.996   3.693  17.439  0.00  0.00    +0.000 A 
ENDBRANCH  12  13
ENDBRANCH   1  12
BRANCH   1  19
ATOM     19  C   UNL     1       3.525   7.519  17.880  0.00  0.00    +0.000 C 
BRANCH  19  20
ATOM     20  C   UNL     1       4.691   6.784  17.246  0.00  0.00    +0.000 A 
ATOM     21  C   UNL     1       4.746   6.624  15.853  0.00  0.00    +0.000 A 
ATOM     22  C   UNL     1       5.751   5.856  15.261  0.00  0.00    +0.000 A 
ATOM     23  C   UNL     1       6.734   5.262  16.054  0.00  0.00    +0.000 A 
ATOM     24  C   UNL     1       6.720   5.469  17.439  0.00  0.00    +0.000 A 
ATOM     25  C   UNL     1       5.703   6.226  18.040  0.00  0.00    +0.000 A 
BRANCH  24  26
ATOM     26  N   UNL     1       7.776   4.881  18.272  0.00  0.00    +0.000 N 
ATOM     27  O   UNL     1       8.505   4.021  17.759  0.00  0.00    +0.000 OA
ATOM     28  O   UNL     1       7.875   5.280  19.442  0.00  0.00    +0.000 OA
ENDBRANCH  24  26
ENDBRANCH  19  20
ENDBRANCH   1  19
TORSDOF 8
ENDMDL
