MODEL 1
REMARK VINA RESULT:      -8.2      0.000      0.000
REMARK  Name = 
REMARK  9 active torsions:
REMARK  status: ('A' for Active; 'I' for Inactive)
REMARK    1  A    between atoms: C_1  and  C_2
REMARK    2  A    between atoms: C_2  and  C_3
REMARK    3  A    between atoms: C_3  and  O_4
REMARK    4  A    between atoms: O_4  and  C_5
REMARK    5  A    between atoms: C_11  and  C_12
REMARK    6  A    between atoms: C_14  and  C_15
REMARK    7  A    between atoms: N_17  and  C_18
REMARK    8  A    between atoms: C_18  and  C_19
REMARK    9  A    between atoms: C_22  and  C_23
REMARK                            x       y       z     vdW  Elec       q    Type
REMARK                         _______ _______ _______ _____ _____    ______ ____
ROOT
ATOM      1  C   UNL     1       3.470   6.067  18.689  0.00  0.00    +0.000 A 
ATOM      2  C   UNL     1       2.719   7.270  18.585  0.00  0.00    +0.000 A 
ATOM      3  C   UNL     1       2.112   7.462  19.806  0.00  0.00    +0.000 A 
ATOM      4  N   UNL     1       2.505   6.389  20.556  0.00  0.00    +0.000 N 
ATOM      5  N   UNL     1       3.307   5.526  19.908  0.00  0.00    +0.000 NA
ATOM      6  H   UNL     1       2.246   6.193  21.518  0.00  0.00    +0.000 HD
ENDROOT
BRANCH   1  13
ATOM      7  C   UNL     1       3.850   4.235  16.984  0.00  0.00    +0.000 A 
ATOM      8  C   UNL     1       4.708   3.610  16.065  0.00  0.00    +0.000 A 
ATOM      9  C   UNL     1       5.960   4.153  15.783  0.00  0.00    +0.000 A 
ATOM     10  C   UNL     1       6.353   5.328  16.403  0.00  0.00    +0.000 A 
ATOM     11  F   UNL     1       7.556   5.848  16.123  0.00  0.00    +0.000 F 
ATOM     12  C   UNL     1       5.528   5.963  17.321  0.00  0.00    +0.000 A 
ATOM     13  C   UNL     1       4.272   5.415  17.644  0.00  0.00    +0.000 A 
BRANCH   7  14
ATOM     14  O   UNL     1       2.592   3.765  17.277  0.00  0.00    +0.000 OA
BRANCH  14  15
ATOM     15  C   UNL     1       2.459   2.393  17.638  0.00  0.00    +0.000 C 
BRANCH  15  17
ATOM     16  C   UNL     1       0.792   2.872  19.451  0.00  0.00    +0.000 C 
ATOM     17  C   UNL     1       2.167   2.313  19.132  0.00  0.00    +0.000 C 
ENDBRANCH  15  17
ENDBRANCH  14  15
ENDBRANCH   7  14
ENDBRANCH   1  13
BRANCH   3  18
ATOM     18  C   UNL     1       1.246   8.490  20.321  0.00  0.00    +0.000 C 
ATOM     19  O   UNL     1       0.531   8.309  21.298  0.00  0.00    +0.000 OA
ATOM     20  N   UNL     1       1.292   9.679  19.635  0.00  0.00    +0.000 N 
ATOM     21  H   UNL     1       1.882   9.763  18.821  0.00  0.00    +0.000 HD
BRANCH  20  22
ATOM     22  C   UNL     1       0.503  10.828  20.007  0.00  0.00    +0.000 C 
BRANCH  22  23
ATOM     23  C   UNL     1      -0.758  10.899  19.186  0.00  0.00    +0.000 A 
ATOM     24  C   UNL     1      -0.866  10.155  18.003  0.00  0.00    +0.000 A 
ATOM     25  C   UNL     1      -2.032  10.204  17.236  0.00  0.00    +0.000 A 
ATOM     26  C   UNL     1      -3.112  11.007  17.631  0.00  0.00    +0.000 A 
ATOM     27  C   UNL     1      -2.992  11.772  18.802  0.00  0.00    +0.000 A 
ATOM     28  C   UNL     1      -1.825  11.722  19.570  0.00  0.00    +0.000 A 
BRANCH  26  29
ATOM     29  C   UNL     1      -4.388  11.050  16.827  0.00  0.00    +0.000 C 
ATOM     30  F   UNL     1      -4.323  10.350  15.660  0.00  0.00    +0.000 F 
ATOM     31  F   UNL     1      -5.449  10.535  17.509  0.00  0.00    +0.000 F 
ATOM     32  F   UNL     1      -4.747  12.318  16.483  0.00  0.00    +0.000 F 
ENDBRANCH  26  29
ENDBRANCH  22  23
ENDBRANCH  20  22
ENDBRANCH   3  18
TORSDOF 8
ENDMDL
MODEL 2
REMARK VINA RESULT:      -8.0      2.624      4.244
REMARK  Name = 
REMARK  9 active torsions:
REMARK  status: ('A' for Active; 'I' for Inactive)
REMARK    1  A    between atoms: C_1  and  C_2
REMARK    2  A    between atoms: C_2  and  C_3
REMARK    3  A    between atoms: C_3  and  O_4
REMARK    4  A    between atoms: O_4  and  C_5
REMARK    5  A    between atoms: C_11  and  C_12
REMARK    6  A    between atoms: C_14  and  C_15
REMARK    7  A    between atoms: N_17  and  C_18
REMARK    8  A    between atoms: C_18  and  C_19
REMARK    9  A    between atoms: C_22  and  C_23
REMARK                            x       y       z     vdW  Elec       q    Type
REMARK                         _______ _______ _______ _____ _____    ______ ____
ROOT
ATOM      1  C   UNL     1       4.844   4.810  17.612  0.00  0.00    +0.000 A 
ATOM      2  C   UNL     1       3.724   5.634  17.910  0.00  0.00    +0.000 A 
ATOM      3  C   UNL     1       3.312   5.295  19.180  0.00  0.00    +0.000 A 
ATOM      4  N   UNL     1       4.171   4.304  19.565  0.00  0.00    +0.000 N 
ATOM      5  N   UNL     1       5.091   3.980  18.639  0.00  0.00    +0.000 NA
ATOM      6  H   UNL     1       4.168   3.807  20.451  0.00  0.00    +0.000 HD
ENDROOT
BRANCH   1  13
ATOM      7  C   UNL     1       6.860   5.440  16.218  0.00  0.00    +0.000 A 
ATOM      8  C   UNL     1       7.504   5.439  14.970  0.00  0.00    +0.000 A 
ATOM      9  C   UNL     1       6.945   4.766  13.885  0.00  0.00    +0.000 A 
ATOM     10  C   UNL     1       5.753   4.080  14.045  0.00  0.00    +0.000 A 
ATOM     11  F   UNL     1       5.224   3.429  13.000  0.00  0.00    +0.000 F 
ATOM     12  C   UNL     1       5.091   4.069  15.266  0.00  0.00    +0.000 A 
ATOM     13  C   UNL     1       5.622   4.768  16.366  0.00  0.00    +0.000 A 
BRANCH   7  14
ATOM     14  O   UNL     1       7.380   6.058  17.330  0.00  0.00    +0.000 OA
BRANCH  14  15
ATOM     15  C   UNL     1       7.289   7.478  17.411  0.00  0.00    +0.000 C 
BRANCH  15  17
ATOM     16  C   UNL     1       8.548   9.463  18.289  0.00  0.00    +0.000 C 
ATOM     17  C   UNL     1       8.310   7.970  18.430  0.00  0.00    +0.000 C 
ENDBRANCH  15  17
ENDBRANCH  14  15
ENDBRANCH   7  14
ENDBRANCH   1  13
BRANCH   3  18
ATOM     18  C   UNL     1       2.254   5.775  20.029  0.00  0.00    +0.000 C 
ATOM     19  O   UNL     1       1.408   5.026  20.501  0.00  0.00    +0.000 OA
ATOM     20  N   UNL     1       2.274   7.127  20.267  0.00  0.00    +0.000 N 
ATOM     21  H   UNL     1       2.981   7.700  19.831  0.00  0.00    +0.000 HD
BRANCH  20  22
ATOM     22  C   UNL     1       1.301   7.790  21.102  0.00  0.00    +0.000 C 
BRANCH  22  23
ATOM     23  C   UNL     1       0.802   9.049  20.442  0.00  0.00    +0.000 A 
ATOM     24  C   UNL     1       1.282   9.415  19.177  0.00  0.00    +0.000 A 
ATOM     25  C   UNL     1       0.822  10.576  18.550  0.00  0.00    +0.000 A 
ATOM     26  C   UNL     1      -0.121  11.400  19.180  0.00  0.00    +0.000 A 
ATOM     27  C   UNL     1      -0.581  11.045  20.458  0.00  0.00    +0.000 A 
ATOM     28  C   UNL     1      -0.122   9.884  21.085  0.00  0.00    +0.000 A 
BRANCH  26  29
ATOM     29  C   UNL     1      -0.647  12.642  18.505  0.00  0.00    +0.000 C 
ATOM     30  F   UNL     1       0.327  13.417  17.950  0.00  0.00    +0.000 F 
ATOM     31  F   UNL     1      -1.514  12.356  17.493  0.00  0.00    +0.000 F 
ATOM     32  F   UNL     1      -1.328  13.455  19.360  0.00  0.00    +0.000 F 
ENDBRANCH  26  29
ENDBRANCH  22  23
ENDBRANCH  20  22
ENDBRANCH   3  18
TORSDOF 8
ENDMDL
MODEL 3
REMARK VINA RESULT:      -7.9      2.285      3.671
REMARK  Name = 
REMARK  9 active torsions:
REMARK  status: ('A' for Active; 'I' for Inactive)
REMARK    1  A    between atoms: C_1  and  C_2
REMARK    2  A    between atoms: C_2  and  C_3
REMARK    3  A    between atoms: C_3  and  O_4
REMARK    4  A    between atoms: O_4  and  C_5
REMARK    5  A    between atoms: C_11  and  C_12
REMARK    6  A    between atoms: C_14  and  C_15
REMARK    7  A    between atoms: N_17  and  C_18
REMARK    8  A    between atoms: C_18  and  C_19
REMARK    9  A    between atoms: C_22  and  C_23
REMARK                            x       y       z     vdW  Elec       q    Type
REMARK                         _______ _______ _______ _____ _____    ______ ____
ROOT
ATOM      1  C   UNL     1       2.364   7.137  18.711  0.00  0.00    +0.000 A 
ATOM      2  C   UNL     1       1.954   8.293  17.992  0.00  0.00    +0.000 A 
ATOM      3  C   UNL     1       1.492   9.194  18.926  0.00  0.00    +0.000 A 
ATOM      4  N   UNL     1       1.629   8.547  20.122  0.00  0.00    +0.000 N 
ATOM      5  N   UNL     1       2.134   7.305  20.024  0.00  0.00    +0.000 NA
ATOM      6  H   UNL     1       1.383   8.908  21.039  0.00  0.00    +0.000 HD
ENDROOT
BRANCH   1  13
ATOM      7  C   UNL     1       4.177   5.805  17.552  0.00  0.00    +0.000 A 
ATOM      8  C   UNL     1       4.590   4.599  16.964  0.00  0.00    +0.000 A 
ATOM      9  C   UNL     1       3.765   3.476  16.996  0.00  0.00    +0.000 A 
ATOM     10  C   UNL     1       2.535   3.547  17.629  0.00  0.00    +0.000 A 
ATOM     11  F   UNL     1       1.749   2.463  17.663  0.00  0.00    +0.000 F 
ATOM     12  C   UNL     1       2.099   4.729  18.213  0.00  0.00    +0.000 A 
ATOM     13  C   UNL     1       2.903   5.883  18.164  0.00  0.00    +0.000 A 
BRANCH   7  14
ATOM     14  O   UNL     1       4.961   6.933  17.579  0.00  0.00    +0.000 OA
BRANCH  14  15
ATOM     15  C   UNL     1       6.145   6.945  16.787  0.00  0.00    +0.000 C 
BRANCH  15  17
ATOM     16  C   UNL     1       7.986   8.353  17.751  0.00  0.00    +0.000 C 
ATOM     17  C   UNL     1       7.350   6.974  17.721  0.00  0.00    +0.000 C 
ENDBRANCH  15  17
ENDBRANCH  14  15
ENDBRANCH   7  14
ENDBRANCH   1  13
BRANCH   3  18
ATOM     18  C   UNL     1       0.961  10.528  18.823  0.00  0.00    +0.000 C 
ATOM     19  O   UNL     1       1.550  11.500  19.281  0.00  0.00    +0.000 OA
ATOM     20  N   UNL     1      -0.244  10.620  18.173  0.00  0.00    +0.000 N 
ATOM     21  H   UNL     1      -0.696   9.783  17.838  0.00  0.00    +0.000 HD
BRANCH  20  22
ATOM     22  C   UNL     1      -0.927  11.874  17.963  0.00  0.00    +0.000 C 
BRANCH  22  23
ATOM     23  C   UNL     1      -2.415  11.707  18.138  0.00  0.00    +0.000 A 
ATOM     24  C   UNL     1      -3.158  11.002  17.182  0.00  0.00    +0.000 A 
ATOM     25  C   UNL     1      -4.536  10.833  17.336  0.00  0.00    +0.000 A 
ATOM     26  C   UNL     1      -5.201  11.374  18.445  0.00  0.00    +0.000 A 
ATOM     27  C   UNL     1      -4.459  12.103  19.389  0.00  0.00    +0.000 A 
ATOM     28  C   UNL     1      -3.080  12.272  19.235  0.00  0.00    +0.000 A 
BRANCH  26  29
ATOM     29  C   UNL     1      -6.684  11.177  18.639  0.00  0.00    +0.000 C 
ATOM     30  F   UNL     1      -7.089   9.885  18.485  0.00  0.00    +0.000 F 
ATOM     31  F   UNL     1      -7.099  11.549  19.882  0.00  0.00    +0.000 F 
ATOM     32  F   UNL     1      -7.428  11.909  17.763  0.00  0.00    +0.000 F 
ENDBRANCH  26  29
ENDBRANCH  22  23
ENDBRANCH  20  22
ENDBRANCH   3  18
TORSDOF 8
ENDMDL
MODEL 4
REMARK VINA RESULT:      -7.9      5.403      8.938
REMARK  Name = 
REMARK  9 active torsions:
REMARK  status: ('A' for Active; 'I' for Inactive)
REMARK    1  A    between atoms: C_1  and  C_2
REMARK    2  A    between atoms: C_2  and  C_3
REMARK    3  A    between atoms: C_3  and  O_4
REMARK    4  A    between atoms: O_4  and  C_5
REMARK    5  A    between atoms: C_11  and  C_12
REMARK    6  A    between atoms: C_14  and  C_15
REMARK    7  A    between atoms: N_17  and  C_18
REMARK    8  A    between atoms: C_18  and  C_19
REMARK    9  A    between atoms: C_22  and  C_23
REMARK                            x       y       z     vdW  Elec       q    Type
REMARK                         _______ _______ _______ _____ _____    ______ ____
ROOT
ATOM      1  C   UNL     1       4.711   5.057  19.079  0.00  0.00    +0.000 A 
ATOM      2  C   UNL     1       5.030   6.000  18.064  0.00  0.00    +0.000 A 
ATOM      3  C   UNL     1       6.391   6.206  18.130  0.00  0.00    +0.000 A 
ATOM      4  N   UNL     1       6.806   5.411  19.161  0.00  0.00    +0.000 N 
ATOM      5  N   UNL     1       5.820   4.722  19.761  0.00  0.00    +0.000 NA
ATOM      6  H   UNL     1       7.757   5.308  19.504  0.00  0.00    +0.000 HD
ENDROOT
BRANCH   1  13
ATOM      7  C   UNL     1       2.419   5.308  20.121  0.00  0.00    +0.000 A 
ATOM      8  C   UNL     1       1.208   4.715  20.515  0.00  0.00    +0.000 A 
ATOM      9  C   UNL     1       0.943   3.380  20.216  0.00  0.00    +0.000 A 
ATOM     10  C   UNL     1       1.876   2.638  19.511  0.00  0.00    +0.000 A 
ATOM     11  F   UNL     1       1.613   1.356  19.221  0.00  0.00    +0.000 F 
ATOM     12  C   UNL     1       3.084   3.196  19.114  0.00  0.00    +0.000 A 
ATOM     13  C   UNL     1       3.385   4.533  19.433  0.00  0.00    +0.000 A 
BRANCH   7  14
ATOM     14  O   UNL     1       2.721   6.627  20.359  0.00  0.00    +0.000 OA
BRANCH  14  15
ATOM     15  C   UNL     1       1.876   7.621  19.786  0.00  0.00    +0.000 C 
BRANCH  15  17
ATOM     16  C   UNL     1       0.119   8.315  21.439  0.00  0.00    +0.000 C 
ATOM     17  C   UNL     1       1.497   8.618  20.875  0.00  0.00    +0.000 C 
ENDBRANCH  15  17
ENDBRANCH  14  15
ENDBRANCH   7  14
ENDBRANCH   1  13
BRANCH   3  18
ATOM     18  C   UNL     1       7.298   7.026  17.371  0.00  0.00    +0.000 C 
ATOM     19  O   UNL     1       7.759   6.663  16.296  0.00  0.00    +0.000 OA
ATOM     20  N   UNL     1       7.597   8.237  17.944  0.00  0.00    +0.000 N 
ATOM     21  H   UNL     1       7.208   8.474  18.844  0.00  0.00    +0.000 HD
BRANCH  20  22
ATOM     22  C   UNL     1       8.479   9.199  17.327  0.00  0.00    +0.000 C 
BRANCH  22  23
ATOM     23  C   UNL     1       8.807  10.314  18.286  0.00  0.00    +0.000 A 
ATOM     24  C   UNL     1       9.162  10.018  19.610  0.00  0.00    +0.000 A 
ATOM     25  C   UNL     1       9.476  11.041  20.507  0.00  0.00    +0.000 A 
ATOM     26  C   UNL     1       9.432  12.383  20.102  0.00  0.00    +0.000 A 
ATOM     27  C   UNL     1       9.050  12.678  18.783  0.00  0.00    +0.000 A 
ATOM     28  C   UNL     1       8.737  11.655  17.885  0.00  0.00    +0.000 A 
BRANCH  26  29
ATOM     29  C   UNL     1       9.794  13.498  21.052  0.00  0.00    +0.000 C 
ATOM     30  F   UNL     1      11.071  13.951  20.902  0.00  0.00    +0.000 F 
ATOM     31  F   UNL     1       8.994  14.590  20.899  0.00  0.00    +0.000 F 
ATOM     32  F   UNL     1       9.679  13.131  22.358  0.00  0.00    +0.000 F 
ENDBRANCH  26  29
ENDBRANCH  22  23
ENDBRANCH  20  22
ENDBRANCH   3  18
TORSDOF 8
ENDMDL
MODEL 5
REMARK VINA RESULT:      -7.8      1.580      2.106
REMARK  Name = 
REMARK  9 active torsions:
REMARK  status: ('A' for Active; 'I' for Inactive)
REMARK    1  A    between atoms: C_1  and  C_2
REMARK    2  A    between atoms: C_2  and  C_3
REMARK    3  A    between atoms: C_3  and  O_4
REMARK    4  A    between atoms: O_4  and  C_5
REMARK    5  A    between atoms: C_11  and  C_12
REMARK    6  A    between atoms: C_14  and  C_15
REMARK    7  A    between atoms: N_17  and  C_18
REMARK    8  A    between atoms: C_18  and  C_19
REMARK    9  A    between atoms: C_22  and  C_23
REMARK                            x       y       z     vdW  Elec       q    Type
REMARK                         _______ _______ _______ _____ _____    ______ ____
ROOT
ATOM      1  C   UNL     1       2.507   7.314  18.657  0.00  0.00    +0.000 A 
ATOM      2  C   UNL     1       2.038   8.573  18.192  0.00  0.00    +0.000 A 
ATOM      3  C   UNL     1       1.413   9.180  19.260  0.00  0.00    +0.000 A 
ATOM      4  N   UNL     1       1.522   8.275  20.278  0.00  0.00    +0.000 N 
ATOM      5  N   UNL     1       2.159   7.139  19.943  0.00  0.00    +0.000 NA
ATOM      6  H   UNL     1       1.169   8.380  21.225  0.00  0.00    +0.000 HD
ENDROOT
BRANCH   1  13
ATOM      7  C   UNL     1       2.813   4.920  17.894  0.00  0.00    +0.000 A 
ATOM      8  C   UNL     1       3.589   3.967  17.216  0.00  0.00    +0.000 A 
ATOM      9  C   UNL     1       4.735   4.351  16.522  0.00  0.00    +0.000 A 
ATOM     10  C   UNL     1       5.101   5.686  16.489  0.00  0.00    +0.000 A 
ATOM     11  F   UNL     1       6.201   6.050  15.815  0.00  0.00    +0.000 F 
ATOM     12  C   UNL     1       4.356   6.649  17.156  0.00  0.00    +0.000 A 
ATOM     13  C   UNL     1       3.213   6.279  17.888  0.00  0.00    +0.000 A 
BRANCH   7  14
ATOM     14  O   UNL     1       1.657   4.606  18.567  0.00  0.00    +0.000 OA
BRANCH  14  15
ATOM     15  C   UNL     1       1.226   3.248  18.557  0.00  0.00    +0.000 C 
BRANCH  15  17
ATOM     16  C   UNL     1       1.237   3.142  21.065  0.00  0.00    +0.000 C 
ATOM     17  C   UNL     1       1.801   2.550  19.785  0.00  0.00    +0.000 C 
ENDBRANCH  15  17
ENDBRANCH  14  15
ENDBRANCH   7  14
ENDBRANCH   1  13
BRANCH   3  18
ATOM     18  C   UNL     1       0.758  10.450  19.421  0.00  0.00    +0.000 C 
ATOM     19  O   UNL     1       0.921  11.146  20.416  0.00  0.00    +0.000 OA
ATOM     20  N   UNL     1      -0.054  10.817  18.376  0.00  0.00    +0.000 N 
ATOM     21  H   UNL     1      -0.171  10.193  17.592  0.00  0.00    +0.000 HD
BRANCH  20  22
ATOM     22  C   UNL     1      -0.786  12.060  18.352  0.00  0.00    +0.000 C 
BRANCH  22  23
ATOM     23  C   UNL     1      -2.269  11.808  18.438  0.00  0.00    +0.000 A 
ATOM     24  C   UNL     1      -2.897  10.987  17.492  0.00  0.00    +0.000 A 
ATOM     25  C   UNL     1      -4.269  10.738  17.564  0.00  0.00    +0.000 A 
ATOM     26  C   UNL     1      -5.045  11.313  18.581  0.00  0.00    +0.000 A 
ATOM     27  C   UNL     1      -4.419  12.157  19.513  0.00  0.00    +0.000 A 
ATOM     28  C   UNL     1      -3.046  12.405  19.441  0.00  0.00    +0.000 A 
BRANCH  26  29
ATOM     29  C   UNL     1      -6.523  11.033  18.689  0.00  0.00    +0.000 C 
ATOM     30  F   UNL     1      -7.260  11.593  17.688  0.00  0.00    +0.000 F 
ATOM     31  F   UNL     1      -6.803   9.700  18.652  0.00  0.00    +0.000 F 
ATOM     32  F   UNL     1      -7.060  11.495  19.852  0.00  0.00    +0.000 F 
ENDBRANCH  26  29
ENDBRANCH  22  23
ENDBRANCH  20  22
ENDBRANCH   3  18
TORSDOF 8
ENDMDL
MODEL 6
REMARK VINA RESULT:      -7.8      3.254      9.501
REMARK  Name = 
REMARK  9 active torsions:
REMARK  status: ('A' for Active; 'I' for Inactive)
REMARK    1  A    between atoms: C_1  and  C_2
REMARK    2  A    between atoms: C_2  and  C_3
REMARK    3  A    between atoms: C_3  and  O_4
REMARK    4  A    between atoms: O_4  and  C_5
REMARK    5  A    between atoms: C_11  and  C_12
REMARK    6  A    between atoms: C_14  and  C_15
REMARK    7  A    between atoms: N_17  and  C_18
REMARK    8  A    between atoms: C_18  and  C_19
REMARK    9  A    between atoms: C_22  and  C_23
REMARK                            x       y       z     vdW  Elec       q    Type
REMARK                         _______ _______ _______ _____ _____    ______ ____
ROOT
ATOM      1  C   UNL     1       1.299   9.232  18.864  0.00  0.00    +0.000 A 
ATOM      2  C   UNL     1       1.766   8.017  19.436  0.00  0.00    +0.000 A 
ATOM      3  C   UNL     1       2.675   7.487  18.547  0.00  0.00    +0.000 A 
ATOM      4  N   UNL     1       2.696   8.376  17.510  0.00  0.00    +0.000 N 
ATOM      5  N   UNL     1       1.870   9.425  17.663  0.00  0.00    +0.000 NA
ATOM      6  H   UNL     1       3.255   8.310  16.663  0.00  0.00    +0.000 HD
ENDROOT
BRANCH   1  13
ATOM      7  C   UNL     1      -0.864  10.534  18.692  0.00  0.00    +0.000 A 
ATOM      8  C   UNL     1      -1.733  11.495  19.234  0.00  0.00    +0.000 A 
ATOM      9  C   UNL     1      -1.474  12.060  20.482  0.00  0.00    +0.000 A 
ATOM     10  C   UNL     1      -0.359  11.658  21.198  0.00  0.00    +0.000 A 
ATOM     11  F   UNL     1      -0.119  12.200  22.400  0.00  0.00    +0.000 F 
ATOM     12  C   UNL     1       0.520  10.715  20.684  0.00  0.00    +0.000 A 
ATOM     13  C   UNL     1       0.295  10.155  19.413  0.00  0.00    +0.000 A 
BRANCH   7  14
ATOM     14  O   UNL     1      -1.086   9.919  17.483  0.00  0.00    +0.000 OA
BRANCH  14  15
ATOM     15  C   UNL     1      -2.431   9.806  17.027  0.00  0.00    +0.000 C 
BRANCH  15  17
ATOM     16  C   UNL     1      -3.069  10.068  14.614  0.00  0.00    +0.000 C 
ATOM     17  C   UNL     1      -2.635  10.789  15.879  0.00  0.00    +0.000 C 
ENDBRANCH  15  17
ENDBRANCH  14  15
ENDBRANCH   7  14
ENDBRANCH   1  13
BRANCH   3  18
ATOM     18  C   UNL     1       3.484   6.296  18.563  0.00  0.00    +0.000 C 
ATOM     19  O   UNL     1       3.101   5.257  19.085  0.00  0.00    +0.000 OA
ATOM     20  N   UNL     1       4.704   6.421  17.946  0.00  0.00    +0.000 N 
ATOM     21  H   UNL     1       4.978   7.309  17.554  0.00  0.00    +0.000 HD
BRANCH  20  22
ATOM     22  C   UNL     1       5.648   5.333  17.853  0.00  0.00    +0.000 C 
BRANCH  22  23
ATOM     23  C   UNL     1       5.830   4.907  16.419  0.00  0.00    +0.000 A 
ATOM     24  C   UNL     1       7.004   5.241  15.731  0.00  0.00    +0.000 A 
ATOM     25  C   UNL     1       7.189   4.846  14.405  0.00  0.00    +0.000 A 
ATOM     26  C   UNL     1       6.199   4.115  13.734  0.00  0.00    +0.000 A 
ATOM     27  C   UNL     1       5.011   3.803  14.416  0.00  0.00    +0.000 A 
ATOM     28  C   UNL     1       4.826   4.198  15.743  0.00  0.00    +0.000 A 
BRANCH  26  29
ATOM     29  C   UNL     1       6.395   3.658  12.310  0.00  0.00    +0.000 C 
ATOM     30  F   UNL     1       5.253   3.681  11.566  0.00  0.00    +0.000 F 
ATOM     31  F   UNL     1       7.291   4.431  11.635  0.00  0.00    +0.000 F 
ATOM     32  F   UNL     1       6.867   2.383  12.229  0.00  0.00    +0.000 F 
ENDBRANCH  26  29
ENDBRANCH  22  23
ENDBRANCH  20  22
ENDBRANCH   3  18
TORSDOF 8
ENDMDL
MODEL 7
REMARK VINA RESULT:      -7.7      3.804      4.546
REMARK  Name = 
REMARK  9 active torsions:
REMARK  status: ('A' for Active; 'I' for Inactive)
REMARK    1  A    between atoms: C_1  and  C_2
REMARK    2  A    between atoms: C_2  and  C_3
REMARK    3  A    between atoms: C_3  and  O_4
REMARK    4  A    between atoms: O_4  and  C_5
REMARK    5  A    between atoms: C_11  and  C_12
REMARK    6  A    between atoms: C_14  and  C_15
REMARK    7  A    between atoms: N_17  and  C_18
REMARK    8  A    between atoms: C_18  and  C_19
REMARK    9  A    between atoms: C_22  and  C_23
REMARK                            x       y       z     vdW  Elec       q    Type
REMARK                         _______ _______ _______ _____ _____    ______ ____
ROOT
ATOM      1  C   UNL     1       2.552   6.819  19.010  0.00  0.00    +0.000 A 
ATOM      2  C   UNL     1       2.072   8.126  18.722  0.00  0.00    +0.000 A 
ATOM      3  C   UNL     1       1.503   8.602  19.883  0.00  0.00    +0.000 A 
ATOM      4  N   UNL     1       1.651   7.581  20.779  0.00  0.00    +0.000 N 
ATOM      5  N   UNL     1       2.263   6.492  20.281  0.00  0.00    +0.000 NA
ATOM      6  H   UNL     1       1.344   7.573  21.747  0.00  0.00    +0.000 HD
ENDROOT
BRANCH   1  13
ATOM      7  C   UNL     1       2.726   4.573  17.856  0.00  0.00    +0.000 A 
ATOM      8  C   UNL     1       3.459   3.696  17.042  0.00  0.00    +0.000 A 
ATOM      9  C   UNL     1       4.650   4.110  16.447  0.00  0.00    +0.000 A 
ATOM     10  C   UNL     1       5.103   5.403  16.649  0.00  0.00    +0.000 A 
ATOM     11  F   UNL     1       6.245   5.798  16.070  0.00  0.00    +0.000 F 
ATOM     12  C   UNL     1       4.401   6.290  17.456  0.00  0.00    +0.000 A 
ATOM     13  C   UNL     1       3.213   5.882  18.090  0.00  0.00    +0.000 A 
BRANCH   7  14
ATOM     14  O   UNL     1       1.530   4.231  18.441  0.00  0.00    +0.000 OA
BRANCH  14  15
ATOM     15  C   UNL     1       1.440   2.965  19.088  0.00  0.00    +0.000 C 
BRANCH  15  17
ATOM     16  C   UNL     1       2.072   2.793  21.511  0.00  0.00    +0.000 C 
ATOM     17  C   UNL     1       0.985   3.189  20.526  0.00  0.00    +0.000 C 
ENDBRANCH  15  17
ENDBRANCH  14  15
ENDBRANCH   7  14
ENDBRANCH   1  13
BRANCH   3  18
ATOM     18  C   UNL     1       0.865   9.846  20.225  0.00  0.00    +0.000 C 
ATOM     19  O   UNL     1       0.800  10.247  21.380  0.00  0.00    +0.000 OA
ATOM     20  N   UNL     1       0.347  10.540  19.160  0.00  0.00    +0.000 N 
ATOM     21  H   UNL     1       0.407  10.149  18.232  0.00  0.00    +0.000 HD
BRANCH  20  22
ATOM     22  C   UNL     1      -0.320  11.812  19.305  0.00  0.00    +0.000 C 
BRANCH  22  23
ATOM     23  C   UNL     1       0.615  12.945  18.966  0.00  0.00    +0.000 A 
ATOM     24  C   UNL     1       0.190  14.272  19.116  0.00  0.00    +0.000 A 
ATOM     25  C   UNL     1       1.048  15.332  18.814  0.00  0.00    +0.000 A 
ATOM     26  C   UNL     1       2.347  15.086  18.346  0.00  0.00    +0.000 A 
ATOM     27  C   UNL     1       2.761  13.756  18.171  0.00  0.00    +0.000 A 
ATOM     28  C   UNL     1       1.903  12.695  18.474  0.00  0.00    +0.000 A 
BRANCH  26  29
ATOM     29  C   UNL     1       3.294  16.219  18.040  0.00  0.00    +0.000 C 
ATOM     30  F   UNL     1       4.607  15.855  18.062  0.00  0.00    +0.000 F 
ATOM     31  F   UNL     1       3.080  16.756  16.806  0.00  0.00    +0.000 F 
ATOM     32  F   UNL     1       3.179  17.251  18.921  0.00  0.00    +0.000 F 
ENDBRANCH  26  29
ENDBRANCH  22  23
ENDBRANCH  20  22
ENDBRANCH   3  18
TORSDOF 8
ENDMDL
MODEL 8
REMARK VINA RESULT:      -7.7      3.571      9.399
REMARK  Name = 
REMARK  9 active torsions:
REMARK  status: ('A' for Active; 'I' for Inactive)
REMARK    1  A    between atoms: C_1  and  C_2
REMARK    2  A    between atoms: C_2  and  C_3
REMARK    3  A    between atoms: C_3  and  O_4
REMARK    4  A    between atoms: O_4  and  C_5
REMARK    5  A    between atoms: C_11  and  C_12
REMARK    6  A    between atoms: C_14  and  C_15
REMARK    7  A    between atoms: N_17  and  C_18
REMARK    8  A    between atoms: C_18  and  C_19
REMARK    9  A    between atoms: C_22  and  C_23
REMARK                            x       y       z     vdW  Elec       q    Type
REMARK                         _______ _______ _______ _____ _____    ______ ____
ROOT
ATOM      1  C   UNL     1       1.748   8.203  19.699  0.00  0.00    +0.000 A 
ATOM      2  C   UNL     1       2.363   6.967  20.038  0.00  0.00    +0.000 A 
ATOM      3  C   UNL     1       3.100   6.579  18.941  0.00  0.00    +0.000 A 
ATOM      4  N   UNL     1       2.886   7.565  18.020  0.00  0.00    +0.000 N 
ATOM      5  N   UNL     1       2.066   8.545  18.439  0.00  0.00    +0.000 NA
ATOM      6  H   UNL     1       3.271   7.614  17.080  0.00  0.00    +0.000 HD
ENDROOT
BRANCH   1  13
ATOM      7  C   UNL     1      -0.050   9.963  19.967  0.00  0.00    +0.000 A 
ATOM      8  C   UNL     1      -0.824  10.768  20.818  0.00  0.00    +0.000 A 
ATOM      9  C   UNL     1      -0.741  10.620  22.202  0.00  0.00    +0.000 A 
ATOM     10  C   UNL     1       0.100   9.660  22.739  0.00  0.00    +0.000 A 
ATOM     11  F   UNL     1       0.170   9.517  24.069  0.00  0.00    +0.000 F 
ATOM     12  C   UNL     1       0.881   8.854  21.921  0.00  0.00    +0.000 A 
ATOM     13  C   UNL     1       0.836   9.009  20.523  0.00  0.00    +0.000 A 
BRANCH   7  14
ATOM     14  O   UNL     1      -0.115  10.042  18.597  0.00  0.00    +0.000 OA
BRANCH  14  15
ATOM     15  C   UNL     1      -1.051  10.949  18.022  0.00  0.00    +0.000 C 
BRANCH  15  17
ATOM     16  C   UNL     1      -3.181   9.669  17.670  0.00  0.00    +0.000 C 
ATOM     17  C   UNL     1      -1.910  10.185  17.019  0.00  0.00    +0.000 C 
ENDBRANCH  15  17
ENDBRANCH  14  15
ENDBRANCH   7  14
ENDBRANCH   1  13
BRANCH   3  18
ATOM     18  C   UNL     1       3.941   5.442  18.675  0.00  0.00    +0.000 C 
ATOM     19  O   UNL     1       3.524   4.292  18.751  0.00  0.00    +0.000 OA
ATOM     20  N   UNL     1       5.234   5.748  18.330  0.00  0.00    +0.000 N 
ATOM     21  H   UNL     1       5.529   6.712  18.307  0.00  0.00    +0.000 HD
BRANCH  20  22
ATOM     22  C   UNL     1       6.220   4.742  18.018  0.00  0.00    +0.000 C 
BRANCH  22  23
ATOM     23  C   UNL     1       6.263   4.479  16.534  0.00  0.00    +0.000 A 
ATOM     24  C   UNL     1       5.417   3.514  15.969  0.00  0.00    +0.000 A 
ATOM     25  C   UNL     1       5.440   3.266  14.595  0.00  0.00    +0.000 A 
ATOM     26  C   UNL     1       6.317   3.971  13.758  0.00  0.00    +0.000 A 
ATOM     27  C   UNL     1       7.182   4.918  14.330  0.00  0.00    +0.000 A 
ATOM     28  C   UNL     1       7.158   5.167  15.704  0.00  0.00    +0.000 A 
BRANCH  26  29
ATOM     29  C   UNL     1       6.335   3.732  12.269  0.00  0.00    +0.000 C 
ATOM     30  F   UNL     1       5.114   3.863  11.679  0.00  0.00    +0.000 F 
ATOM     31  F   UNL     1       7.156   4.600  11.614  0.00  0.00    +0.000 F 
ATOM     32  F   UNL     1       6.776   2.485  11.943  0.00  0.00    +0.000 F 
ENDBRANCH  26  29
ENDBRANCH  22  23
ENDBRANCH  20  22
ENDBRANCH   3  18
TORSDOF 8
ENDMDL
MODEL 9
REMARK VINA RESULT:      -7.7      3.067      3.891
REMARK  Name = 
REMARK  9 active torsions:
REMARK  status: ('A' for Active; 'I' for Inactive)
REMARK    1  A    between atoms: C_1  and  C_2
REMARK    2  A    between atoms: C_2  and  C_3
REMARK    3  A    between atoms: C_3  and  O_4
REMARK    4  A    between atoms: O_4  and  C_5
REMARK    5  A    between atoms: C_11  and  C_12
REMARK    6  A    between atoms: C_14  and  C_15
REMARK    7  A    between atoms: N_17  and  C_18
REMARK    8  A    between atoms: C_18  and  C_19
REMARK    9  A    between atoms: C_22  and  C_23
REMARK                            x       y       z     vdW  Elec       q    Type
REMARK                         _______ _______ _______ _____ _____    ______ ____
ROOT
ATOM      1  C   UNL     1       2.482   7.363  18.584  0.00  0.00    +0.000 A 
ATOM      2  C   UNL     1       1.963   8.533  17.964  0.00  0.00    +0.000 A 
ATOM      3  C   UNL     1       1.344   9.262  18.956  0.00  0.00    +0.000 A 
ATOM      4  N   UNL     1       1.505   8.509  20.084  0.00  0.00    +0.000 N 
ATOM      5  N   UNL     1       2.169   7.356  19.891  0.00  0.00    +0.000 NA
ATOM      6  H   UNL     1       1.170   8.734  21.018  0.00  0.00    +0.000 HD
ENDROOT
BRANCH   1  13
ATOM      7  C   UNL     1       2.733   4.917  17.986  0.00  0.00    +0.000 A 
ATOM      8  C   UNL     1       3.519   3.889  17.440  0.00  0.00    +0.000 A 
ATOM      9  C   UNL     1       4.744   4.177  16.841  0.00  0.00    +0.000 A 
ATOM     10  C   UNL     1       5.181   5.489  16.771  0.00  0.00    +0.000 A 
ATOM     11  F   UNL     1       6.357   5.761  16.188  0.00  0.00    +0.000 F 
ATOM     12  C   UNL     1       4.427   6.524  17.309  0.00  0.00    +0.000 A 
ATOM     13  C   UNL     1       3.202   6.252  17.945  0.00  0.00    +0.000 A 
BRANCH   7  14
ATOM     14  O   UNL     1       1.503   4.697  18.559  0.00  0.00    +0.000 OA
BRANCH  14  15
ATOM     15  C   UNL     1       1.283   3.452  19.215  0.00  0.00    +0.000 C 
BRANCH  15  17
ATOM     16  C   UNL     1       2.308   2.958  21.452  0.00  0.00    +0.000 C 
ATOM     17  C   UNL     1       1.208   3.704  20.717  0.00  0.00    +0.000 C 
ENDBRANCH  15  17
ENDBRANCH  14  15
ENDBRANCH   7  14
ENDBRANCH   1  13
BRANCH   3  18
ATOM     18  C   UNL     1       0.653  10.524  18.959  0.00  0.00    +0.000 C 
ATOM     19  O   UNL     1      -0.291  10.751  18.211  0.00  0.00    +0.000 OA
ATOM     20  N   UNL     1       1.131  11.441  19.862  0.00  0.00    +0.000 N 
ATOM     21  H   UNL     1       1.927  11.209  20.435  0.00  0.00    +0.000 HD
BRANCH  20  22
ATOM     22  C   UNL     1       0.560  12.757  20.018  0.00  0.00    +0.000 C 
BRANCH  22  23
ATOM     23  C   UNL     1      -0.571  12.733  21.014  0.00  0.00    +0.000 A 
ATOM     24  C   UNL     1      -1.588  13.696  20.943  0.00  0.00    +0.000 A 
ATOM     25  C   UNL     1      -2.646  13.681  21.855  0.00  0.00    +0.000 A 
ATOM     26  C   UNL     1      -2.705  12.708  22.862  0.00  0.00    +0.000 A 
ATOM     27  C   UNL     1      -1.672  11.760  22.947  0.00  0.00    +0.000 A 
ATOM     28  C   UNL     1      -0.614  11.775  22.035  0.00  0.00    +0.000 A 
BRANCH  26  29
ATOM     29  C   UNL     1      -3.855  12.662  23.838  0.00  0.00    +0.000 C 
ATOM     30  F   UNL     1      -3.879  13.714  24.704  0.00  0.00    +0.000 F 
ATOM     31  F   UNL     1      -5.066  12.668  23.214  0.00  0.00    +0.000 F 
ATOM     32  F   UNL     1      -3.840  11.541  24.612  0.00  0.00    +0.000 F 
ENDBRANCH  26  29
ENDBRANCH  22  23
ENDBRANCH  20  22
ENDBRANCH   3  18
TORSDOF 8
ENDMDL
