MODEL 1
REMARK VINA RESULT:      -5.9      0.000      0.000
REMARK  Name = 
REMARK  4 active torsions:
REMARK  status: ('A' for Active; 'I' for Inactive)
REMARK    1  A    between atoms: C_1  and  C_2
REMARK    2  A    between atoms: C_5  and  C_6
REMARK    3  A    between atoms: C_6  and  C_8
REMARK    4  A    between atoms: C_8  and  O_10
REMARK                            x       y       z     vdW  Elec       q    Type
REMARK                         _______ _______ _______ _____ _____    ______ ____
ROOT
ATOM      1  C   UNL     1       1.395   4.257  17.773  0.00  0.00    +0.000 C 
ATOM      2  C   UNL     1       2.880   4.442  17.867  0.00  0.00    +0.000 A 
ATOM      3  C   UNL     1       3.446   5.339  18.777  0.00  0.00    +0.000 A 
ATOM      4  C   UNL     1       4.835   5.500  18.839  0.00  0.00    +0.000 A 
ATOM      5  C   UNL     1       5.681   4.768  17.989  0.00  0.00    +0.000 A 
ATOM      6  C   UNL     1       5.111   3.871  17.084  0.00  0.00    +0.000 A 
ATOM      7  C   UNL     1       3.722   3.710  17.025  0.00  0.00    +0.000 A 
ENDROOT
BRANCH   5   8
ATOM      8  C   UNL     1       7.146   4.998  18.104  0.00  0.00    +0.000 C 
ATOM      9  O   UNL     1       7.930   4.598  17.241  0.00  0.00    +0.000 OA
BRANCH   8  10
ATOM     10  C   UNL     1       7.795   5.729  19.283  0.00  0.00    +0.000 C 
ATOM     11  O   UNL     1       7.866   5.325  20.424  0.00  0.00    +0.000 OA
BRANCH  10  12
ATOM     12  O   UNL     1       8.286   6.916  18.861  0.00  0.00    +0.000 OA
ATOM     13  H   UNL     1       9.235   6.973  19.128  0.00  0.00    +0.000 HD
ENDBRANCH  10  12
ENDBRANCH   8  10
ENDBRANCH   5   8
TORSDOF 3
ENDMDL
MODEL 2
REMARK VINA RESULT:      -5.7      2.025      2.984
REMARK  Name = 
REMARK  4 active torsions:
REMARK  status: ('A' for Active; 'I' for Inactive)
REMARK    1  A    between atoms: C_1  and  C_2
REMARK    2  A    between atoms: C_5  and  C_6
REMARK    3  A    between atoms: C_6  and  C_8
REMARK    4  A    between atoms: C_8  and  O_10
REMARK                            x       y       z     vdW  Elec       q    Type
REMARK                         _______ _______ _______ _____ _____    ______ ____
ROOT
ATOM      1  C   UNL     1       1.241   3.662  18.565  0.00  0.00    +0.000 C 
ATOM      2  C   UNL     1       2.497   4.267  18.013  0.00  0.00    +0.000 A 
ATOM      3  C   UNL     1       3.419   3.504  17.293  0.00  0.00    +0.000 A 
ATOM      4  C   UNL     1       4.589   4.091  16.797  0.00  0.00    +0.000 A 
ATOM      5  C   UNL     1       4.857   5.452  17.015  0.00  0.00    +0.000 A 
ATOM      6  C   UNL     1       3.930   6.213  17.733  0.00  0.00    +0.000 A 
ATOM      7  C   UNL     1       2.762   5.623  18.226  0.00  0.00    +0.000 A 
ENDROOT
BRANCH   5   8
ATOM      8  C   UNL     1       6.123   6.007  16.467  0.00  0.00    +0.000 C 
ATOM      9  O   UNL     1       6.485   7.158  16.718  0.00  0.00    +0.000 OA
BRANCH   8  10
ATOM     10  C   UNL     1       7.065   5.214  15.556  0.00  0.00    +0.000 C 
ATOM     11  O   UNL     1       7.052   5.208  14.344  0.00  0.00    +0.000 OA
BRANCH  10  12
ATOM     12  O   UNL     1       7.932   4.504  16.313  0.00  0.00    +0.000 OA
ATOM     13  H   UNL     1       7.413   3.913  16.911  0.00  0.00    +0.000 HD
ENDBRANCH  10  12
ENDBRANCH   8  10
ENDBRANCH   5   8
TORSDOF 3
ENDMDL
MODEL 3
REMARK VINA RESULT:      -5.6      1.669      2.375
REMARK  Name = 
REMARK  4 active torsions:
REMARK  status: ('A' for Active; 'I' for Inactive)
REMARK    1  A    between atoms: C_1  and  C_2
REMARK    2  A    between atoms: C_5  and  C_6
REMARK    3  A    between atoms: C_6  and  C_8
REMARK    4  A    between atoms: C_8  and  O_10
REMARK                            x       y       z     vdW  Elec       q    Type
REMARK                         _______ _______ _______ _____ _____    ______ ____
ROOT
ATOM      1  C   UNL     1       0.454   2.792  19.025  0.00  0.00    +0.000 C 
ATOM      2  C   UNL     1       1.734   3.353  18.479  0.00  0.00    +0.000 A 
ATOM      3  C   UNL     1       2.133   4.662  18.757  0.00  0.00    +0.000 A 
ATOM      4  C   UNL     1       3.327   5.165  18.227  0.00  0.00    +0.000 A 
ATOM      5  C   UNL     1       4.140   4.366  17.407  0.00  0.00    +0.000 A 
ATOM      6  C   UNL     1       3.738   3.056  17.134  0.00  0.00    +0.000 A 
ATOM      7  C   UNL     1       2.545   2.556  17.666  0.00  0.00    +0.000 A 
ENDROOT
BRANCH   5   8
ATOM      8  C   UNL     1       5.389   4.969  16.871  0.00  0.00    +0.000 C 
ATOM      9  O   UNL     1       5.361   5.885  16.047  0.00  0.00    +0.000 OA
BRANCH   8  10
ATOM     10  C   UNL     1       6.791   4.508  17.283  0.00  0.00    +0.000 C 
ATOM     11  O   UNL     1       7.786   4.536  16.590  0.00  0.00    +0.000 OA
BRANCH  10  12
ATOM     12  O   UNL     1       6.760   4.054  18.556  0.00  0.00    +0.000 OA
ATOM     13  H   UNL     1       6.684   3.069  18.534  0.00  0.00    +0.000 HD
ENDBRANCH  10  12
ENDBRANCH   8  10
ENDBRANCH   5   8
TORSDOF 3
ENDMDL
MODEL 4
REMARK VINA RESULT:      -5.6      2.024      2.662
REMARK  Name = 
REMARK  4 active torsions:
REMARK  status: ('A' for Active; 'I' for Inactive)
REMARK    1  A    between atoms: C_1  and  C_2
REMARK    2  A    between atoms: C_5  and  C_6
REMARK    3  A    between atoms: C_6  and  C_8
REMARK    4  A    between atoms: C_8  and  O_10
REMARK                            x       y       z     vdW  Elec       q    Type
REMARK                         _______ _______ _______ _____ _____    ______ ____
ROOT
ATOM      1  C   UNL     1       1.140   3.817  19.517  0.00  0.00    +0.000 C 
ATOM      2  C   UNL     1       2.278   4.274  18.655  0.00  0.00    +0.000 A 
ATOM      3  C   UNL     1       2.757   5.585  18.714  0.00  0.00    +0.000 A 
ATOM      4  C   UNL     1       3.815   5.990  17.892  0.00  0.00    +0.000 A 
ATOM      5  C   UNL     1       4.411   5.088  16.994  0.00  0.00    +0.000 A 
ATOM      6  C   UNL     1       3.931   3.777  16.941  0.00  0.00    +0.000 A 
ATOM      7  C   UNL     1       2.874   3.376  17.764  0.00  0.00    +0.000 A 
ENDROOT
BRANCH   5   8
ATOM      8  C   UNL     1       5.523   5.589  16.144  0.00  0.00    +0.000 C 
ATOM      9  O   UNL     1       5.408   6.614  15.469  0.00  0.00    +0.000 OA
BRANCH   8  10
ATOM     10  C   UNL     1       6.879   4.886  16.032  0.00  0.00    +0.000 C 
ATOM     11  O   UNL     1       7.583   4.842  15.046  0.00  0.00    +0.000 OA
BRANCH  10  12
ATOM     12  O   UNL     1       7.186   4.306  17.215  0.00  0.00    +0.000 OA
ATOM     13  H   UNL     1       6.552   4.637  17.897  0.00  0.00    +0.000 HD
ENDBRANCH  10  12
ENDBRANCH   8  10
ENDBRANCH   5   8
TORSDOF 3
ENDMDL
MODEL 5
REMARK VINA RESULT:      -5.6      2.306      2.940
REMARK  Name = 
REMARK  4 active torsions:
REMARK  status: ('A' for Active; 'I' for Inactive)
REMARK    1  A    between atoms: C_1  and  C_2
REMARK    2  A    between atoms: C_5  and  C_6
REMARK    3  A    between atoms: C_6  and  C_8
REMARK    4  A    between atoms: C_8  and  O_10
REMARK                            x       y       z     vdW  Elec       q    Type
REMARK                         _______ _______ _______ _____ _____    ______ ____
ROOT
ATOM      1  C   UNL     1       1.521   4.592  20.071  0.00  0.00    +0.000 C 
ATOM      2  C   UNL     1       2.556   4.797  19.005  0.00  0.00    +0.000 A 
ATOM      3  C   UNL     1       3.261   5.999  18.896  0.00  0.00    +0.000 A 
ATOM      4  C   UNL     1       4.215   6.169  17.886  0.00  0.00    +0.000 A 
ATOM      5  C   UNL     1       4.478   5.140  16.966  0.00  0.00    +0.000 A 
ATOM      6  C   UNL     1       3.772   3.940  17.081  0.00  0.00    +0.000 A 
ATOM      7  C   UNL     1       2.820   3.772  18.092  0.00  0.00    +0.000 A 
ENDROOT
BRANCH   5   8
ATOM      8  C   UNL     1       5.497   5.395  15.914  0.00  0.00    +0.000 C 
ATOM      9  O   UNL     1       5.434   6.383  15.180  0.00  0.00    +0.000 OA
BRANCH   8  10
ATOM     10  C   UNL     1       6.686   4.465  15.651  0.00  0.00    +0.000 C 
ATOM     11  O   UNL     1       7.768   4.515  16.197  0.00  0.00    +0.000 OA
BRANCH  10  12
ATOM     12  O   UNL     1       6.351   3.562  14.702  0.00  0.00    +0.000 OA
ATOM     13  H   UNL     1       6.166   2.699  15.146  0.00  0.00    +0.000 HD
ENDBRANCH  10  12
ENDBRANCH   8  10
ENDBRANCH   5   8
TORSDOF 3
ENDMDL
MODEL 6
REMARK VINA RESULT:      -5.6      1.810      2.844
REMARK  Name = 
REMARK  4 active torsions:
REMARK  status: ('A' for Active; 'I' for Inactive)
REMARK    1  A    between atoms: C_1  and  C_2
REMARK    2  A    between atoms: C_5  and  C_6
REMARK    3  A    between atoms: C_6  and  C_8
REMARK    4  A    between atoms: C_8  and  O_10
REMARK                            x       y       z     vdW  Elec       q    Type
REMARK                         _______ _______ _______ _____ _____    ______ ____
ROOT
ATOM      1  C   UNL     1       1.875   4.940  19.363  0.00  0.00    +0.000 C 
ATOM      2  C   UNL     1       3.166   4.820  18.609  0.00  0.00    +0.000 A 
ATOM      3  C   UNL     1       4.251   5.655  18.884  0.00  0.00    +0.000 A 
ATOM      4  C   UNL     1       5.442   5.529  18.159  0.00  0.00    +0.000 A 
ATOM      5  C   UNL     1       5.566   4.566  17.145  0.00  0.00    +0.000 A 
ATOM      6  C   UNL     1       4.479   3.731  16.875  0.00  0.00    +0.000 A 
ATOM      7  C   UNL     1       3.290   3.858  17.602  0.00  0.00    +0.000 A 
ENDROOT
BRANCH   5   8
ATOM      8  C   UNL     1       6.856   4.495  16.410  0.00  0.00    +0.000 C 
ATOM      9  O   UNL     1       7.930   4.368  17.002  0.00  0.00    +0.000 OA
BRANCH   8  10
ATOM     10  C   UNL     1       6.962   4.578  14.884  0.00  0.00    +0.000 C 
ATOM     11  O   UNL     1       6.431   3.834  14.088  0.00  0.00    +0.000 OA
BRANCH  10  12
ATOM     12  O   UNL     1       7.750   5.623  14.544  0.00  0.00    +0.000 OA
ATOM     13  H   UNL     1       8.565   5.592  15.101  0.00  0.00    +0.000 HD
ENDBRANCH  10  12
ENDBRANCH   8  10
ENDBRANCH   5   8
TORSDOF 3
ENDMDL
MODEL 7
REMARK VINA RESULT:      -5.6      2.004      2.928
REMARK  Name = 
REMARK  4 active torsions:
REMARK  status: ('A' for Active; 'I' for Inactive)
REMARK    1  A    between atoms: C_1  and  C_2
REMARK    2  A    between atoms: C_5  and  C_6
REMARK    3  A    between atoms: C_6  and  C_8
REMARK    4  A    between atoms: C_8  and  O_10
REMARK                            x       y       z     vdW  Elec       q    Type
REMARK                         _______ _______ _______ _____ _____    ______ ____
ROOT
ATOM      1  C   UNL     1       1.528   4.472  19.922  0.00  0.00    +0.000 C 
ATOM      2  C   UNL     1       2.558   4.853  18.900  0.00  0.00    +0.000 A 
ATOM      3  C   UNL     1       3.178   3.893  18.097  0.00  0.00    +0.000 A 
ATOM      4  C   UNL     1       4.143   4.274  17.157  0.00  0.00    +0.000 A 
ATOM      5  C   UNL     1       4.505   5.622  17.007  0.00  0.00    +0.000 A 
ATOM      6  C   UNL     1       3.881   6.579  17.810  0.00  0.00    +0.000 A 
ATOM      7  C   UNL     1       2.916   6.196  18.748  0.00  0.00    +0.000 A 
ENDROOT
BRANCH   5   8
ATOM      8  C   UNL     1       5.545   5.953  15.996  0.00  0.00    +0.000 C 
ATOM      9  O   UNL     1       5.313   6.722  15.061  0.00  0.00    +0.000 OA
BRANCH   8  10
ATOM     10  C   UNL     1       6.962   5.373  16.025  0.00  0.00    +0.000 C 
ATOM     11  O   UNL     1       7.552   4.973  17.005  0.00  0.00    +0.000 OA
BRANCH  10  12
ATOM     12  O   UNL     1       7.473   5.371  14.773  0.00  0.00    +0.000 OA
ATOM     13  H   UNL     1       8.459   5.367  14.839  0.00  0.00    +0.000 HD
ENDBRANCH  10  12
ENDBRANCH   8  10
ENDBRANCH   5   8
TORSDOF 3
ENDMDL
MODEL 8
REMARK VINA RESULT:      -5.6      1.206      1.965
REMARK  Name = 
REMARK  4 active torsions:
REMARK  status: ('A' for Active; 'I' for Inactive)
REMARK    1  A    between atoms: C_1  and  C_2
REMARK    2  A    between atoms: C_5  and  C_6
REMARK    3  A    between atoms: C_6  and  C_8
REMARK    4  A    between atoms: C_8  and  O_10
REMARK                            x       y       z     vdW  Elec       q    Type
REMARK                         _______ _______ _______ _____ _____    ______ ____
ROOT
ATOM      1  C   UNL     1       1.936   2.819  18.535  0.00  0.00    +0.000 C 
ATOM      2  C   UNL     1       3.277   3.430  18.255  0.00  0.00    +0.000 A 
ATOM      3  C   UNL     1       3.702   3.691  16.950  0.00  0.00    +0.000 A 
ATOM      4  C   UNL     1       4.962   4.252  16.716  0.00  0.00    +0.000 A 
ATOM      5  C   UNL     1       5.820   4.560  17.784  0.00  0.00    +0.000 A 
ATOM      6  C   UNL     1       5.391   4.300  19.087  0.00  0.00    +0.000 A 
ATOM      7  C   UNL     1       4.130   3.740  19.319  0.00  0.00    +0.000 A 
ENDROOT
BRANCH   5   8
ATOM      8  C   UNL     1       7.148   5.146  17.461  0.00  0.00    +0.000 C 
ATOM      9  O   UNL     1       8.027   4.484  16.905  0.00  0.00    +0.000 OA
BRANCH   8  10
ATOM     10  C   UNL     1       7.534   6.592  17.789  0.00  0.00    +0.000 C 
ATOM     11  O   UNL     1       7.298   7.567  17.109  0.00  0.00    +0.000 OA
BRANCH  10  12
ATOM     12  O   UNL     1       8.190   6.625  18.971  0.00  0.00    +0.000 OA
ATOM     13  H   UNL     1       9.008   7.167  18.858  0.00  0.00    +0.000 HD
ENDBRANCH  10  12
ENDBRANCH   8  10
ENDBRANCH   5   8
TORSDOF 3
ENDMDL
MODEL 9
REMARK VINA RESULT:      -5.6      1.412      2.413
REMARK  Name = 
REMARK  4 active torsions:
REMARK  status: ('A' for Active; 'I' for Inactive)
REMARK    1  A    between atoms: C_1  and  C_2
REMARK    2  A    between atoms: C_5  and  C_6
REMARK    3  A    between atoms: C_6  and  C_8
REMARK    4  A    between atoms: C_8  and  O_10
REMARK                            x       y       z     vdW  Elec       q    Type
REMARK                         _______ _______ _______ _____ _____    ______ ____
ROOT
ATOM      1  C   UNL     1       1.237   3.382  18.848  0.00  0.00    +0.000 C 
ATOM      2  C   UNL     1       2.646   3.775  18.517  0.00  0.00    +0.000 A 
ATOM      3  C   UNL     1       3.236   3.419  17.302  0.00  0.00    +0.000 A 
ATOM      4  C   UNL     1       4.557   3.790  17.022  0.00  0.00    +0.000 A 
ATOM      5  C   UNL     1       5.309   4.523  17.955  0.00  0.00    +0.000 A 
ATOM      6  C   UNL     1       4.714   4.879  19.167  0.00  0.00    +0.000 A 
ATOM      7  C   UNL     1       3.394   4.508  19.444  0.00  0.00    +0.000 A 
ENDROOT
BRANCH   5   8
ATOM      8  C   UNL     1       6.708   4.874  17.594  0.00  0.00    +0.000 C 
ATOM      9  O   UNL     1       7.668   4.430  18.228  0.00  0.00    +0.000 OA
BRANCH   8  10
ATOM     10  C   UNL     1       7.070   5.805  16.433  0.00  0.00    +0.000 C 
ATOM     11  O   UNL     1       7.526   5.469  15.361  0.00  0.00    +0.000 OA
BRANCH  10  12
ATOM     12  O   UNL     1       6.804   7.084  16.782  0.00  0.00    +0.000 OA
ATOM     13  H   UNL     1       5.833   7.238  16.684  0.00  0.00    +0.000 HD
ENDBRANCH  10  12
ENDBRANCH   8  10
ENDBRANCH   5   8
TORSDOF 3
ENDMDL
