MODEL 1
REMARK VINA RESULT:      -9.0      0.000      0.000
REMARK  Name = 
REMARK  6 active torsions:
REMARK  status: ('A' for Active; 'I' for Inactive)
REMARK    1  A    between atoms: C_1  and  C_2
REMARK    2  A    between atoms: C_4  and  C_5
REMARK    3  A    between atoms: C_10  and  C_12
REMARK    4  A    between atoms: C_17  and  O_18
REMARK    5  A    between atoms: O_18  and  C_19
REMARK    6  A    between atoms: C_26  and  C_27
REMARK                            x       y       z     vdW  Elec       q    Type
REMARK                         _______ _______ _______ _____ _____    ______ ____
ROOT
ATOM      1  C   UNL     1       1.014  10.008  20.073  0.00  0.00    +0.000 A 
ATOM      2  C   UNL     1       1.180  10.413  18.761  0.00  0.00    +0.000 A 
ATOM      3  S   UNL     1       1.901   9.147  17.848  0.00  0.00    +0.000 S 
ATOM      4  C   UNL     1       1.907   8.185  19.254  0.00  0.00    +0.000 A 
ATOM      5  N   UNL     1       2.333   6.884  19.071  0.00  0.00    +0.000 N 
ATOM      6  C   UNL     1       2.082   5.930  20.009  0.00  0.00    +0.000 C 
ATOM      7  O   UNL     1       1.469   6.104  21.065  0.00  0.00    +0.000 OA
ATOM      8  N   UNL     1       1.486   8.750  20.349  0.00  0.00    +0.000 NA
ATOM      9  H   UNL     1       2.683   6.650  18.159  0.00  0.00    +0.000 HD
ENDROOT
BRANCH   1  13
ATOM     10  C   UNL     1      -1.135  13.725  22.812  0.00  0.00    +0.000 C 
ATOM     11  C   UNL     1      -0.568  12.478  22.263  0.00  0.00    +0.000 A 
ATOM     12  C   UNL     1       0.145  12.174  21.124  0.00  0.00    +0.000 A 
ATOM     13  C   UNL     1       0.353  10.768  21.141  0.00  0.00    +0.000 A 
ATOM     14  C   UNL     1      -0.194  10.314  22.327  0.00  0.00    +0.000 A 
ATOM     15  C   UNL     1      -0.272   9.008  23.013  0.00  0.00    +0.000 C 
ATOM     16  O   UNL     1      -0.769  11.354  23.000  0.00  0.00    +0.000 OA
ENDBRANCH   1  13
BRANCH   6  17
ATOM     17  C   UNL     1       2.539   4.541  19.712  0.00  0.00    +0.000 A 
ATOM     18  C   UNL     1       1.559   3.530  19.772  0.00  0.00    +0.000 A 
ATOM     19  C   UNL     1       1.856   2.221  19.404  0.00  0.00    +0.000 A 
ATOM     20  C   UNL     1       3.121   1.951  18.969  0.00  0.00    +0.000 A 
ATOM     21  N   UNL     1       4.101   2.873  18.905  0.00  0.00    +0.000 NA
ATOM     22  C   UNL     1       3.818   4.146  19.292  0.00  0.00    +0.000 A 
BRANCH  22  23
ATOM     23  O   UNL     1       4.871   5.035  19.178  0.00  0.00    +0.000 OA
BRANCH  23  24
ATOM     24  C   UNL     1       5.508   5.119  17.952  0.00  0.00    +0.000 A 
ATOM     25  C   UNL     1       4.857   5.429  16.756  0.00  0.00    +0.000 A 
ATOM     26  C   UNL     1       5.532   5.337  15.539  0.00  0.00    +0.000 A 
ATOM     27  C   UNL     1       6.858   4.948  15.558  0.00  0.00    +0.000 A 
ATOM     28  N   UNL     1       7.545   4.692  16.693  0.00  0.00    +0.000 NA
ATOM     29  C   UNL     1       6.850   4.785  17.861  0.00  0.00    +0.000 A 
ENDBRANCH  23  24
ENDBRANCH  22  23
ENDBRANCH   6  17
TORSDOF 4
ENDMDL
MODEL 2
REMARK VINA RESULT:      -8.9      0.819      1.320
REMARK  Name = 
REMARK  6 active torsions:
REMARK  status: ('A' for Active; 'I' for Inactive)
REMARK    1  A    between atoms: C_1  and  C_2
REMARK    2  A    between atoms: C_4  and  C_5
REMARK    3  A    between atoms: C_10  and  C_12
REMARK    4  A    between atoms: C_17  and  O_18
REMARK    5  A    between atoms: O_18  and  C_19
REMARK    6  A    between atoms: C_26  and  C_27
REMARK                            x       y       z     vdW  Elec       q    Type
REMARK                         _______ _______ _______ _____ _____    ______ ____
ROOT
ATOM      1  C   UNL     1       1.266   9.842  19.646  0.00  0.00    +0.000 A 
ATOM      2  C   UNL     1       1.539  10.183  18.334  0.00  0.00    +0.000 A 
ATOM      3  S   UNL     1       2.262   8.851  17.524  0.00  0.00    +0.000 S 
ATOM      4  C   UNL     1       2.129   7.950  18.963  0.00  0.00    +0.000 A 
ATOM      5  N   UNL     1       2.509   6.625  18.861  0.00  0.00    +0.000 N 
ATOM      6  C   UNL     1       2.152   5.723  19.816  0.00  0.00    +0.000 C 
ATOM      7  O   UNL     1       1.476   5.967  20.819  0.00  0.00    +0.000 OA
ATOM      8  N   UNL     1       1.661   8.577  20.003  0.00  0.00    +0.000 NA
ATOM      9  H   UNL     1       2.909   6.339  17.985  0.00  0.00    +0.000 HD
ENDROOT
BRANCH   1  13
ATOM     10  C   UNL     1      -1.865  11.478  23.314  0.00  0.00    +0.000 C 
ATOM     11  C   UNL     1      -0.860  11.290  22.250  0.00  0.00    +0.000 A 
ATOM     12  C   UNL     1      -0.557  10.253  21.395  0.00  0.00    +0.000 A 
ATOM     13  C   UNL     1       0.569  10.672  20.634  0.00  0.00    +0.000 A 
ATOM     14  C   UNL     1       0.840  11.969  21.034  0.00  0.00    +0.000 A 
ATOM     15  C   UNL     1       1.801  13.012  20.623  0.00  0.00    +0.000 C 
ATOM     16  O   UNL     1      -0.021  12.336  22.029  0.00  0.00    +0.000 OA
ENDBRANCH   1  13
BRANCH   6  17
ATOM     17  C   UNL     1       2.565   4.305  19.605  0.00  0.00    +0.000 A 
ATOM     18  C   UNL     1       1.543   3.336  19.661  0.00  0.00    +0.000 A 
ATOM     19  C   UNL     1       1.803   2.001  19.367  0.00  0.00    +0.000 A 
ATOM     20  C   UNL     1       3.075   1.662  19.011  0.00  0.00    +0.000 A 
ATOM     21  N   UNL     1       4.095   2.541  18.956  0.00  0.00    +0.000 NA
ATOM     22  C   UNL     1       3.845   3.841  19.270  0.00  0.00    +0.000 A 
BRANCH  22  23
ATOM     23  O   UNL     1       4.939   4.682  19.170  0.00  0.00    +0.000 OA
BRANCH  23  24
ATOM     24  C   UNL     1       5.547   4.796  17.932  0.00  0.00    +0.000 A 
ATOM     25  C   UNL     1       4.849   4.926  16.729  0.00  0.00    +0.000 A 
ATOM     26  C   UNL     1       5.524   4.873  15.510  0.00  0.00    +0.000 A 
ATOM     27  C   UNL     1       6.896   4.707  15.532  0.00  0.00    +0.000 A 
ATOM     28  N   UNL     1       7.621   4.633  16.670  0.00  0.00    +0.000 NA
ATOM     29  C   UNL     1       6.925   4.681  17.840  0.00  0.00    +0.000 A 
ENDBRANCH  23  24
ENDBRANCH  22  23
ENDBRANCH   6  17
TORSDOF 4
ENDMDL
MODEL 3
REMARK VINA RESULT:      -8.8      1.105      1.309
REMARK  Name = 
REMARK  6 active torsions:
REMARK  status: ('A' for Active; 'I' for Inactive)
REMARK    1  A    between atoms: C_1  and  C_2
REMARK    2  A    between atoms: C_4  and  C_5
REMARK    3  A    between atoms: C_10  and  C_12
REMARK    4  A    between atoms: C_17  and  O_18
REMARK    5  A    between atoms: O_18  and  C_19
REMARK    6  A    between atoms: C_26  and  C_27
REMARK                            x       y       z     vdW  Elec       q    Type
REMARK                         _______ _______ _______ _____ _____    ______ ____
ROOT
ATOM      1  C   UNL     1       0.937  10.257  20.118  0.00  0.00    +0.000 A 
ATOM      2  C   UNL     1       1.067  10.705  18.817  0.00  0.00    +0.000 A 
ATOM      3  S   UNL     1       1.758   9.470  17.841  0.00  0.00    +0.000 S 
ATOM      4  C   UNL     1       1.802   8.461  19.213  0.00  0.00    +0.000 A 
ATOM      5  N   UNL     1       2.221   7.167  18.974  0.00  0.00    +0.000 N 
ATOM      6  C   UNL     1       1.994   6.182  19.886  0.00  0.00    +0.000 C 
ATOM      7  O   UNL     1       1.412   6.321  20.964  0.00  0.00    +0.000 OA
ATOM      8  N   UNL     1       1.414   8.989  20.338  0.00  0.00    +0.000 NA
ATOM      9  H   UNL     1       2.544   6.963  18.045  0.00  0.00    +0.000 HD
ENDROOT
BRANCH   1  13
ATOM     10  C   UNL     1      -1.156  13.873  23.030  0.00  0.00    +0.000 C 
ATOM     11  C   UNL     1      -0.592  12.649  22.428  0.00  0.00    +0.000 A 
ATOM     12  C   UNL     1       0.078  12.383  21.254  0.00  0.00    +0.000 A 
ATOM     13  C   UNL     1       0.309  10.981  21.229  0.00  0.00    +0.000 A 
ATOM     14  C   UNL     1      -0.182  10.490  22.426  0.00  0.00    +0.000 A 
ATOM     15  C   UNL     1      -0.211   9.168  23.083  0.00  0.00    +0.000 C 
ATOM     16  O   UNL     1      -0.745  11.505  23.146  0.00  0.00    +0.000 OA
ENDBRANCH   1  13
BRANCH   6  17
ATOM     17  C   UNL     1       2.439   4.803  19.529  0.00  0.00    +0.000 A 
ATOM     18  C   UNL     1       1.827   3.743  20.227  0.00  0.00    +0.000 A 
ATOM     19  C   UNL     1       2.088   2.418  19.891  0.00  0.00    +0.000 A 
ATOM     20  C   UNL     1       2.944   2.178  18.857  0.00  0.00    +0.000 A 
ATOM     21  N   UNL     1       3.570   3.150  18.165  0.00  0.00    +0.000 NA
ATOM     22  C   UNL     1       3.336   4.444  18.511  0.00  0.00    +0.000 A 
BRANCH  22  23
ATOM     23  O   UNL     1       4.000   5.380  17.741  0.00  0.00    +0.000 OA
BRANCH  23  24
ATOM     24  C   UNL     1       5.275   5.746  18.135  0.00  0.00    +0.000 A 
ATOM     25  C   UNL     1       6.125   6.553  17.375  0.00  0.00    +0.000 A 
ATOM     26  C   UNL     1       7.451   6.745  17.761  0.00  0.00    +0.000 A 
ATOM     27  C   UNL     1       7.887   6.131  18.920  0.00  0.00    +0.000 A 
ATOM     28  N   UNL     1       7.088   5.389  19.718  0.00  0.00    +0.000 NA
ATOM     29  C   UNL     1       5.802   5.217  19.303  0.00  0.00    +0.000 A 
ENDBRANCH  23  24
ENDBRANCH  22  23
ENDBRANCH   6  17
TORSDOF 4
ENDMDL
MODEL 4
REMARK VINA RESULT:      -8.7      1.094      1.427
REMARK  Name = 
REMARK  6 active torsions:
REMARK  status: ('A' for Active; 'I' for Inactive)
REMARK    1  A    between atoms: C_1  and  C_2
REMARK    2  A    between atoms: C_4  and  C_5
REMARK    3  A    between atoms: C_10  and  C_12
REMARK    4  A    between atoms: C_17  and  O_18
REMARK    5  A    between atoms: O_18  and  C_19
REMARK    6  A    between atoms: C_26  and  C_27
REMARK                            x       y       z     vdW  Elec       q    Type
REMARK                         _______ _______ _______ _____ _____    ______ ____
ROOT
ATOM      1  C   UNL     1       0.942   9.830  19.395  0.00  0.00    +0.000 A 
ATOM      2  C   UNL     1       1.401  10.148  18.130  0.00  0.00    +0.000 A 
ATOM      3  S   UNL     1       2.452   8.911  17.565  0.00  0.00    +0.000 S 
ATOM      4  C   UNL     1       2.188   8.070  19.022  0.00  0.00    +0.000 A 
ATOM      5  N   UNL     1       2.772   6.820  19.091  0.00  0.00    +0.000 N 
ATOM      6  C   UNL     1       2.381   5.919  20.033  0.00  0.00    +0.000 C 
ATOM      7  O   UNL     1       1.502   6.100  20.879  0.00  0.00    +0.000 OA
ATOM      8  N   UNL     1       1.446   8.664  19.912  0.00  0.00    +0.000 NA
ATOM      9  H   UNL     1       3.367   6.559  18.324  0.00  0.00    +0.000 HD
ENDROOT
BRANCH   1  13
ATOM     10  C   UNL     1      -1.456  12.313  23.140  0.00  0.00    +0.000 C 
ATOM     11  C   UNL     1      -1.012  11.653  21.897  0.00  0.00    +0.000 A 
ATOM     12  C   UNL     1       0.070  10.866  21.567  0.00  0.00    +0.000 A 
ATOM     13  C   UNL     1      -0.043  10.586  20.178  0.00  0.00    +0.000 A 
ATOM     14  C   UNL     1      -1.226  11.171  19.764  0.00  0.00    +0.000 A 
ATOM     15  C   UNL     1      -1.985  11.217  18.498  0.00  0.00    +0.000 C 
ATOM     16  O   UNL     1      -1.805  11.834  20.809  0.00  0.00    +0.000 OA
ENDBRANCH   1  13
BRANCH   6  17
ATOM     17  C   UNL     1       3.032   4.577  20.008  0.00  0.00    +0.000 A 
ATOM     18  C   UNL     1       2.226   3.480  20.373  0.00  0.00    +0.000 A 
ATOM     19  C   UNL     1       2.703   2.176  20.274  0.00  0.00    +0.000 A 
ATOM     20  C   UNL     1       3.969   1.993  19.801  0.00  0.00    +0.000 A 
ATOM     21  N   UNL     1       4.789   3.003  19.453  0.00  0.00    +0.000 NA
ATOM     22  C   UNL     1       4.332   4.279  19.575  0.00  0.00    +0.000 A 
BRANCH  22  23
ATOM     23  O   UNL     1       5.227   5.256  19.179  0.00  0.00    +0.000 OA
BRANCH  23  24
ATOM     24  C   UNL     1       5.773   5.148  17.912  0.00  0.00    +0.000 A 
ATOM     25  C   UNL     1       5.025   5.198  16.734  0.00  0.00    +0.000 A 
ATOM     26  C   UNL     1       5.622   4.920  15.505  0.00  0.00    +0.000 A 
ATOM     27  C   UNL     1       6.969   4.613  15.490  0.00  0.00    +0.000 A 
ATOM     28  N   UNL     1       7.746   4.608  16.595  0.00  0.00    +0.000 NA
ATOM     29  C   UNL     1       7.126   4.876  17.777  0.00  0.00    +0.000 A 
ENDBRANCH  23  24
ENDBRANCH  22  23
ENDBRANCH   6  17
TORSDOF 4
ENDMDL
MODEL 5
REMARK VINA RESULT:      -8.7      2.197      2.914
REMARK  Name = 
REMARK  6 active torsions:
REMARK  status: ('A' for Active; 'I' for Inactive)
REMARK    1  A    between atoms: C_1  and  C_2
REMARK    2  A    between atoms: C_4  and  C_5
REMARK    3  A    between atoms: C_10  and  C_12
REMARK    4  A    between atoms: C_17  and  O_18
REMARK    5  A    between atoms: O_18  and  C_19
REMARK    6  A    between atoms: C_26  and  C_27
REMARK                            x       y       z     vdW  Elec       q    Type
REMARK                         _______ _______ _______ _____ _____    ______ ____
ROOT
ATOM      1  C   UNL     1       0.190   9.865  20.059  0.00  0.00    +0.000 A 
ATOM      2  C   UNL     1       0.486  10.294  21.340  0.00  0.00    +0.000 A 
ATOM      3  S   UNL     1       1.410   9.096  22.157  0.00  0.00    +0.000 S 
ATOM      4  C   UNL     1       1.351   8.142  20.748  0.00  0.00    +0.000 A 
ATOM      5  N   UNL     1       2.091   6.977  20.799  0.00  0.00    +0.000 N 
ATOM      6  C   UNL     1       2.400   6.297  19.660  0.00  0.00    +0.000 C 
ATOM      7  O   UNL     1       2.083   6.630  18.516  0.00  0.00    +0.000 OA
ATOM      8  N   UNL     1       0.646   8.608  19.756  0.00  0.00    +0.000 NA
ATOM      9  H   UNL     1       2.518   6.754  21.680  0.00  0.00    +0.000 HD
ENDROOT
BRANCH   1  13
ATOM     10  C   UNL     1      -2.797  11.245  16.172  0.00  0.00    +0.000 C 
ATOM     11  C   UNL     1      -1.848  11.136  17.297  0.00  0.00    +0.000 A 
ATOM     12  C   UNL     1      -1.338  10.078  18.017  0.00  0.00    +0.000 A 
ATOM     13  C   UNL     1      -0.502  10.638  19.021  0.00  0.00    +0.000 A 
ATOM     14  C   UNL     1      -0.508  12.005  18.806  0.00  0.00    +0.000 A 
ATOM     15  C   UNL     1       0.179  13.163  19.412  0.00  0.00    +0.000 C 
ATOM     16  O   UNL     1      -1.340  12.306  17.766  0.00  0.00    +0.000 OA
ENDBRANCH   1  13
BRANCH   6  17
ATOM     17  C   UNL     1       3.241   5.072  19.801  0.00  0.00    +0.000 A 
ATOM     18  C   UNL     1       2.644   3.969  20.443  0.00  0.00    +0.000 A 
ATOM     19  C   UNL     1       3.301   2.745  20.525  0.00  0.00    +0.000 A 
ATOM     20  C   UNL     1       4.535   2.644  19.952  0.00  0.00    +0.000 A 
ATOM     21  N   UNL     1       5.160   3.668  19.339  0.00  0.00    +0.000 NA
ATOM     22  C   UNL     1       4.529   4.871  19.284  0.00  0.00    +0.000 A 
BRANCH  22  23
ATOM     23  O   UNL     1       5.228   5.863  18.621  0.00  0.00    +0.000 OA
BRANCH  23  24
ATOM     24  C   UNL     1       5.645   5.599  17.328  0.00  0.00    +0.000 A 
ATOM     25  C   UNL     1       4.876   4.911  16.388  0.00  0.00    +0.000 A 
ATOM     26  C   UNL     1       5.424   4.541  15.160  0.00  0.00    +0.000 A 
ATOM     27  C   UNL     1       6.736   4.891  14.901  0.00  0.00    +0.000 A 
ATOM     28  N   UNL     1       7.501   5.604  15.756  0.00  0.00    +0.000 NA
ATOM     29  C   UNL     1       6.933   5.940  16.947  0.00  0.00    +0.000 A 
ENDBRANCH  23  24
ENDBRANCH  22  23
ENDBRANCH   6  17
TORSDOF 4
ENDMDL
MODEL 6
REMARK VINA RESULT:      -8.6      2.152      2.697
REMARK  Name = 
REMARK  6 active torsions:
REMARK  status: ('A' for Active; 'I' for Inactive)
REMARK    1  A    between atoms: C_1  and  C_2
REMARK    2  A    between atoms: C_4  and  C_5
REMARK    3  A    between atoms: C_10  and  C_12
REMARK    4  A    between atoms: C_17  and  O_18
REMARK    5  A    between atoms: O_18  and  C_19
REMARK    6  A    between atoms: C_26  and  C_27
REMARK                            x       y       z     vdW  Elec       q    Type
REMARK                         _______ _______ _______ _____ _____    ______ ____
ROOT
ATOM      1  C   UNL     1       0.761  10.676  20.536  0.00  0.00    +0.000 A 
ATOM      2  C   UNL     1       0.357  10.664  21.858  0.00  0.00    +0.000 A 
ATOM      3  S   UNL     1       0.461   9.066  22.485  0.00  0.00    +0.000 S 
ATOM      4  C   UNL     1       1.044   8.549  20.970  0.00  0.00    +0.000 A 
ATOM      5  N   UNL     1       1.430   7.224  20.913  0.00  0.00    +0.000 N 
ATOM      6  C   UNL     1       2.206   6.768  19.892  0.00  0.00    +0.000 C 
ATOM      7  O   UNL     1       2.641   7.448  18.960  0.00  0.00    +0.000 OA
ATOM      8  N   UNL     1       1.099   9.447  20.028  0.00  0.00    +0.000 NA
ATOM      9  H   UNL     1       1.250   6.668  21.730  0.00  0.00    +0.000 HD
ENDROOT
BRANCH   1  13
ATOM     10  C   UNL     1       2.570  14.808  18.171  0.00  0.00    +0.000 C 
ATOM     11  C   UNL     1       1.794  13.670  18.700  0.00  0.00    +0.000 A 
ATOM     12  C   UNL     1       2.016  12.742  19.694  0.00  0.00    +0.000 A 
ATOM     13  C   UNL     1       0.901  11.860  19.680  0.00  0.00    +0.000 A 
ATOM     14  C   UNL     1       0.038  12.348  18.715  0.00  0.00    +0.000 A 
ATOM     15  C   UNL     1      -1.307  11.980  18.230  0.00  0.00    +0.000 C 
ATOM     16  O   UNL     1       0.591  13.440  18.109  0.00  0.00    +0.000 OA
ENDBRANCH   1  13
BRANCH   6  17
ATOM     17  C   UNL     1       2.615   5.333  19.931  0.00  0.00    +0.000 A 
ATOM     18  C   UNL     1       1.600   4.397  20.211  0.00  0.00    +0.000 A 
ATOM     19  C   UNL     1       1.851   3.030  20.160  0.00  0.00    +0.000 A 
ATOM     20  C   UNL     1       3.108   2.624  19.816  0.00  0.00    +0.000 A 
ATOM     21  N   UNL     1       4.120   3.473  19.553  0.00  0.00    +0.000 NA
ATOM     22  C   UNL     1       3.881   4.809  19.631  0.00  0.00    +0.000 A 
BRANCH  22  23
ATOM     23  O   UNL     1       4.966   5.612  19.327  0.00  0.00    +0.000 OA
BRANCH  23  24
ATOM     24  C   UNL     1       5.553   5.451  18.085  0.00  0.00    +0.000 A 
ATOM     25  C   UNL     1       4.878   5.633  16.875  0.00  0.00    +0.000 A 
ATOM     26  C   UNL     1       5.489   5.297  15.667  0.00  0.00    +0.000 A 
ATOM     27  C   UNL     1       6.778   4.799  15.706  0.00  0.00    +0.000 A 
ATOM     28  N   UNL     1       7.490   4.658  16.845  0.00  0.00    +0.000 NA
ATOM     29  C   UNL     1       6.857   4.990  18.005  0.00  0.00    +0.000 A 
ENDBRANCH  23  24
ENDBRANCH  22  23
ENDBRANCH   6  17
TORSDOF 4
ENDMDL
MODEL 7
REMARK VINA RESULT:      -8.4      3.022      8.789
REMARK  Name = 
REMARK  6 active torsions:
REMARK  status: ('A' for Active; 'I' for Inactive)
REMARK    1  A    between atoms: C_1  and  C_2
REMARK    2  A    between atoms: C_4  and  C_5
REMARK    3  A    between atoms: C_10  and  C_12
REMARK    4  A    between atoms: C_17  and  O_18
REMARK    5  A    between atoms: O_18  and  C_19
REMARK    6  A    between atoms: C_26  and  C_27
REMARK                            x       y       z     vdW  Elec       q    Type
REMARK                         _______ _______ _______ _____ _____    ______ ____
ROOT
ATOM      1  C   UNL     1       4.290   6.078  18.021  0.00  0.00    +0.000 A 
ATOM      2  C   UNL     1       3.838   5.188  18.977  0.00  0.00    +0.000 A 
ATOM      3  S   UNL     1       2.529   5.882  19.849  0.00  0.00    +0.000 S 
ATOM      4  C   UNL     1       2.667   7.273  18.876  0.00  0.00    +0.000 A 
ATOM      5  N   UNL     1       1.697   8.234  19.088  0.00  0.00    +0.000 N 
ATOM      6  C   UNL     1       1.488   9.225  18.178  0.00  0.00    +0.000 C 
ATOM      7  O   UNL     1       2.096   9.365  17.115  0.00  0.00    +0.000 OA
ATOM      8  N   UNL     1       3.643   7.288  18.014  0.00  0.00    +0.000 NA
ATOM      9  H   UNL     1       1.060   8.070  19.848  0.00  0.00    +0.000 HD
ENDROOT
BRANCH   1  13
ATOM     10  C   UNL     1       6.799   4.522  13.872  0.00  0.00    +0.000 C 
ATOM     11  C   UNL     1       6.340   5.086  15.156  0.00  0.00    +0.000 A 
ATOM     12  C   UNL     1       5.166   5.001  15.871  0.00  0.00    +0.000 A 
ATOM     13  C   UNL     1       5.330   5.825  17.018  0.00  0.00    +0.000 A 
ATOM     14  C   UNL     1       6.625   6.310  16.959  0.00  0.00    +0.000 A 
ATOM     15  C   UNL     1       7.471   7.145  17.835  0.00  0.00    +0.000 C 
ATOM     16  O   UNL     1       7.231   5.872  15.816  0.00  0.00    +0.000 OA
ENDBRANCH   1  13
BRANCH   6  17
ATOM     17  C   UNL     1       0.390  10.195  18.464  0.00  0.00    +0.000 A 
ATOM     18  C   UNL     1      -0.868   9.906  17.900  0.00  0.00    +0.000 A 
ATOM     19  C   UNL     1      -1.983  10.685  18.197  0.00  0.00    +0.000 A 
ATOM     20  C   UNL     1      -1.821  11.728  19.062  0.00  0.00    +0.000 A 
ATOM     21  N   UNL     1      -0.640  12.060  19.618  0.00  0.00    +0.000 NA
ATOM     22  C   UNL     1       0.454  11.315  19.306  0.00  0.00    +0.000 A 
BRANCH  22  23
ATOM     23  O   UNL     1       1.622  11.709  19.934  0.00  0.00    +0.000 OA
BRANCH  23  24
ATOM     24  C   UNL     1       2.139  12.949  19.604  0.00  0.00    +0.000 A 
ATOM     25  C   UNL     1       2.499  13.324  18.308  0.00  0.00    +0.000 A 
ATOM     26  C   UNL     1       3.162  14.529  18.078  0.00  0.00    +0.000 A 
ATOM     27  C   UNL     1       3.435  15.339  19.164  0.00  0.00    +0.000 A 
ATOM     28  N   UNL     1       3.059  15.045  20.427  0.00  0.00    +0.000 NA
ATOM     29  C   UNL     1       2.420  13.857  20.613  0.00  0.00    +0.000 A 
ENDBRANCH  23  24
ENDBRANCH  22  23
ENDBRANCH   6  17
TORSDOF 4
ENDMDL
MODEL 8
REMARK VINA RESULT:      -8.3      2.230      4.170
REMARK  Name = 
REMARK  6 active torsions:
REMARK  status: ('A' for Active; 'I' for Inactive)
REMARK    1  A    between atoms: C_1  and  C_2
REMARK    2  A    between atoms: C_4  and  C_5
REMARK    3  A    between atoms: C_10  and  C_12
REMARK    4  A    between atoms: C_17  and  O_18
REMARK    5  A    between atoms: O_18  and  C_19
REMARK    6  A    between atoms: C_26  and  C_27
REMARK                            x       y       z     vdW  Elec       q    Type
REMARK                         _______ _______ _______ _____ _____    ______ ____
ROOT
ATOM      1  C   UNL     1       0.603   9.882  19.721  0.00  0.00    +0.000 A 
ATOM      2  C   UNL     1       0.556   9.408  21.019  0.00  0.00    +0.000 A 
ATOM      3  S   UNL     1       1.444   7.940  21.136  0.00  0.00    +0.000 S 
ATOM      4  C   UNL     1       1.821   8.079  19.481  0.00  0.00    +0.000 A 
ATOM      5  N   UNL     1       2.689   7.120  18.996  0.00  0.00    +0.000 N 
ATOM      6  C   UNL     1       3.326   7.295  17.806  0.00  0.00    +0.000 C 
ATOM      7  O   UNL     1       3.218   8.279  17.070  0.00  0.00    +0.000 OA
ATOM      8  N   UNL     1       1.286   9.080  18.843  0.00  0.00    +0.000 NA
ATOM      9  H   UNL     1       2.946   6.384  19.630  0.00  0.00    +0.000 HD
ENDROOT
BRANCH   1  13
ATOM     10  C   UNL     1      -0.167  14.820  18.741  0.00  0.00    +0.000 C 
ATOM     11  C   UNL     1      -0.201  13.350  18.871  0.00  0.00    +0.000 A 
ATOM     12  C   UNL     1       0.543  12.437  19.586  0.00  0.00    +0.000 A 
ATOM     13  C   UNL     1       0.047  11.151  19.238  0.00  0.00    +0.000 A 
ATOM     14  C   UNL     1      -1.014  11.369  18.378  0.00  0.00    +0.000 A 
ATOM     15  C   UNL     1      -2.007  10.511  17.701  0.00  0.00    +0.000 C 
ATOM     16  O   UNL     1      -1.152  12.708  18.143  0.00  0.00    +0.000 OA
ENDBRANCH   1  13
BRANCH   6  17
ATOM     17  C   UNL     1       4.281   6.232  17.378  0.00  0.00    +0.000 A 
ATOM     18  C   UNL     1       5.610   6.636  17.143  0.00  0.00    +0.000 A 
ATOM     19  C   UNL     1       6.602   5.705  16.850  0.00  0.00    +0.000 A 
ATOM     20  C   UNL     1       6.250   4.387  16.811  0.00  0.00    +0.000 A 
ATOM     21  N   UNL     1       4.994   3.945  17.012  0.00  0.00    +0.000 NA
ATOM     22  C   UNL     1       4.019   4.858  17.271  0.00  0.00    +0.000 A 
BRANCH  22  23
ATOM     23  O   UNL     1       2.763   4.321  17.485  0.00  0.00    +0.000 OA
BRANCH  23  24
ATOM     24  C   UNL     1       2.502   3.778  18.731  0.00  0.00    +0.000 A 
ATOM     25  C   UNL     1       1.301   3.956  19.422  0.00  0.00    +0.000 A 
ATOM     26  C   UNL     1       1.172   3.515  20.739  0.00  0.00    +0.000 A 
ATOM     27  C   UNL     1       2.255   2.889  21.326  0.00  0.00    +0.000 A 
ATOM     28  N   UNL     1       3.416   2.645  20.680  0.00  0.00    +0.000 NA
ATOM     29  C   UNL     1       3.507   3.097  19.399  0.00  0.00    +0.000 A 
ENDBRANCH  23  24
ENDBRANCH  22  23
ENDBRANCH   6  17
TORSDOF 4
ENDMDL
MODEL 9
REMARK VINA RESULT:      -8.3      1.393      1.792
REMARK  Name = 
REMARK  6 active torsions:
REMARK  status: ('A' for Active; 'I' for Inactive)
REMARK    1  A    between atoms: C_1  and  C_2
REMARK    2  A    between atoms: C_4  and  C_5
REMARK    3  A    between atoms: C_10  and  C_12
REMARK    4  A    between atoms: C_17  and  O_18
REMARK    5  A    between atoms: O_18  and  C_19
REMARK    6  A    between atoms: C_26  and  C_27
REMARK                            x       y       z     vdW  Elec       q    Type
REMARK                         _______ _______ _______ _____ _____    ______ ____
ROOT
ATOM      1  C   UNL     1       0.671  10.125  19.592  0.00  0.00    +0.000 A 
ATOM      2  C   UNL     1       1.197  10.396  18.342  0.00  0.00    +0.000 A 
ATOM      3  S   UNL     1       2.211   9.101  17.843  0.00  0.00    +0.000 S 
ATOM      4  C   UNL     1       1.847   8.302  19.302  0.00  0.00    +0.000 A 
ATOM      5  N   UNL     1       2.368   7.027  19.417  0.00  0.00    +0.000 N 
ATOM      6  C   UNL     1       1.896   6.164  20.358  0.00  0.00    +0.000 C 
ATOM      7  O   UNL     1       0.992   6.402  21.163  0.00  0.00    +0.000 OA
ATOM      8  N   UNL     1       1.098   8.947  20.150  0.00  0.00    +0.000 NA
ATOM      9  H   UNL     1       2.981   6.724  18.681  0.00  0.00    +0.000 HD
ENDROOT
BRANCH   1  13
ATOM     10  C   UNL     1      -1.832  12.667  23.227  0.00  0.00    +0.000 C 
ATOM     11  C   UNL     1      -1.333  12.022  21.996  0.00  0.00    +0.000 A 
ATOM     12  C   UNL     1      -0.306  11.145  21.727  0.00  0.00    +0.000 A 
ATOM     13  C   UNL     1      -0.308  10.941  20.320  0.00  0.00    +0.000 A 
ATOM     14  C   UNL     1      -1.382  11.662  19.829  0.00  0.00    +0.000 A 
ATOM     15  C   UNL     1      -2.004  11.842  18.502  0.00  0.00    +0.000 C 
ATOM     16  O   UNL     1      -1.994  12.332  20.850  0.00  0.00    +0.000 OA
ENDBRANCH   1  13
BRANCH   6  17
ATOM     17  C   UNL     1       2.483   4.792  20.384  0.00  0.00    +0.000 A 
ATOM     18  C   UNL     1       2.098   3.963  21.456  0.00  0.00    +0.000 A 
ATOM     19  C   UNL     1       2.498   2.632  21.513  0.00  0.00    +0.000 A 
ATOM     20  C   UNL     1       3.263   2.151  20.490  0.00  0.00    +0.000 A 
ATOM     21  N   UNL     1       3.674   2.901  19.449  0.00  0.00    +0.000 NA
ATOM     22  C   UNL     1       3.305   4.209  19.409  0.00  0.00    +0.000 A 
BRANCH  22  23
ATOM     23  O   UNL     1       3.749   4.903  18.298  0.00  0.00    +0.000 OA
BRANCH  23  24
ATOM     24  C   UNL     1       5.113   4.933  18.065  0.00  0.00    +0.000 A 
ATOM     25  C   UNL     1       5.705   4.568  16.854  0.00  0.00    +0.000 A 
ATOM     26  C   UNL     1       7.091   4.468  16.746  0.00  0.00    +0.000 A 
ATOM     27  C   UNL     1       7.854   4.756  17.862  0.00  0.00    +0.000 A 
ATOM     28  N   UNL     1       7.331   5.167  19.037  0.00  0.00    +0.000 NA
ATOM     29  C   UNL     1       5.973   5.245  19.106  0.00  0.00    +0.000 A 
ENDBRANCH  23  24
ENDBRANCH  22  23
ENDBRANCH   6  17
TORSDOF 4
ENDMDL
