MODEL 1
REMARK VINA RESULT:      -7.8      0.000      0.000
REMARK  Name = 
REMARK  6 active torsions:
REMARK  status: ('A' for Active; 'I' for Inactive)
REMARK    1  A    between atoms: C_1  and  C_2
REMARK    2  A    between atoms: C_4  and  C_5
REMARK    3  A    between atoms: C_8  and  C_9
REMARK    4  A    between atoms: C_12  and  C_13
REMARK    5  A    between atoms: C_14  and  C_15
REMARK    6  A    between atoms: C_18  and  C_19
REMARK                            x       y       z     vdW  Elec       q    Type
REMARK                         _______ _______ _______ _____ _____    ______ ____
ROOT
ATOM      1  C   UNL     1       2.451   7.099  18.736  0.00  0.00    +0.000 A 
ATOM      2  C   UNL     1       2.109   8.251  18.026  0.00  0.00    +0.000 A 
ATOM      3  C   UNL     1       1.451   9.297  18.678  0.00  0.00    +0.000 A 
ATOM      4  C   UNL     1       1.133   9.178  20.028  0.00  0.00    +0.000 A 
ATOM      5  C   UNL     1       1.454   7.982  20.651  0.00  0.00    +0.000 A 
ATOM      6  N   UNL     1       2.096   6.948  20.038  0.00  0.00    +0.000 NA
ENDROOT
BRANCH   1  12
ATOM      7  C   UNL     1       3.118   2.193  17.765  0.00  0.00    +0.000 C 
ATOM      8  C   UNL     1       3.596   3.612  17.654  0.00  0.00    +0.000 A 
ATOM      9  C   UNL     1       4.758   3.922  16.944  0.00  0.00    +0.000 A 
ATOM     10  C   UNL     1       5.179   5.250  16.828  0.00  0.00    +0.000 A 
ATOM     11  C   UNL     1       4.431   6.278  17.421  0.00  0.00    +0.000 A 
ATOM     12  C   UNL     1       3.258   6.004  18.146  0.00  0.00    +0.000 A 
ATOM     13  C   UNL     1       2.863   4.653  18.248  0.00  0.00    +0.000 A 
BRANCH  10  14
ATOM     14  C   UNL     1       6.374   5.557  16.097  0.00  0.00    +0.000 C 
ATOM     15  N   UNL     1       7.330   5.808  15.490  0.00  0.00    +0.000 NA
ENDBRANCH  10  14
ENDBRANCH   1  12
BRANCH   4  16
ATOM     16  C   UNL     1       0.539  10.272  20.738  0.00  0.00    +0.000 C 
ATOM     17  C   UNL     1      -0.028  11.144  21.348  0.00  0.00    +0.000 C 
BRANCH  17  18
ATOM     18  C   UNL     1      -0.779  12.096  22.104  0.00  0.00    +0.000 A 
ATOM     19  C   UNL     1      -0.405  13.409  22.284  0.00  0.00    +0.000 A 
ATOM     20  S   UNL     1      -1.568  14.210  23.255  0.00  0.00    +0.000 S 
ATOM     21  C   UNL     1      -2.471  12.746  23.360  0.00  0.00    +0.000 A 
ATOM     22  C   UNL     1      -3.741  12.712  24.140  0.00  0.00    +0.000 C 
ATOM     23  N   UNL     1      -1.955  11.714  22.717  0.00  0.00    +0.000 NA
ENDBRANCH  17  18
ENDBRANCH   4  16
TORSDOF 4
ENDMDL
MODEL 2
REMARK VINA RESULT:      -7.6      0.843      1.201
REMARK  Name = 
REMARK  6 active torsions:
REMARK  status: ('A' for Active; 'I' for Inactive)
REMARK    1  A    between atoms: C_1  and  C_2
REMARK    2  A    between atoms: C_4  and  C_5
REMARK    3  A    between atoms: C_8  and  C_9
REMARK    4  A    between atoms: C_12  and  C_13
REMARK    5  A    between atoms: C_14  and  C_15
REMARK    6  A    between atoms: C_18  and  C_19
REMARK                            x       y       z     vdW  Elec       q    Type
REMARK                         _______ _______ _______ _____ _____    ______ ____
ROOT
ATOM      1  C   UNL     1       2.302   7.303  19.272  0.00  0.00    +0.000 A 
ATOM      2  C   UNL     1       1.906   7.124  20.598  0.00  0.00    +0.000 A 
ATOM      3  C   UNL     1       1.149   8.111  21.235  0.00  0.00    +0.000 A 
ATOM      4  C   UNL     1       0.804   9.269  20.544  0.00  0.00    +0.000 A 
ATOM      5  C   UNL     1       1.282   9.399  19.249  0.00  0.00    +0.000 A 
ATOM      6  N   UNL     1       2.020   8.453  18.606  0.00  0.00    +0.000 NA
ENDROOT
BRANCH   1  12
ATOM      7  C   UNL     1       2.442   2.610  17.425  0.00  0.00    +0.000 C 
ATOM      8  C   UNL     1       3.077   3.962  17.574  0.00  0.00    +0.000 A 
ATOM      9  C   UNL     1       4.281   4.263  16.933  0.00  0.00    +0.000 A 
ATOM     10  C   UNL     1       4.849   5.533  17.062  0.00  0.00    +0.000 A 
ATOM     11  C   UNL     1       4.207   6.515  17.832  0.00  0.00    +0.000 A 
ATOM     12  C   UNL     1       2.996   6.249  18.494  0.00  0.00    +0.000 A 
ATOM     13  C   UNL     1       2.451   4.955  18.347  0.00  0.00    +0.000 A 
BRANCH  10  14
ATOM     14  C   UNL     1       6.086   5.830  16.401  0.00  0.00    +0.000 C 
ATOM     15  N   UNL     1       7.096   6.056  15.876  0.00  0.00    +0.000 NA
ENDBRANCH  10  14
ENDBRANCH   1  12
BRANCH   4  16
ATOM     16  C   UNL     1      -0.046  10.253  21.147  0.00  0.00    +0.000 C 
ATOM     17  C   UNL     1      -0.727  11.060  21.729  0.00  0.00    +0.000 C 
BRANCH  17  18
ATOM     18  C   UNL     1      -1.467  11.999  22.512  0.00  0.00    +0.000 A 
ATOM     19  C   UNL     1      -1.098  13.312  22.699  0.00  0.00    +0.000 A 
ATOM     20  S   UNL     1      -2.242  14.094  23.705  0.00  0.00    +0.000 S 
ATOM     21  C   UNL     1      -3.133  12.623  23.815  0.00  0.00    +0.000 A 
ATOM     22  C   UNL     1      -4.384  12.571  24.624  0.00  0.00    +0.000 C 
ATOM     23  N   UNL     1      -2.625  11.602  23.149  0.00  0.00    +0.000 NA
ENDBRANCH  17  18
ENDBRANCH   4  16
TORSDOF 4
ENDMDL
MODEL 3
REMARK VINA RESULT:      -7.6      0.990      1.496
REMARK  Name = 
REMARK  6 active torsions:
REMARK  status: ('A' for Active; 'I' for Inactive)
REMARK    1  A    between atoms: C_1  and  C_2
REMARK    2  A    between atoms: C_4  and  C_5
REMARK    3  A    between atoms: C_8  and  C_9
REMARK    4  A    between atoms: C_12  and  C_13
REMARK    5  A    between atoms: C_14  and  C_15
REMARK    6  A    between atoms: C_18  and  C_19
REMARK                            x       y       z     vdW  Elec       q    Type
REMARK                         _______ _______ _______ _____ _____    ______ ____
ROOT
ATOM      1  C   UNL     1       2.476   7.148  18.605  0.00  0.00    +0.000 A 
ATOM      2  C   UNL     1       2.137   8.262  17.836  0.00  0.00    +0.000 A 
ATOM      3  C   UNL     1       1.499   9.351  18.436  0.00  0.00    +0.000 A 
ATOM      4  C   UNL     1       1.198   9.312  19.794  0.00  0.00    +0.000 A 
ATOM      5  C   UNL     1       1.515   8.150  20.479  0.00  0.00    +0.000 A 
ATOM      6  N   UNL     1       2.137   7.076  19.919  0.00  0.00    +0.000 NA
ENDROOT
BRANCH   1  12
ATOM      7  C   UNL     1       3.030   2.195  17.823  0.00  0.00    +0.000 C 
ATOM      8  C   UNL     1       3.547   3.596  17.669  0.00  0.00    +0.000 A 
ATOM      9  C   UNL     1       4.728   3.851  16.967  0.00  0.00    +0.000 A 
ATOM     10  C   UNL     1       5.184   5.162  16.810  0.00  0.00    +0.000 A 
ATOM     11  C   UNL     1       4.454   6.230  17.354  0.00  0.00    +0.000 A 
ATOM     12  C   UNL     1       3.264   6.013  18.069  0.00  0.00    +0.000 A 
ATOM     13  C   UNL     1       2.832   4.677  18.213  0.00  0.00    +0.000 A 
BRANCH  10  14
ATOM     14  C   UNL     1       6.398   5.412  16.089  0.00  0.00    +0.000 C 
ATOM     15  N   UNL     1       7.372   5.606  15.489  0.00  0.00    +0.000 NA
ENDBRANCH  10  14
ENDBRANCH   1  12
BRANCH   4  16
ATOM     16  C   UNL     1       0.626  10.452  20.448  0.00  0.00    +0.000 C 
ATOM     17  C   UNL     1       0.191  11.391  21.067  0.00  0.00    +0.000 C 
BRANCH  17  18
ATOM     18  C   UNL     1      -0.240  12.485  21.880  0.00  0.00    +0.000 A 
ATOM     19  C   UNL     1      -1.307  12.430  22.748  0.00  0.00    +0.000 A 
ATOM     20  S   UNL     1      -1.497  13.946  23.522  0.00  0.00    +0.000 S 
ATOM     21  C   UNL     1      -0.148  14.553  22.638  0.00  0.00    +0.000 A 
ATOM     22  C   UNL     1       0.295  15.963  22.835  0.00  0.00    +0.000 C 
ATOM     23  N   UNL     1       0.421  13.694  21.813  0.00  0.00    +0.000 NA
ENDBRANCH  17  18
ENDBRANCH   4  16
TORSDOF 4
ENDMDL
MODEL 4
REMARK VINA RESULT:      -7.5      1.078      1.303
REMARK  Name = 
REMARK  6 active torsions:
REMARK  status: ('A' for Active; 'I' for Inactive)
REMARK    1  A    between atoms: C_1  and  C_2
REMARK    2  A    between atoms: C_4  and  C_5
REMARK    3  A    between atoms: C_8  and  C_9
REMARK    4  A    between atoms: C_12  and  C_13
REMARK    5  A    between atoms: C_14  and  C_15
REMARK    6  A    between atoms: C_18  and  C_19
REMARK                            x       y       z     vdW  Elec       q    Type
REMARK                         _______ _______ _______ _____ _____    ______ ____
ROOT
ATOM      1  C   UNL     1       2.204   7.333  19.107  0.00  0.00    +0.000 A 
ATOM      2  C   UNL     1       1.834   8.540  18.511  0.00  0.00    +0.000 A 
ATOM      3  C   UNL     1       1.158   9.505  19.262  0.00  0.00    +0.000 A 
ATOM      4  C   UNL     1       0.851   9.252  20.596  0.00  0.00    +0.000 A 
ATOM      5  C   UNL     1       1.201   8.010  21.101  0.00  0.00    +0.000 A 
ATOM      6  N   UNL     1       1.860   7.052  20.391  0.00  0.00    +0.000 NA
ENDROOT
BRANCH   1  12
ATOM      7  C   UNL     1       2.787   2.649  17.325  0.00  0.00    +0.000 C 
ATOM      8  C   UNL     1       3.329   4.035  17.526  0.00  0.00    +0.000 A 
ATOM      9  C   UNL     1       4.575   4.399  17.009  0.00  0.00    +0.000 A 
ATOM     10  C   UNL     1       5.056   5.700  17.184  0.00  0.00    +0.000 A 
ATOM     11  C   UNL     1       4.286   6.647  17.875  0.00  0.00    +0.000 A 
ATOM     12  C   UNL     1       3.030   6.317  18.412  0.00  0.00    +0.000 A 
ATOM     13  C   UNL     1       2.574   4.994  18.223  0.00  0.00    +0.000 A 
BRANCH  10  14
ATOM     14  C   UNL     1       6.337   6.062  16.650  0.00  0.00    +0.000 C 
ATOM     15  N   UNL     1       7.367   6.349  16.200  0.00  0.00    +0.000 NA
ENDBRANCH  10  14
ENDBRANCH   1  12
BRANCH   4  16
ATOM     16  C   UNL     1       0.240  10.262  21.409  0.00  0.00    +0.000 C 
ATOM     17  C   UNL     1      -0.324  11.130  22.026  0.00  0.00    +0.000 C 
BRANCH  17  18
ATOM     18  C   UNL     1      -1.071  12.163  22.672  0.00  0.00    +0.000 A 
ATOM     19  C   UNL     1      -2.430  12.114  22.890  0.00  0.00    +0.000 A 
ATOM     20  S   UNL     1      -2.937  13.546  23.682  0.00  0.00    +0.000 S 
ATOM     21  C   UNL     1      -1.311  14.117  23.666  0.00  0.00    +0.000 A 
ATOM     22  C   UNL     1      -0.986  15.447  24.255  0.00  0.00    +0.000 C 
ATOM     23  N   UNL     1      -0.431  13.304  23.111  0.00  0.00    +0.000 NA
ENDBRANCH  17  18
ENDBRANCH   4  16
TORSDOF 4
ENDMDL
MODEL 5
REMARK VINA RESULT:      -7.5      1.025      1.291
REMARK  Name = 
REMARK  6 active torsions:
REMARK  status: ('A' for Active; 'I' for Inactive)
REMARK    1  A    between atoms: C_1  and  C_2
REMARK    2  A    between atoms: C_4  and  C_5
REMARK    3  A    between atoms: C_8  and  C_9
REMARK    4  A    between atoms: C_12  and  C_13
REMARK    5  A    between atoms: C_14  and  C_15
REMARK    6  A    between atoms: C_18  and  C_19
REMARK                            x       y       z     vdW  Elec       q    Type
REMARK                         _______ _______ _______ _____ _____    ______ ____
ROOT
ATOM      1  C   UNL     1       2.500   7.295  18.592  0.00  0.00    +0.000 A 
ATOM      2  C   UNL     1       2.120   7.311  19.935  0.00  0.00    +0.000 A 
ATOM      3  C   UNL     1       1.362   8.376  20.428  0.00  0.00    +0.000 A 
ATOM      4  C   UNL     1       0.999   9.417  19.578  0.00  0.00    +0.000 A 
ATOM      5  C   UNL     1       1.460   9.358  18.272  0.00  0.00    +0.000 A 
ATOM      6  N   UNL     1       2.200   8.332  17.767  0.00  0.00    +0.000 NA
ENDROOT
BRANCH   1  12
ATOM      7  C   UNL     1       2.670   2.378  17.473  0.00  0.00    +0.000 C 
ATOM      8  C   UNL     1       3.290   3.744  17.405  0.00  0.00    +0.000 A 
ATOM      9  C   UNL     1       4.480   3.957  16.705  0.00  0.00    +0.000 A 
ATOM     10  C   UNL     1       5.033   5.238  16.630  0.00  0.00    +0.000 A 
ATOM     11  C   UNL     1       4.392   6.318  17.254  0.00  0.00    +0.000 A 
ATOM     12  C   UNL     1       3.194   6.142  17.970  0.00  0.00    +0.000 A 
ATOM     13  C   UNL     1       2.664   4.836  18.030  0.00  0.00    +0.000 A 
BRANCH  10  14
ATOM     14  C   UNL     1       6.256   5.444  15.909  0.00  0.00    +0.000 C 
ATOM     15  N   UNL     1       7.248   5.591  15.326  0.00  0.00    +0.000 NA
ENDBRANCH  10  14
ENDBRANCH   1  12
BRANCH   4  16
ATOM     16  C   UNL     1       0.147  10.473  20.038  0.00  0.00    +0.000 C 
ATOM     17  C   UNL     1      -0.601  11.308  20.484  0.00  0.00    +0.000 C 
BRANCH  17  18
ATOM     18  C   UNL     1      -1.504  12.225  21.104  0.00  0.00    +0.000 A 
ATOM     19  C   UNL     1      -1.865  13.440  20.565  0.00  0.00    +0.000 A 
ATOM     20  S   UNL     1      -2.955  14.236  21.620  0.00  0.00    +0.000 S 
ATOM     21  C   UNL     1      -2.856  12.904  22.709  0.00  0.00    +0.000 A 
ATOM     22  C   UNL     1      -3.634  12.926  23.980  0.00  0.00    +0.000 C 
ATOM     23  N   UNL     1      -2.065  11.918  22.327  0.00  0.00    +0.000 NA
ENDBRANCH  17  18
ENDBRANCH   4  16
TORSDOF 4
ENDMDL
MODEL 6
REMARK VINA RESULT:      -7.5      1.614      2.246
REMARK  Name = 
REMARK  6 active torsions:
REMARK  status: ('A' for Active; 'I' for Inactive)
REMARK    1  A    between atoms: C_1  and  C_2
REMARK    2  A    between atoms: C_4  and  C_5
REMARK    3  A    between atoms: C_8  and  C_9
REMARK    4  A    between atoms: C_12  and  C_13
REMARK    5  A    between atoms: C_14  and  C_15
REMARK    6  A    between atoms: C_18  and  C_19
REMARK                            x       y       z     vdW  Elec       q    Type
REMARK                         _______ _______ _______ _____ _____    ______ ____
ROOT
ATOM      1  C   UNL     1       2.316   7.417  19.112  0.00  0.00    +0.000 A 
ATOM      2  C   UNL     1       1.956   8.543  18.371  0.00  0.00    +0.000 A 
ATOM      3  C   UNL     1       1.193   9.550  18.968  0.00  0.00    +0.000 A 
ATOM      4  C   UNL     1       0.790   9.418  20.293  0.00  0.00    +0.000 A 
ATOM      5  C   UNL     1       1.139   8.246  20.947  0.00  0.00    +0.000 A 
ATOM      6  N   UNL     1       1.882   7.250  20.389  0.00  0.00    +0.000 NA
ENDROOT
BRANCH   1  12
ATOM      7  C   UNL     1       5.537   5.790  15.587  0.00  0.00    +0.000 C 
ATOM      8  C   UNL     1       4.811   5.562  16.881  0.00  0.00    +0.000 A 
ATOM      9  C   UNL     1       5.032   4.406  17.634  0.00  0.00    +0.000 A 
ATOM     10  C   UNL     1       4.367   4.219  18.848  0.00  0.00    +0.000 A 
ATOM     11  C   UNL     1       3.477   5.196  19.320  0.00  0.00    +0.000 A 
ATOM     12  C   UNL     1       3.226   6.370  18.589  0.00  0.00    +0.000 A 
ATOM     13  C   UNL     1       3.911   6.527  17.365  0.00  0.00    +0.000 A 
BRANCH  10  14
ATOM     14  C   UNL     1       4.601   3.028  19.612  0.00  0.00    +0.000 C 
ATOM     15  N   UNL     1       4.807   2.061  20.219  0.00  0.00    +0.000 NA
ENDBRANCH  10  14
ENDBRANCH   1  12
BRANCH   4  16
ATOM     16  C   UNL     1       0.084  10.477  20.952  0.00  0.00    +0.000 C 
ATOM     17  C   UNL     1      -0.516  11.318  21.573  0.00  0.00    +0.000 C 
BRANCH  17  18
ATOM     18  C   UNL     1      -1.212  12.249  22.406  0.00  0.00    +0.000 A 
ATOM     19  C   UNL     1      -0.768  13.522  22.682  0.00  0.00    +0.000 A 
ATOM     20  S   UNL     1      -1.881  14.307  23.721  0.00  0.00    +0.000 S 
ATOM     21  C   UNL     1      -2.860  12.889  23.722  0.00  0.00    +0.000 A 
ATOM     22  C   UNL     1      -4.127  12.863  24.509  0.00  0.00    +0.000 C 
ATOM     23  N   UNL     1      -2.403  11.884  22.999  0.00  0.00    +0.000 NA
ENDBRANCH  17  18
ENDBRANCH   4  16
TORSDOF 4
ENDMDL
MODEL 7
REMARK VINA RESULT:      -7.5      1.839      2.799
REMARK  Name = 
REMARK  6 active torsions:
REMARK  status: ('A' for Active; 'I' for Inactive)
REMARK    1  A    between atoms: C_1  and  C_2
REMARK    2  A    between atoms: C_4  and  C_5
REMARK    3  A    between atoms: C_8  and  C_9
REMARK    4  A    between atoms: C_12  and  C_13
REMARK    5  A    between atoms: C_14  and  C_15
REMARK    6  A    between atoms: C_18  and  C_19
REMARK                            x       y       z     vdW  Elec       q    Type
REMARK                         _______ _______ _______ _____ _____    ______ ____
ROOT
ATOM      1  C   UNL     1       1.980   7.789  19.576  0.00  0.00    +0.000 A 
ATOM      2  C   UNL     1       1.653   7.597  20.919  0.00  0.00    +0.000 A 
ATOM      3  C   UNL     1       0.933   8.579  21.605  0.00  0.00    +0.000 A 
ATOM      4  C   UNL     1       0.555   9.745  20.945  0.00  0.00    +0.000 A 
ATOM      5  C   UNL     1       0.963   9.887  19.628  0.00  0.00    +0.000 A 
ATOM      6  N   UNL     1       1.665   8.947  18.938  0.00  0.00    +0.000 NA
ENDROOT
BRANCH   1  12
ATOM      7  C   UNL     1       5.281   6.467  15.997  0.00  0.00    +0.000 C 
ATOM      8  C   UNL     1       4.245   6.076  17.012  0.00  0.00    +0.000 A 
ATOM      9  C   UNL     1       3.933   4.733  17.237  0.00  0.00    +0.000 A 
ATOM     10  C   UNL     1       2.984   4.383  18.201  0.00  0.00    +0.000 A 
ATOM     11  C   UNL     1       2.344   5.381  18.951  0.00  0.00    +0.000 A 
ATOM     12  C   UNL     1       2.629   6.743  18.751  0.00  0.00    +0.000 A 
ATOM     13  C   UNL     1       3.589   7.063  17.767  0.00  0.00    +0.000 A 
BRANCH  10  14
ATOM     14  C   UNL     1       2.671   3.001  18.422  0.00  0.00    +0.000 C 
ATOM     15  N   UNL     1       2.429   1.878  18.587  0.00  0.00    +0.000 NA
ENDBRANCH  10  14
ENDBRANCH   1  12
BRANCH   4  16
ATOM     16  C   UNL     1      -0.261  10.723  21.602  0.00  0.00    +0.000 C 
ATOM     17  C   UNL     1      -0.985  11.483  22.195  0.00  0.00    +0.000 C 
BRANCH  17  18
ATOM     18  C   UNL     1      -1.874  12.293  22.968  0.00  0.00    +0.000 A 
ATOM     19  C   UNL     1      -1.637  13.611  23.288  0.00  0.00    +0.000 A 
ATOM     20  S   UNL     1      -2.935  14.215  24.229  0.00  0.00    +0.000 S 
ATOM     21  C   UNL     1      -3.704  12.676  24.136  0.00  0.00    +0.000 A 
ATOM     22  C   UNL     1      -5.017  12.460  24.808  0.00  0.00    +0.000 C 
ATOM     23  N   UNL     1      -3.049  11.756  23.451  0.00  0.00    +0.000 NA
ENDBRANCH  17  18
ENDBRANCH   4  16
TORSDOF 4
ENDMDL
MODEL 8
REMARK VINA RESULT:      -7.4      1.521      1.713
REMARK  Name = 
REMARK  6 active torsions:
REMARK  status: ('A' for Active; 'I' for Inactive)
REMARK    1  A    between atoms: C_1  and  C_2
REMARK    2  A    between atoms: C_4  and  C_5
REMARK    3  A    between atoms: C_8  and  C_9
REMARK    4  A    between atoms: C_12  and  C_13
REMARK    5  A    between atoms: C_14  and  C_15
REMARK    6  A    between atoms: C_18  and  C_19
REMARK                            x       y       z     vdW  Elec       q    Type
REMARK                         _______ _______ _______ _____ _____    ______ ____
ROOT
ATOM      1  C   UNL     1       2.515   7.354  18.524  0.00  0.00    +0.000 A 
ATOM      2  C   UNL     1       2.106   7.404  19.857  0.00  0.00    +0.000 A 
ATOM      3  C   UNL     1       1.344   8.486  20.308  0.00  0.00    +0.000 A 
ATOM      4  C   UNL     1       1.008   9.508  19.426  0.00  0.00    +0.000 A 
ATOM      5  C   UNL     1       1.497   9.415  18.132  0.00  0.00    +0.000 A 
ATOM      6  N   UNL     1       2.241   8.373  17.668  0.00  0.00    +0.000 NA
ENDROOT
BRANCH   1  12
ATOM      7  C   UNL     1       2.683   2.409  17.539  0.00  0.00    +0.000 C 
ATOM      8  C   UNL     1       3.310   3.770  17.445  0.00  0.00    +0.000 A 
ATOM      9  C   UNL     1       4.513   3.959  16.760  0.00  0.00    +0.000 A 
ATOM     10  C   UNL     1       5.073   5.235  16.660  0.00  0.00    +0.000 A 
ATOM     11  C   UNL     1       4.425   6.334  17.244  0.00  0.00    +0.000 A 
ATOM     12  C   UNL     1       3.215   6.183  17.944  0.00  0.00    +0.000 A 
ATOM     13  C   UNL     1       2.678   4.880  18.030  0.00  0.00    +0.000 A 
BRANCH  10  14
ATOM     14  C   UNL     1       6.308   5.418  15.956  0.00  0.00    +0.000 C 
ATOM     15  N   UNL     1       7.316   5.573  15.402  0.00  0.00    +0.000 NA
ENDBRANCH  10  14
ENDBRANCH   1  12
BRANCH   4  16
ATOM     16  C   UNL     1       0.153  10.581  19.843  0.00  0.00    +0.000 C 
ATOM     17  C   UNL     1      -0.622  11.424  20.219  0.00  0.00    +0.000 C 
BRANCH  17  18
ATOM     18  C   UNL     1      -1.600  12.338  20.720  0.00  0.00    +0.000 A 
ATOM     19  C   UNL     1      -1.398  13.174  21.796  0.00  0.00    +0.000 A 
ATOM     20  S   UNL     1      -2.812  14.099  22.078  0.00  0.00    +0.000 S 
ATOM     21  C   UNL     1      -3.579  13.310  20.751  0.00  0.00    +0.000 A 
ATOM     22  C   UNL     1      -4.981  13.664  20.387  0.00  0.00    +0.000 C 
ATOM     23  N   UNL     1      -2.842  12.412  20.124  0.00  0.00    +0.000 NA
ENDBRANCH  17  18
ENDBRANCH   4  16
TORSDOF 4
ENDMDL
MODEL 9
REMARK VINA RESULT:      -7.3      8.963     12.029
REMARK  Name = 
REMARK  6 active torsions:
REMARK  status: ('A' for Active; 'I' for Inactive)
REMARK    1  A    between atoms: C_1  and  C_2
REMARK    2  A    between atoms: C_4  and  C_5
REMARK    3  A    between atoms: C_8  and  C_9
REMARK    4  A    between atoms: C_12  and  C_13
REMARK    5  A    between atoms: C_14  and  C_15
REMARK    6  A    between atoms: C_18  and  C_19
REMARK                            x       y       z     vdW  Elec       q    Type
REMARK                         _______ _______ _______ _____ _____    ______ ____
ROOT
ATOM      1  C   UNL     1      10.081  12.868  19.452  0.00  0.00    +0.000 A 
ATOM      2  C   UNL     1       9.978  12.474  18.117  0.00  0.00    +0.000 A 
ATOM      3  C   UNL     1       9.509  11.195  17.805  0.00  0.00    +0.000 A 
ATOM      4  C   UNL     1       9.156  10.321  18.829  0.00  0.00    +0.000 A 
ATOM      5  C   UNL     1       9.338  10.764  20.130  0.00  0.00    +0.000 A 
ATOM      6  N   UNL     1       9.793  12.004  20.460  0.00  0.00    +0.000 NA
ENDROOT
BRANCH   1  12
ATOM      7  C   UNL     1      10.798  16.324  23.057  0.00  0.00    +0.000 C 
ATOM      8  C   UNL     1      10.814  15.946  21.603  0.00  0.00    +0.000 A 
ATOM      9  C   UNL     1      11.237  16.855  20.631  0.00  0.00    +0.000 A 
ATOM     10  C   UNL     1      11.269  16.482  19.285  0.00  0.00    +0.000 A 
ATOM     11  C   UNL     1      10.883  15.188  18.905  0.00  0.00    +0.000 A 
ATOM     12  C   UNL     1      10.449  14.246  19.855  0.00  0.00    +0.000 A 
ATOM     13  C   UNL     1      10.424  14.656  21.205  0.00  0.00    +0.000 A 
BRANCH  10  14
ATOM     14  C   UNL     1      11.703  17.424  18.295  0.00  0.00    +0.000 C 
ATOM     15  N   UNL     1      12.072  18.189  17.504  0.00  0.00    +0.000 NA
ENDBRANCH  10  14
ENDBRANCH   1  12
BRANCH   4  16
ATOM     16  C   UNL     1       8.588   9.039  18.532  0.00  0.00    +0.000 C 
ATOM     17  C   UNL     1       8.094   7.990  18.204  0.00  0.00    +0.000 C 
BRANCH  17  18
ATOM     18  C   UNL     1       7.512   6.784  17.704  0.00  0.00    +0.000 A 
ATOM     19  C   UNL     1       6.977   5.795  18.499  0.00  0.00    +0.000 A 
ATOM     20  S   UNL     1       6.393   4.520  17.516  0.00  0.00    +0.000 S 
ATOM     21  C   UNL     1       6.903   5.383  16.114  0.00  0.00    +0.000 A 
ATOM     22  C   UNL     1       6.686   4.795  14.761  0.00  0.00    +0.000 C 
ATOM     23  N   UNL     1       7.473   6.551  16.344  0.00  0.00    +0.000 NA
ENDBRANCH  17  18
ENDBRANCH   4  16
TORSDOF 4
ENDMDL
