MODEL 1
REMARK VINA RESULT:      -8.7      0.000      0.000
REMARK  Name = 
REMARK  4 active torsions:
REMARK  status: ('A' for Active; 'I' for Inactive)
REMARK    1  A    between atoms: C_2  and  C_4
REMARK    2  A    between atoms: C_4  and  N_5
REMARK    3  A    between atoms: C_8  and  O_9
REMARK    4  A    between atoms: C_15  and  C_16
REMARK                            x       y       z     vdW  Elec       q    Type
REMARK                         _______ _______ _______ _____ _____    ______ ____
ROOT
ATOM      1  N   UNL     1       2.414   4.638  18.863  0.00  0.00    +0.000 NA
ATOM      2  C   UNL     1       2.911   3.410  18.202  0.00  0.00    +0.000 C 
ATOM      3  C   UNL     1       4.440   3.288  18.173  0.00  0.00    +0.000 C 
ATOM      4  C   UNL     1       5.071   4.502  17.482  0.00  0.00    +0.000 C 
ATOM      5  C   UNL     1       6.607   4.481  17.590  0.00  0.00    +0.000 C 
ATOM      6  C   UNL     1       7.246   5.686  16.893  0.00  0.00    +0.000 C 
ATOM      7  C   UNL     1       6.648   7.008  17.360  0.00  0.00    +0.000 C 
ATOM      8  C   UNL     1       5.121   7.014  17.281  0.00  0.00    +0.000 C 
ATOM      9  C   UNL     1       4.531   5.827  18.077  0.00  0.00    +0.000 C 
ATOM     10  C   UNL     1       2.970   5.828  18.137  0.00  0.00    +0.000 C 
ENDROOT
BRANCH  10  11
ATOM     11  C   UNL     1       2.341   7.141  18.632  0.00  0.00    +0.000 A 
ATOM     12  C   UNL     1       1.973   8.186  17.747  0.00  0.00    +0.000 A 
ATOM     13  C   UNL     1       1.356   9.355  18.206  0.00  0.00    +0.000 A 
ATOM     14  C   UNL     1       1.137   9.470  19.558  0.00  0.00    +0.000 A 
ATOM     15  C   UNL     1       1.498   8.477  20.437  0.00  0.00    +0.000 A 
ATOM     16  C   UNL     1       2.101   7.311  20.010  0.00  0.00    +0.000 A 
ATOM     17  O   UNL     1       1.181   8.787  21.723  0.00  0.00    +0.000 OA
ATOM     18  C   UNL     1       0.610  10.102  21.554  0.00  0.00    +0.000 C 
ATOM     19  O   UNL     1       0.552  10.530  20.177  0.00  0.00    +0.000 OA
ENDBRANCH  10  11
BRANCH   4  20
ATOM     20  O   UNL     1       4.725   4.431  16.091  0.00  0.00    +0.000 OA
ATOM     21  H   UNL     1       5.372   3.855  15.647  0.00  0.00    +0.000 HD
ENDBRANCH   4  20
BRANCH   1  22
ATOM     22  C   UNL     1       2.717   4.648  20.316  0.00  0.00    +0.000 C 
BRANCH  22  24
ATOM     23  N   UNL     1       0.721   3.272  20.734  0.00  0.00    +0.000 N 
ATOM     24  C   UNL     1       2.014   3.529  21.095  0.00  0.00    +0.000 C 
ATOM     25  O   UNL     1       2.538   2.936  22.031  0.00  0.00    +0.000 OA
ATOM     26  H   UNL     1       0.245   2.523  21.216  0.00  0.00    +0.000 HD
ATOM     27  H   UNL     1       0.393   3.563  19.822  0.00  0.00    +0.000 HD
ENDBRANCH  22  24
ENDBRANCH   1  22
TORSDOF 4
ENDMDL
MODEL 2
REMARK VINA RESULT:      -8.5      1.817      4.100
REMARK  Name = 
REMARK  4 active torsions:
REMARK  status: ('A' for Active; 'I' for Inactive)
REMARK    1  A    between atoms: C_2  and  C_4
REMARK    2  A    between atoms: C_4  and  N_5
REMARK    3  A    between atoms: C_8  and  O_9
REMARK    4  A    between atoms: C_15  and  C_16
REMARK                            x       y       z     vdW  Elec       q    Type
REMARK                         _______ _______ _______ _____ _____    ______ ____
ROOT
ATOM      1  N   UNL     1       4.832   6.002  18.759  0.00  0.00    +0.000 NA
ATOM      2  C   UNL     1       5.629   4.792  19.063  0.00  0.00    +0.000 C 
ATOM      3  C   UNL     1       5.054   3.497  18.473  0.00  0.00    +0.000 C 
ATOM      4  C   UNL     1       3.619   3.268  18.957  0.00  0.00    +0.000 C 
ATOM      5  C   UNL     1       2.967   2.067  18.247  0.00  0.00    +0.000 C 
ATOM      6  C   UNL     1       1.534   1.825  18.733  0.00  0.00    +0.000 C 
ATOM      7  C   UNL     1       0.676   3.083  18.654  0.00  0.00    +0.000 C 
ATOM      8  C   UNL     1       1.341   4.281  19.332  0.00  0.00    +0.000 C 
ATOM      9  C   UNL     1       2.747   4.531  18.738  0.00  0.00    +0.000 C 
ATOM     10  C   UNL     1       3.447   5.808  19.302  0.00  0.00    +0.000 C 
ENDROOT
BRANCH  10  11
ATOM     11  C   UNL     1       2.615   7.098  19.210  0.00  0.00    +0.000 A 
ATOM     12  C   UNL     1       2.455   7.813  17.995  0.00  0.00    +0.000 A 
ATOM     13  C   UNL     1       1.654   8.958  17.916  0.00  0.00    +0.000 A 
ATOM     14  C   UNL     1       1.040   9.386  19.069  0.00  0.00    +0.000 A 
ATOM     15  C   UNL     1       1.192   8.718  20.261  0.00  0.00    +0.000 A 
ATOM     16  C   UNL     1       1.969   7.582  20.365  0.00  0.00    +0.000 A 
ATOM     17  O   UNL     1       0.490   9.301  21.270  0.00  0.00    +0.000 OA
ATOM     18  C   UNL     1      -0.091  10.429  20.582  0.00  0.00    +0.000 C 
ATOM     19  O   UNL     1       0.230  10.473  19.176  0.00  0.00    +0.000 OA
ENDBRANCH  10  11
BRANCH   4  20
ATOM     20  O   UNL     1       3.681   2.972  20.360  0.00  0.00    +0.000 OA
ATOM     21  H   UNL     1       4.544   3.274  20.695  0.00  0.00    +0.000 HD
ENDBRANCH   4  20
BRANCH   1  22
ATOM     22  C   UNL     1       4.850   6.328  17.311  0.00  0.00    +0.000 C 
BRANCH  22  24
ATOM     23  N   UNL     1       6.927   7.644  17.232  0.00  0.00    +0.000 N 
ATOM     24  C   UNL     1       6.261   6.552  16.752  0.00  0.00    +0.000 C 
ATOM     25  O   UNL     1       6.753   5.845  15.880  0.00  0.00    +0.000 OA
ATOM     26  H   UNL     1       7.868   7.798  16.897  0.00  0.00    +0.000 HD
ATOM     27  H   UNL     1       6.640   8.053  18.112  0.00  0.00    +0.000 HD
ENDBRANCH  22  24
ENDBRANCH   1  22
TORSDOF 4
ENDMDL
MODEL 3
REMARK VINA RESULT:      -8.4      0.663      1.432
REMARK  Name = 
REMARK  4 active torsions:
REMARK  status: ('A' for Active; 'I' for Inactive)
REMARK    1  A    between atoms: C_2  and  C_4
REMARK    2  A    between atoms: C_4  and  N_5
REMARK    3  A    between atoms: C_8  and  O_9
REMARK    4  A    between atoms: C_15  and  C_16
REMARK                            x       y       z     vdW  Elec       q    Type
REMARK                         _______ _______ _______ _____ _____    ______ ____
ROOT
ATOM      1  N   UNL     1       2.493   4.405  18.886  0.00  0.00    +0.000 NA
ATOM      2  C   UNL     1       2.989   3.240  18.120  0.00  0.00    +0.000 C 
ATOM      3  C   UNL     1       4.517   3.170  18.003  0.00  0.00    +0.000 C 
ATOM      4  C   UNL     1       5.073   4.446  17.361  0.00  0.00    +0.000 C 
ATOM      5  C   UNL     1       6.613   4.469  17.387  0.00  0.00    +0.000 C 
ATOM      6  C   UNL     1       7.178   5.737  16.739  0.00  0.00    +0.000 C 
ATOM      7  C   UNL     1       6.567   7.006  17.324  0.00  0.00    +0.000 C 
ATOM      8  C   UNL     1       5.039   6.966  17.326  0.00  0.00    +0.000 C 
ATOM      9  C   UNL     1       4.528   5.711  18.071  0.00  0.00    +0.000 C 
ATOM     10  C   UNL     1       2.973   5.657  18.213  0.00  0.00    +0.000 C 
ENDROOT
BRANCH  10  11
ATOM     11  C   UNL     1       2.334   6.914  18.826  0.00  0.00    +0.000 A 
ATOM     12  C   UNL     1       1.996   7.000  20.201  0.00  0.00    +0.000 A 
ATOM     13  C   UNL     1       1.460   8.168  20.754  0.00  0.00    +0.000 A 
ATOM     14  C   UNL     1       1.246   9.232  19.910  0.00  0.00    +0.000 A 
ATOM     15  C   UNL     1       1.551   9.167  18.571  0.00  0.00    +0.000 A 
ATOM     16  C   UNL     1       2.088   8.031  18.001  0.00  0.00    +0.000 A 
ATOM     17  O   UNL     1       1.273  10.331  17.924  0.00  0.00    +0.000 OA
ATOM     18  C   UNL     1       0.728  11.121  19.002  0.00  0.00    +0.000 C 
ATOM     19  O   UNL     1       0.735  10.439  20.273  0.00  0.00    +0.000 OA
ENDBRANCH  10  11
BRANCH   4  20
ATOM     20  O   UNL     1       4.654   4.454  15.989  0.00  0.00    +0.000 OA
ATOM     21  H   UNL     1       5.184   3.795  15.507  0.00  0.00    +0.000 HD
ENDBRANCH   4  20
BRANCH   1  22
ATOM     22  C   UNL     1       2.874   4.331  20.318  0.00  0.00    +0.000 C 
BRANCH  22  24
ATOM     23  N   UNL     1       0.779   3.135  20.796  0.00  0.00    +0.000 N 
ATOM     24  C   UNL     1       2.104   3.260  21.101  0.00  0.00    +0.000 C 
ATOM     25  O   UNL     1       2.612   2.593  21.996  0.00  0.00    +0.000 OA
ATOM     26  H   UNL     1       0.256   2.419  21.281  0.00  0.00    +0.000 HD
ATOM     27  H   UNL     1       0.439   3.482  19.908  0.00  0.00    +0.000 HD
ENDBRANCH  22  24
ENDBRANCH   1  22
TORSDOF 4
ENDMDL
MODEL 4
REMARK VINA RESULT:      -8.3      1.903      4.305
REMARK  Name = 
REMARK  4 active torsions:
REMARK  status: ('A' for Active; 'I' for Inactive)
REMARK    1  A    between atoms: C_2  and  C_4
REMARK    2  A    between atoms: C_4  and  N_5
REMARK    3  A    between atoms: C_8  and  O_9
REMARK    4  A    between atoms: C_15  and  C_16
REMARK                            x       y       z     vdW  Elec       q    Type
REMARK                         _______ _______ _______ _____ _____    ______ ____
ROOT
ATOM      1  N   UNL     1       4.552   6.007  18.707  0.00  0.00    +0.000 NA
ATOM      2  C   UNL     1       5.420   4.809  18.731  0.00  0.00    +0.000 C 
ATOM      3  C   UNL     1       4.777   3.556  18.122  0.00  0.00    +0.000 C 
ATOM      4  C   UNL     1       3.462   3.218  18.834  0.00  0.00    +0.000 C 
ATOM      5  C   UNL     1       2.718   2.066  18.132  0.00  0.00    +0.000 C 
ATOM      6  C   UNL     1       1.407   1.715  18.842  0.00  0.00    +0.000 C 
ATOM      7  C   UNL     1       0.520   2.937  19.055  0.00  0.00    +0.000 C 
ATOM      8  C   UNL     1       1.271   4.089  19.723  0.00  0.00    +0.000 C 
ATOM      9  C   UNL     1       2.535   4.457  18.912  0.00  0.00    +0.000 C 
ATOM     10  C   UNL     1       3.297   5.701  19.471  0.00  0.00    +0.000 C 
ENDROOT
BRANCH  10  11
ATOM     11  C   UNL     1       2.431   6.956  19.669  0.00  0.00    +0.000 A 
ATOM     12  C   UNL     1       1.772   7.238  20.893  0.00  0.00    +0.000 A 
ATOM     13  C   UNL     1       1.028   8.410  21.074  0.00  0.00    +0.000 A 
ATOM     14  C   UNL     1       0.935   9.275  20.011  0.00  0.00    +0.000 A 
ATOM     15  C   UNL     1       1.552   9.017  18.810  0.00  0.00    +0.000 A 
ATOM     16  C   UNL     1       2.298   7.873  18.607  0.00  0.00    +0.000 A 
ATOM     17  O   UNL     1       1.343  10.006  17.901  0.00  0.00    +0.000 OA
ATOM     18  C   UNL     1       0.497  10.898  18.657  0.00  0.00    +0.000 C 
ATOM     19  O   UNL     1       0.257  10.454  20.008  0.00  0.00    +0.000 OA
ENDBRANCH  10  11
BRANCH   4  20
ATOM     20  O   UNL     1       3.791   2.786  20.162  0.00  0.00    +0.000 OA
ATOM     21  H   UNL     1       3.790   3.568  20.743  0.00  0.00    +0.000 HD
ENDBRANCH   4  20
BRANCH   1  22
ATOM     22  C   UNL     1       4.292   6.477  17.324  0.00  0.00    +0.000 C 
BRANCH  22  24
ATOM     23  N   UNL     1       5.644   6.055  15.312  0.00  0.00    +0.000 N 
ATOM     24  C   UNL     1       5.570   6.712  16.507  0.00  0.00    +0.000 C 
ATOM     25  O   UNL     1       6.506   7.390  16.915  0.00  0.00    +0.000 OA
ATOM     26  H   UNL     1       6.465   6.214  14.745  0.00  0.00    +0.000 HD
ATOM     27  H   UNL     1       4.794   5.726  14.873  0.00  0.00    +0.000 HD
ENDBRANCH  22  24
ENDBRANCH   1  22
TORSDOF 4
ENDMDL
MODEL 5
REMARK VINA RESULT:      -7.3      3.906      7.953
REMARK  Name = 
REMARK  4 active torsions:
REMARK  status: ('A' for Active; 'I' for Inactive)
REMARK    1  A    between atoms: C_2  and  C_4
REMARK    2  A    between atoms: C_4  and  N_5
REMARK    3  A    between atoms: C_8  and  O_9
REMARK    4  A    between atoms: C_15  and  C_16
REMARK                            x       y       z     vdW  Elec       q    Type
REMARK                         _______ _______ _______ _____ _____    ______ ____
ROOT
ATOM      1  N   UNL     1      -0.029  11.633  20.531  0.00  0.00    +0.000 NA
ATOM      2  C   UNL     1      -0.671  12.930  20.219  0.00  0.00    +0.000 C 
ATOM      3  C   UNL     1      -2.106  12.807  19.688  0.00  0.00    +0.000 C 
ATOM      4  C   UNL     1      -2.149  11.928  18.433  0.00  0.00    +0.000 C 
ATOM      5  C   UNL     1      -3.597  11.656  17.983  0.00  0.00    +0.000 C 
ATOM      6  C   UNL     1      -3.649  10.785  16.723  0.00  0.00    +0.000 C 
ATOM      7  C   UNL     1      -2.835   9.505  16.871  0.00  0.00    +0.000 C 
ATOM      8  C   UNL     1      -1.409   9.777  17.349  0.00  0.00    +0.000 C 
ATOM      9  C   UNL     1      -1.422  10.581  18.670  0.00  0.00    +0.000 C 
ATOM     10  C   UNL     1      -0.002  10.802  19.282  0.00  0.00    +0.000 C 
ENDROOT
BRANCH  10  11
ATOM     11  C   UNL     1       0.831   9.523  19.467  0.00  0.00    +0.000 A 
ATOM     12  C   UNL     1       0.775   8.746  20.653  0.00  0.00    +0.000 A 
ATOM     13  C   UNL     1       1.502   7.558  20.788  0.00  0.00    +0.000 A 
ATOM     14  C   UNL     1       2.298   7.176  19.735  0.00  0.00    +0.000 A 
ATOM     15  C   UNL     1       2.380   7.920  18.582  0.00  0.00    +0.000 A 
ATOM     16  C   UNL     1       1.669   9.091  18.419  0.00  0.00    +0.000 A 
ATOM     17  O   UNL     1       3.212   7.357  17.665  0.00  0.00    +0.000 OA
ATOM     18  C   UNL     1       3.668   6.193  18.387  0.00  0.00    +0.000 C 
ATOM     19  O   UNL     1       3.069   6.056  19.692  0.00  0.00    +0.000 OA
ENDBRANCH  10  11
BRANCH   4  20
ATOM     20  O   UNL     1      -1.487  12.647  17.382  0.00  0.00    +0.000 OA
ATOM     21  H   UNL     1      -0.978  12.008  16.853  0.00  0.00    +0.000 HD
ENDBRANCH   4  20
BRANCH   1  22
ATOM     22  C   UNL     1      -0.686  10.949  21.672  0.00  0.00    +0.000 C 
BRANCH  22  24
ATOM     23  N   UNL     1      -2.403  11.792  23.218  0.00  0.00    +0.000 N 
ATOM     24  C   UNL     1      -1.108  11.903  22.797  0.00  0.00    +0.000 C 
ATOM     25  O   UNL     1      -0.366  12.764  23.255  0.00  0.00    +0.000 OA
ATOM     26  H   UNL     1      -2.698  12.392  23.975  0.00  0.00    +0.000 HD
ATOM     27  H   UNL     1      -2.913  10.937  23.036  0.00  0.00    +0.000 HD
ENDBRANCH  22  24
ENDBRANCH   1  22
TORSDOF 4
ENDMDL
MODEL 6
REMARK VINA RESULT:      -7.2      1.814      5.877
REMARK  Name = 
REMARK  4 active torsions:
REMARK  status: ('A' for Active; 'I' for Inactive)
REMARK    1  A    between atoms: C_2  and  C_4
REMARK    2  A    between atoms: C_4  and  N_5
REMARK    3  A    between atoms: C_8  and  O_9
REMARK    4  A    between atoms: C_15  and  C_16
REMARK                            x       y       z     vdW  Elec       q    Type
REMARK                         _______ _______ _______ _____ _____    ______ ____
ROOT
ATOM      1  N   UNL     1       3.383   4.594  19.959  0.00  0.00    +0.000 NA
ATOM      2  C   UNL     1       2.469   4.965  21.063  0.00  0.00    +0.000 C 
ATOM      3  C   UNL     1       1.275   5.824  20.626  0.00  0.00    +0.000 C 
ATOM      4  C   UNL     1       1.750   7.107  19.936  0.00  0.00    +0.000 C 
ATOM      5  C   UNL     1       0.571   7.901  19.343  0.00  0.00    +0.000 C 
ATOM      6  C   UNL     1       1.036   9.191  18.659  0.00  0.00    +0.000 C 
ATOM      7  C   UNL     1       2.139   8.938  17.639  0.00  0.00    +0.000 C 
ATOM      8  C   UNL     1       3.293   8.123  18.222  0.00  0.00    +0.000 C 
ATOM      9  C   UNL     1       2.774   6.793  18.817  0.00  0.00    +0.000 C 
ATOM     10  C   UNL     1       3.909   5.852  19.333  0.00  0.00    +0.000 C 
ENDROOT
BRANCH  10  11
ATOM     11  C   UNL     1       5.022   5.558  18.313  0.00  0.00    +0.000 A 
ATOM     12  C   UNL     1       6.369   5.344  18.701  0.00  0.00    +0.000 A 
ATOM     13  C   UNL     1       7.362   5.029  17.766  0.00  0.00    +0.000 A 
ATOM     14  C   UNL     1       6.992   4.956  16.445  0.00  0.00    +0.000 A 
ATOM     15  C   UNL     1       5.695   5.174  16.043  0.00  0.00    +0.000 A 
ATOM     16  C   UNL     1       4.695   5.479  16.944  0.00  0.00    +0.000 A 
ATOM     17  O   UNL     1       5.544   5.040  14.698  0.00  0.00    +0.000 OA
ATOM     18  C   UNL     1       6.900   4.747  14.298  0.00  0.00    +0.000 C 
ATOM     19  O   UNL     1       7.820   4.663  15.407  0.00  0.00    +0.000 OA
ENDBRANCH  10  11
BRANCH   4  20
ATOM     20  O   UNL     1       2.375   7.926  20.935  0.00  0.00    +0.000 OA
ATOM     21  H   UNL     1       1.696   8.508  21.319  0.00  0.00    +0.000 HD
ENDBRANCH   4  20
BRANCH   1  22
ATOM     22  C   UNL     1       2.734   3.685  18.982  0.00  0.00    +0.000 C 
BRANCH  22  24
ATOM     23  N   UNL     1       4.642   2.221  19.498  0.00  0.00    +0.000 N 
ATOM     24  C   UNL     1       3.501   2.374  18.763  0.00  0.00    +0.000 C 
ATOM     25  O   UNL     1       3.165   1.535  17.936  0.00  0.00    +0.000 OA
ATOM     26  H   UNL     1       5.152   1.356  19.389  0.00  0.00    +0.000 HD
ATOM     27  H   UNL     1       4.768   2.768  20.340  0.00  0.00    +0.000 HD
ENDBRANCH  22  24
ENDBRANCH   1  22
TORSDOF 4
ENDMDL
MODEL 7
REMARK VINA RESULT:      -7.1      2.202      6.248
REMARK  Name = 
REMARK  4 active torsions:
REMARK  status: ('A' for Active; 'I' for Inactive)
REMARK    1  A    between atoms: C_2  and  C_4
REMARK    2  A    between atoms: C_4  and  N_5
REMARK    3  A    between atoms: C_8  and  O_9
REMARK    4  A    between atoms: C_15  and  C_16
REMARK                            x       y       z     vdW  Elec       q    Type
REMARK                         _______ _______ _______ _____ _____    ______ ____
ROOT
ATOM      1  N   UNL     1       2.387   5.596  18.064  0.00  0.00    +0.000 NA
ATOM      2  C   UNL     1       1.127   5.154  18.703  0.00  0.00    +0.000 C 
ATOM      3  C   UNL     1       1.309   4.562  20.107  0.00  0.00    +0.000 C 
ATOM      4  C   UNL     1       2.281   3.377  20.077  0.00  0.00    +0.000 C 
ATOM      5  C   UNL     1       2.606   2.876  21.497  0.00  0.00    +0.000 C 
ATOM      6  C   UNL     1       3.570   1.685  21.476  0.00  0.00    +0.000 C 
ATOM      7  C   UNL     1       4.824   1.971  20.658  0.00  0.00    +0.000 C 
ATOM      8  C   UNL     1       4.497   2.498  19.260  0.00  0.00    +0.000 C 
ATOM      9  C   UNL     1       3.596   3.752  19.349  0.00  0.00    +0.000 C 
ATOM     10  C   UNL     1       3.310   4.416  17.965  0.00  0.00    +0.000 C 
ENDROOT
BRANCH  10  11
ATOM     11  C   UNL     1       4.559   4.740  17.130  0.00  0.00    +0.000 A 
ATOM     12  C   UNL     1       5.660   5.461  17.660  0.00  0.00    +0.000 A 
ATOM     13  C   UNL     1       6.811   5.706  16.902  0.00  0.00    +0.000 A 
ATOM     14  C   UNL     1       6.833   5.243  15.609  0.00  0.00    +0.000 A 
ATOM     15  C   UNL     1       5.772   4.555  15.068  0.00  0.00    +0.000 A 
ATOM     16  C   UNL     1       4.628   4.293  15.795  0.00  0.00    +0.000 A 
ATOM     17  O   UNL     1       6.005   4.177  13.783  0.00  0.00    +0.000 OA
ATOM     18  C   UNL     1       7.319   4.736  13.568  0.00  0.00    +0.000 C 
ATOM     19  O   UNL     1       7.863   5.389  14.733  0.00  0.00    +0.000 OA
ENDBRANCH  10  11
BRANCH   4  20
ATOM     20  O   UNL     1       1.634   2.309  19.369  0.00  0.00    +0.000 OA
ATOM     21  H   UNL     1       1.533   1.558  19.981  0.00  0.00    +0.000 HD
ENDBRANCH   4  20
BRANCH   1  22
ATOM     22  C   UNL     1       2.993   6.751  18.772  0.00  0.00    +0.000 C 
BRANCH  22  24
ATOM     23  N   UNL     1       1.590   8.653  19.452  0.00  0.00    +0.000 N 
ATOM     24  C   UNL     1       2.320   8.090  18.444  0.00  0.00    +0.000 C 
ATOM     25  O   UNL     1       2.367   8.606  17.333  0.00  0.00    +0.000 OA
ATOM     26  H   UNL     1       1.158   9.548  19.268  0.00  0.00    +0.000 HD
ATOM     27  H   UNL     1       1.766   8.375  20.409  0.00  0.00    +0.000 HD
ENDBRANCH  22  24
ENDBRANCH   1  22
TORSDOF 4
ENDMDL
MODEL 8
REMARK VINA RESULT:      -7.1      3.317      7.309
REMARK  Name = 
REMARK  4 active torsions:
REMARK  status: ('A' for Active; 'I' for Inactive)
REMARK    1  A    between atoms: C_2  and  C_4
REMARK    2  A    between atoms: C_4  and  N_5
REMARK    3  A    between atoms: C_8  and  O_9
REMARK    4  A    between atoms: C_15  and  C_16
REMARK                            x       y       z     vdW  Elec       q    Type
REMARK                         _______ _______ _______ _____ _____    ______ ____
ROOT
ATOM      1  N   UNL     1       0.227  10.913  20.624  0.00  0.00    +0.000 NA
ATOM      2  C   UNL     1      -0.510  12.190  20.757  0.00  0.00    +0.000 C 
ATOM      3  C   UNL     1      -1.966  12.128  20.277  0.00  0.00    +0.000 C 
ATOM      4  C   UNL     1      -2.038  11.675  18.814  0.00  0.00    +0.000 C 
ATOM      5  C   UNL     1      -3.493  11.445  18.364  0.00  0.00    +0.000 C 
ATOM      6  C   UNL     1      -3.575  11.001  16.900  0.00  0.00    +0.000 C 
ATOM      7  C   UNL     1      -2.679   9.803  16.608  0.00  0.00    +0.000 C 
ATOM      8  C   UNL     1      -1.243  10.023  17.085  0.00  0.00    +0.000 C 
ATOM      9  C   UNL     1      -1.218  10.380  18.590  0.00  0.00    +0.000 C 
ATOM     10  C   UNL     1       0.222  10.510  19.178  0.00  0.00    +0.000 C 
ENDROOT
BRANCH  10  11
ATOM     11  C   UNL     1       1.139   9.303  18.922  0.00  0.00    +0.000 A 
ATOM     12  C   UNL     1       2.001   9.230  17.798  0.00  0.00    +0.000 A 
ATOM     13  C   UNL     1       2.866   8.147  17.604  0.00  0.00    +0.000 A 
ATOM     14  C   UNL     1       2.837   7.135  18.533  0.00  0.00    +0.000 A 
ATOM     15  C   UNL     1       2.000   7.176  19.623  0.00  0.00    +0.000 A 
ATOM     16  C   UNL     1       1.143   8.235  19.842  0.00  0.00    +0.000 A 
ATOM     17  O   UNL     1       2.141   6.084  20.421  0.00  0.00    +0.000 OA
ATOM     18  C   UNL     1       3.136   5.337  19.690  0.00  0.00    +0.000 C 
ATOM     19  O   UNL     1       3.605   6.013  18.505  0.00  0.00    +0.000 OA
ENDBRANCH  10  11
BRANCH   4  20
ATOM     20  O   UNL     1      -1.489  12.730  18.011  0.00  0.00    +0.000 OA
ATOM     21  H   UNL     1      -0.621  12.972  18.381  0.00  0.00    +0.000 HD
ENDBRANCH   4  20
BRANCH   1  22
ATOM     22  C   UNL     1      -0.314   9.864  21.523  0.00  0.00    +0.000 C 
BRANCH  22  24
ATOM     23  N   UNL     1      -0.123   9.401  23.931  0.00  0.00    +0.000 N 
ATOM     24  C   UNL     1       0.554   9.616  22.765  0.00  0.00    +0.000 C 
ATOM     25  O   UNL     1       1.778   9.671  22.745  0.00  0.00    +0.000 OA
ATOM     26  H   UNL     1       0.426   9.210  24.758  0.00  0.00    +0.000 HD
ATOM     27  H   UNL     1      -1.089   9.100  23.897  0.00  0.00    +0.000 HD
ENDBRANCH  22  24
ENDBRANCH   1  22
TORSDOF 4
ENDMDL
MODEL 9
REMARK VINA RESULT:      -7.1      3.305      5.912
REMARK  Name = 
REMARK  4 active torsions:
REMARK  status: ('A' for Active; 'I' for Inactive)
REMARK    1  A    between atoms: C_2  and  C_4
REMARK    2  A    between atoms: C_4  and  N_5
REMARK    3  A    between atoms: C_8  and  O_9
REMARK    4  A    between atoms: C_15  and  C_16
REMARK                            x       y       z     vdW  Elec       q    Type
REMARK                         _______ _______ _______ _____ _____    ______ ____
ROOT
ATOM      1  N   UNL     1       4.947   3.233  17.148  0.00  0.00    +0.000 NA
ATOM      2  C   UNL     1       4.043   2.061  17.211  0.00  0.00    +0.000 C 
ATOM      3  C   UNL     1       2.578   2.414  17.500  0.00  0.00    +0.000 C 
ATOM      4  C   UNL     1       2.454   3.195  18.813  0.00  0.00    +0.000 C 
ATOM      5  C   UNL     1       1.017   3.702  19.035  0.00  0.00    +0.000 C 
ATOM      6  C   UNL     1       0.881   4.477  20.350  0.00  0.00    +0.000 C 
ATOM      7  C   UNL     1       1.917   5.588  20.476  0.00  0.00    +0.000 C 
ATOM      8  C   UNL     1       3.339   5.087  20.222  0.00  0.00    +0.000 C 
ATOM      9  C   UNL     1       3.434   4.395  18.843  0.00  0.00    +0.000 C 
ATOM     10  C   UNL     1       4.883   3.954  18.462  0.00  0.00    +0.000 C 
ENDROOT
BRANCH  10  11
ATOM     11  C   UNL     1       5.944   5.064  18.554  0.00  0.00    +0.000 A 
ATOM     12  C   UNL     1       7.087   4.954  19.385  0.00  0.00    +0.000 A 
ATOM     13  C   UNL     1       8.069   5.951  19.421  0.00  0.00    +0.000 A 
ATOM     14  C   UNL     1       7.877   7.061  18.635  0.00  0.00    +0.000 A 
ATOM     15  C   UNL     1       6.769   7.197  17.832  0.00  0.00    +0.000 A 
ATOM     16  C   UNL     1       5.790   6.226  17.772  0.00  0.00    +0.000 A 
ATOM     17  O   UNL     1       6.783   8.362  17.129  0.00  0.00    +0.000 OA
ATOM     18  C   UNL     1       8.008   8.956  17.609  0.00  0.00    +0.000 C 
ATOM     19  O   UNL     1       8.723   8.122  18.544  0.00  0.00    +0.000 OA
ENDBRANCH  10  11
BRANCH   4  20
ATOM     20  O   UNL     1       2.775   2.293  19.881  0.00  0.00    +0.000 OA
ATOM     21  H   UNL     1       2.618   2.754  20.724  0.00  0.00    +0.000 HD
ENDBRANCH   4  20
BRANCH   1  22
ATOM     22  C   UNL     1       4.641   4.107  15.988  0.00  0.00    +0.000 C 
BRANCH  22  24
ATOM     23  N   UNL     1       5.353   3.965  13.638  0.00  0.00    +0.000 N 
ATOM     24  C   UNL     1       5.755   4.133  14.933  0.00  0.00    +0.000 C 
ATOM     25  O   UNL     1       6.943   4.230  15.218  0.00  0.00    +0.000 OA
ATOM     26  H   UNL     1       6.065   4.004  12.922  0.00  0.00    +0.000 HD
ATOM     27  H   UNL     1       4.389   4.148  13.389  0.00  0.00    +0.000 HD
ENDBRANCH  22  24
ENDBRANCH   1  22
TORSDOF 4
ENDMDL
