MODEL 1
REMARK VINA RESULT:      -7.3      0.000      0.000
REMARK  Name = 
REMARK  11 active torsions:
REMARK  status: ('A' for Active; 'I' for Inactive)
REMARK    1  A    between atoms: C_2  and  C_3
REMARK    2  A    between atoms: C_3  and  C_4
REMARK    3  A    between atoms: C_4  and  C_5
REMARK    4  A    between atoms: C_9  and  C_10
REMARK    5  A    between atoms: C_10  and  C_11
REMARK    6  A    between atoms: C_10  and  O_12
REMARK    7  A    between atoms: O_12  and  C_13
REMARK    8  A    between atoms: C_13  and  C_15
REMARK    9  A    between atoms: C_15  and  O_16
REMARK   10  A    between atoms: O_16  and  C_17
REMARK   11  A    between atoms: C_17  and  C_18
REMARK                            x       y       z     vdW  Elec       q    Type
REMARK                         _______ _______ _______ _____ _____    ______ ____
ROOT
ATOM      1  C   UNL     1       6.432   5.644  16.918  0.00  0.00    +0.000 C 
ATOM      2  C   UNL     1       7.058   4.746  15.851  0.00  0.00    +0.000 C 
ENDROOT
BRANCH   1   7
ATOM      3  C   UNL     1       2.789   6.328  19.444  0.00  0.00    +0.000 C 
ATOM      4  O   UNL     1       2.085   7.340  19.445  0.00  0.00    +0.000 OA
ATOM      5  N   UNL     1       3.767   6.116  18.497  0.00  0.00    +0.000 N 
ATOM      6  C   UNL     1       4.176   6.964  17.380  0.00  0.00    +0.000 C 
ATOM      7  C   UNL     1       4.908   5.721  16.819  0.00  0.00    +0.000 C 
ATOM      8  C   UNL     1       4.151   4.951  17.899  0.00  0.00    +0.000 C 
ATOM      9  O   UNL     1       4.046   3.788  18.217  0.00  0.00    +0.000 OA
BRANCH   3  10
ATOM     10  C   UNL     1       2.619   5.224  20.472  0.00  0.00    +0.000 C 
BRANCH  10  11
ATOM     11  C   UNL     1       1.268   4.530  20.297  0.00  0.00    +0.000 C 
BRANCH  11  13
ATOM     12  C   UNL     1       2.274   2.591  21.519  0.00  0.00    +0.000 C 
ATOM     13  C   UNL     1       1.226   3.164  20.914  0.00  0.00    +0.000 C 
ENDBRANCH  11  13
ENDBRANCH  10  11
ENDBRANCH   3  10
ENDBRANCH   1   7
BRANCH   1  14
ATOM     14  O   UNL     1       6.982   6.971  16.750  0.00  0.00    +0.000 OA
BRANCH  14  15
ATOM     15  C   UNL     1       7.683   7.435  17.823  0.00  0.00    +0.000 C 
ATOM     16  O   UNL     1       8.088   6.728  18.736  0.00  0.00    +0.000 OA
BRANCH  15  17
ATOM     17  C   UNL     1       7.917   8.938  17.719  0.00  0.00    +0.000 C 
BRANCH  17  18
ATOM     18  O   UNL     1       8.818   9.455  18.692  0.00  0.00    +0.000 OA
BRANCH  18  19
ATOM     19  C   UNL     1       9.492  10.627  18.229  0.00  0.00    +0.000 C 
BRANCH  19  20
ATOM     20  C   UNL     1       9.619  11.606  19.363  0.00  0.00    +0.000 A 
ATOM     21  C   UNL     1      10.023  12.926  19.116  0.00  0.00    +0.000 A 
ATOM     22  C   UNL     1      10.139  13.840  20.164  0.00  0.00    +0.000 A 
ATOM     23  C   UNL     1       9.846  13.443  21.468  0.00  0.00    +0.000 A 
ATOM     24  C   UNL     1       9.429  12.137  21.722  0.00  0.00    +0.000 A 
ATOM     25  C   UNL     1       9.312  11.223  20.675  0.00  0.00    +0.000 A 
ENDBRANCH  19  20
ENDBRANCH  18  19
ENDBRANCH  17  18
ENDBRANCH  15  17
ENDBRANCH  14  15
ENDBRANCH   1  14
TORSDOF 10
ENDMDL
MODEL 2
REMARK VINA RESULT:      -7.0      4.934      7.376
REMARK  Name = 
REMARK  11 active torsions:
REMARK  status: ('A' for Active; 'I' for Inactive)
REMARK    1  A    between atoms: C_2  and  C_3
REMARK    2  A    between atoms: C_3  and  C_4
REMARK    3  A    between atoms: C_4  and  C_5
REMARK    4  A    between atoms: C_9  and  C_10
REMARK    5  A    between atoms: C_10  and  C_11
REMARK    6  A    between atoms: C_10  and  O_12
REMARK    7  A    between atoms: O_12  and  C_13
REMARK    8  A    between atoms: C_13  and  C_15
REMARK    9  A    between atoms: C_15  and  O_16
REMARK   10  A    between atoms: O_16  and  C_17
REMARK   11  A    between atoms: C_17  and  C_18
REMARK                            x       y       z     vdW  Elec       q    Type
REMARK                         _______ _______ _______ _____ _____    ______ ____
ROOT
ATOM      1  C   UNL     1       4.893   5.074  17.278  0.00  0.00    +0.000 C 
ATOM      2  C   UNL     1       3.933   6.113  17.857  0.00  0.00    +0.000 C 
ENDROOT
BRANCH   1   7
ATOM      3  C   UNL     1       1.759   2.615  19.341  0.00  0.00    +0.000 C 
ATOM      4  O   UNL     1       0.721   2.187  18.834  0.00  0.00    +0.000 OA
ATOM      5  N   UNL     1       2.762   3.187  18.590  0.00  0.00    +0.000 N 
ATOM      6  C   UNL     1       2.826   3.414  17.148  0.00  0.00    +0.000 C 
ATOM      7  C   UNL     1       4.343   3.648  17.340  0.00  0.00    +0.000 C 
ATOM      8  C   UNL     1       4.115   3.104  18.749  0.00  0.00    +0.000 C 
ATOM      9  O   UNL     1       4.818   2.847  19.700  0.00  0.00    +0.000 OA
BRANCH   3  10
ATOM     10  C   UNL     1       2.026   2.526  20.833  0.00  0.00    +0.000 C 
BRANCH  10  11
ATOM     11  C   UNL     1       2.063   3.921  21.457  0.00  0.00    +0.000 C 
BRANCH  11  13
ATOM     12  C   UNL     1       1.596   6.275  20.744  0.00  0.00    +0.000 C 
ATOM     13  C   UNL     1       1.386   4.960  20.612  0.00  0.00    +0.000 C 
ENDBRANCH  11  13
ENDBRANCH  10  11
ENDBRANCH   3  10
ENDBRANCH   1   7
BRANCH   1  14
ATOM     14  O   UNL     1       6.120   5.138  18.042  0.00  0.00    +0.000 OA
BRANCH  14  15
ATOM     15  C   UNL     1       7.246   4.843  17.334  0.00  0.00    +0.000 C 
ATOM     16  O   UNL     1       8.199   4.223  17.787  0.00  0.00    +0.000 OA
BRANCH  15  17
ATOM     17  C   UNL     1       7.148   5.361  15.904  0.00  0.00    +0.000 C 
BRANCH  17  18
ATOM     18  O   UNL     1       7.461   4.390  14.911  0.00  0.00    +0.000 OA
BRANCH  18  19
ATOM     19  C   UNL     1       7.343   4.919  13.588  0.00  0.00    +0.000 C 
BRANCH  19  20
ATOM     20  C   UNL     1       6.561   3.956  12.738  0.00  0.00    +0.000 A 
ATOM     21  C   UNL     1       5.160   4.018  12.704  0.00  0.00    +0.000 A 
ATOM     22  C   UNL     1       4.431   3.129  11.914  0.00  0.00    +0.000 A 
ATOM     23  C   UNL     1       5.095   2.175  11.145  0.00  0.00    +0.000 A 
ATOM     24  C   UNL     1       6.488   2.116  11.160  0.00  0.00    +0.000 A 
ATOM     25  C   UNL     1       7.219   3.003  11.949  0.00  0.00    +0.000 A 
ENDBRANCH  19  20
ENDBRANCH  18  19
ENDBRANCH  17  18
ENDBRANCH  15  17
ENDBRANCH  14  15
ENDBRANCH   1  14
TORSDOF 10
ENDMDL
MODEL 3
REMARK VINA RESULT:      -6.8      4.127      8.381
REMARK  Name = 
REMARK  11 active torsions:
REMARK  status: ('A' for Active; 'I' for Inactive)
REMARK    1  A    between atoms: C_2  and  C_3
REMARK    2  A    between atoms: C_3  and  C_4
REMARK    3  A    between atoms: C_4  and  C_5
REMARK    4  A    between atoms: C_9  and  C_10
REMARK    5  A    between atoms: C_10  and  C_11
REMARK    6  A    between atoms: C_10  and  O_12
REMARK    7  A    between atoms: O_12  and  C_13
REMARK    8  A    between atoms: C_13  and  C_15
REMARK    9  A    between atoms: C_15  and  O_16
REMARK   10  A    between atoms: O_16  and  C_17
REMARK   11  A    between atoms: C_17  and  C_18
REMARK                            x       y       z     vdW  Elec       q    Type
REMARK                         _______ _______ _______ _____ _____    ______ ____
ROOT
ATOM      1  C   UNL     1       6.669   5.580  17.290  0.00  0.00    +0.000 C 
ATOM      2  C   UNL     1       7.195   6.980  16.973  0.00  0.00    +0.000 C 
ENDROOT
BRANCH   1   7
ATOM      3  C   UNL     1       6.305   4.088  13.076  0.00  0.00    +0.000 C 
ATOM      4  O   UNL     1       7.141   4.227  12.181  0.00  0.00    +0.000 OA
ATOM      5  N   UNL     1       6.578   4.396  14.390  0.00  0.00    +0.000 N 
ATOM      6  C   UNL     1       7.805   4.924  14.983  0.00  0.00    +0.000 C 
ATOM      7  C   UNL     1       7.220   4.505  16.353  0.00  0.00    +0.000 C 
ATOM      8  C   UNL     1       6.167   3.766  15.528  0.00  0.00    +0.000 C 
ATOM      9  O   UNL     1       5.233   3.037  15.775  0.00  0.00    +0.000 OA
BRANCH   3  10
ATOM     10  C   UNL     1       4.913   3.545  12.804  0.00  0.00    +0.000 C 
BRANCH  10  11
ATOM     11  C   UNL     1       4.780   3.115  11.343  0.00  0.00    +0.000 C 
BRANCH  11  13
ATOM     12  C   UNL     1       3.071   4.019   9.753  0.00  0.00    +0.000 C 
ATOM     13  C   UNL     1       3.384   3.264  10.813  0.00  0.00    +0.000 C 
ENDBRANCH  11  13
ENDBRANCH  10  11
ENDBRANCH   3  10
ENDBRANCH   1   7
BRANCH   1  14
ATOM     14  O   UNL     1       5.228   5.616  17.169  0.00  0.00    +0.000 OA
BRANCH  14  15
ATOM     15  C   UNL     1       4.575   6.045  18.286  0.00  0.00    +0.000 C 
ATOM     16  O   UNL     1       4.876   5.718  19.426  0.00  0.00    +0.000 OA
BRANCH  15  17
ATOM     17  C   UNL     1       3.444   7.002  17.928  0.00  0.00    +0.000 C 
BRANCH  17  18
ATOM     18  O   UNL     1       2.167   6.598  18.409  0.00  0.00    +0.000 OA
BRANCH  18  19
ATOM     19  C   UNL     1       1.747   5.357  17.837  0.00  0.00    +0.000 C 
BRANCH  19  20
ATOM     20  C   UNL     1       1.688   4.311  18.915  0.00  0.00    +0.000 A 
ATOM     21  C   UNL     1       1.658   4.687  20.266  0.00  0.00    +0.000 A 
ATOM     22  C   UNL     1       1.600   3.720  21.270  0.00  0.00    +0.000 A 
ATOM     23  C   UNL     1       1.565   2.368  20.932  0.00  0.00    +0.000 A 
ATOM     24  C   UNL     1       1.579   1.984  19.592  0.00  0.00    +0.000 A 
ATOM     25  C   UNL     1       1.637   2.949  18.587  0.00  0.00    +0.000 A 
ENDBRANCH  19  20
ENDBRANCH  18  19
ENDBRANCH  17  18
ENDBRANCH  15  17
ENDBRANCH  14  15
ENDBRANCH   1  14
TORSDOF 10
ENDMDL
MODEL 4
REMARK VINA RESULT:      -6.8      1.887      2.520
REMARK  Name = 
REMARK  11 active torsions:
REMARK  status: ('A' for Active; 'I' for Inactive)
REMARK    1  A    between atoms: C_2  and  C_3
REMARK    2  A    between atoms: C_3  and  C_4
REMARK    3  A    between atoms: C_4  and  C_5
REMARK    4  A    between atoms: C_9  and  C_10
REMARK    5  A    between atoms: C_10  and  C_11
REMARK    6  A    between atoms: C_10  and  O_12
REMARK    7  A    between atoms: O_12  and  C_13
REMARK    8  A    between atoms: C_13  and  C_15
REMARK    9  A    between atoms: C_15  and  O_16
REMARK   10  A    between atoms: O_16  and  C_17
REMARK   11  A    between atoms: C_17  and  C_18
REMARK                            x       y       z     vdW  Elec       q    Type
REMARK                         _______ _______ _______ _____ _____    ______ ____
ROOT
ATOM      1  C   UNL     1       6.042   6.051  16.682  0.00  0.00    +0.000 C 
ATOM      2  C   UNL     1       4.795   6.734  16.118  0.00  0.00    +0.000 C 
ENDROOT
BRANCH   1   7
ATOM      3  C   UNL     1       3.305   2.887  18.300  0.00  0.00    +0.000 C 
ATOM      4  O   UNL     1       2.568   2.155  17.637  0.00  0.00    +0.000 OA
ATOM      5  N   UNL     1       4.260   3.690  17.717  0.00  0.00    +0.000 N 
ATOM      6  C   UNL     1       4.590   3.861  16.304  0.00  0.00    +0.000 C 
ATOM      7  C   UNL     1       5.900   4.532  16.781  0.00  0.00    +0.000 C 
ATOM      8  C   UNL     1       5.510   4.008  18.162  0.00  0.00    +0.000 C 
ATOM      9  O   UNL     1       6.018   4.007  19.260  0.00  0.00    +0.000 OA
BRANCH   3  10
ATOM     10  C   UNL     1       3.235   2.945  19.816  0.00  0.00    +0.000 C 
BRANCH  10  11
ATOM     11  C   UNL     1       1.783   3.050  20.283  0.00  0.00    +0.000 C 
BRANCH  11  13
ATOM     12  C   UNL     1       1.617   5.517  20.672  0.00  0.00    +0.000 C 
ATOM     13  C   UNL     1       1.191   4.409  20.054  0.00  0.00    +0.000 C 
ENDBRANCH  11  13
ENDBRANCH  10  11
ENDBRANCH   3  10
ENDBRANCH   1   7
BRANCH   1  14
ATOM     14  O   UNL     1       6.276   6.589  18.003  0.00  0.00    +0.000 OA
BRANCH  14  15
ATOM     15  C   UNL     1       7.564   6.966  18.243  0.00  0.00    +0.000 C 
ATOM     16  O   UNL     1       8.311   6.397  19.028  0.00  0.00    +0.000 OA
BRANCH  15  17
ATOM     17  C   UNL     1       7.954   8.166  17.388  0.00  0.00    +0.000 C 
BRANCH  17  18
ATOM     18  O   UNL     1       7.855   9.416  18.061  0.00  0.00    +0.000 OA
BRANCH  18  19
ATOM     19  C   UNL     1       8.980   9.659  18.908  0.00  0.00    +0.000 C 
BRANCH  19  20
ATOM     20  C   UNL     1       9.573  10.999  18.571  0.00  0.00    +0.000 A 
ATOM     21  C   UNL     1      10.903  11.290  18.910  0.00  0.00    +0.000 A 
ATOM     22  C   UNL     1      11.459  12.530  18.596  0.00  0.00    +0.000 A 
ATOM     23  C   UNL     1      10.693  13.489  17.935  0.00  0.00    +0.000 A 
ATOM     24  C   UNL     1       9.375  13.204  17.580  0.00  0.00    +0.000 A 
ATOM     25  C   UNL     1       8.818  11.965  17.893  0.00  0.00    +0.000 A 
ENDBRANCH  19  20
ENDBRANCH  18  19
ENDBRANCH  17  18
ENDBRANCH  15  17
ENDBRANCH  14  15
ENDBRANCH   1  14
TORSDOF 10
ENDMDL
MODEL 5
REMARK VINA RESULT:      -6.8      1.358      1.772
REMARK  Name = 
REMARK  11 active torsions:
REMARK  status: ('A' for Active; 'I' for Inactive)
REMARK    1  A    between atoms: C_2  and  C_3
REMARK    2  A    between atoms: C_3  and  C_4
REMARK    3  A    between atoms: C_4  and  C_5
REMARK    4  A    between atoms: C_9  and  C_10
REMARK    5  A    between atoms: C_10  and  C_11
REMARK    6  A    between atoms: C_10  and  O_12
REMARK    7  A    between atoms: O_12  and  C_13
REMARK    8  A    between atoms: C_13  and  C_15
REMARK    9  A    between atoms: C_15  and  O_16
REMARK   10  A    between atoms: O_16  and  C_17
REMARK   11  A    between atoms: C_17  and  C_18
REMARK                            x       y       z     vdW  Elec       q    Type
REMARK                         _______ _______ _______ _____ _____    ______ ____
ROOT
ATOM      1  C   UNL     1       6.327   5.771  16.731  0.00  0.00    +0.000 C 
ATOM      2  C   UNL     1       5.440   6.217  15.568  0.00  0.00    +0.000 C 
ENDROOT
BRANCH   1   7
ATOM      3  C   UNL     1       2.541   3.607  17.779  0.00  0.00    +0.000 C 
ATOM      4  O   UNL     1       2.114   2.585  17.238  0.00  0.00    +0.000 OA
ATOM      5  N   UNL     1       3.807   4.092  17.536  0.00  0.00    +0.000 N 
ATOM      6  C   UNL     1       4.846   3.570  16.652  0.00  0.00    +0.000 C 
ATOM      7  C   UNL     1       5.831   4.493  17.408  0.00  0.00    +0.000 C 
ATOM      8  C   UNL     1       4.682   4.690  18.396  0.00  0.00    +0.000 C 
ATOM      9  O   UNL     1       4.537   5.272  19.446  0.00  0.00    +0.000 OA
BRANCH   3  10
ATOM     10  C   UNL     1       1.713   4.399  18.776  0.00  0.00    +0.000 C 
BRANCH  10  11
ATOM     11  C   UNL     1       0.915   3.460  19.679  0.00  0.00    +0.000 C 
BRANCH  11  13
ATOM     12  C   UNL     1       2.293   2.950  21.705  0.00  0.00    +0.000 C 
ATOM     13  C   UNL     1       1.785   2.578  20.524  0.00  0.00    +0.000 C 
ENDBRANCH  11  13
ENDBRANCH  10  11
ENDBRANCH   3  10
ENDBRANCH   1   7
BRANCH   1  14
ATOM     14  O   UNL     1       6.346   6.841  17.703  0.00  0.00    +0.000 OA
BRANCH  14  15
ATOM     15  C   UNL     1       7.587   7.171  18.161  0.00  0.00    +0.000 C 
ATOM     16  O   UNL     1       8.248   6.469  18.915  0.00  0.00    +0.000 OA
BRANCH  15  17
ATOM     17  C   UNL     1       8.047   8.507  17.592  0.00  0.00    +0.000 C 
BRANCH  17  18
ATOM     18  O   UNL     1       8.358   9.484  18.579  0.00  0.00    +0.000 OA
BRANCH  18  19
ATOM     19  C   UNL     1       9.287  10.457  18.096  0.00  0.00    +0.000 C 
BRANCH  19  20
ATOM     20  C   UNL     1       9.464  11.530  19.134  0.00  0.00    +0.000 A 
ATOM     21  C   UNL     1       9.361  12.883  18.777  0.00  0.00    +0.000 A 
ATOM     22  C   UNL     1       9.520  13.883  19.736  0.00  0.00    +0.000 A 
ATOM     23  C   UNL     1       9.778  13.540  21.063  0.00  0.00    +0.000 A 
ATOM     24  C   UNL     1       9.866  12.198  21.430  0.00  0.00    +0.000 A 
ATOM     25  C   UNL     1       9.707  11.197  20.473  0.00  0.00    +0.000 A 
ENDBRANCH  19  20
ENDBRANCH  18  19
ENDBRANCH  17  18
ENDBRANCH  15  17
ENDBRANCH  14  15
ENDBRANCH   1  14
TORSDOF 10
ENDMDL
MODEL 6
REMARK VINA RESULT:      -6.7      4.958      7.353
REMARK  Name = 
REMARK  11 active torsions:
REMARK  status: ('A' for Active; 'I' for Inactive)
REMARK    1  A    between atoms: C_2  and  C_3
REMARK    2  A    between atoms: C_3  and  C_4
REMARK    3  A    between atoms: C_4  and  C_5
REMARK    4  A    between atoms: C_9  and  C_10
REMARK    5  A    between atoms: C_10  and  C_11
REMARK    6  A    between atoms: C_10  and  O_12
REMARK    7  A    between atoms: O_12  and  C_13
REMARK    8  A    between atoms: C_13  and  C_15
REMARK    9  A    between atoms: C_15  and  O_16
REMARK   10  A    between atoms: O_16  and  C_17
REMARK   11  A    between atoms: C_17  and  C_18
REMARK                            x       y       z     vdW  Elec       q    Type
REMARK                         _______ _______ _______ _____ _____    ______ ____
ROOT
ATOM      1  C   UNL     1       2.093   4.337  19.460  0.00  0.00    +0.000 C 
ATOM      2  C   UNL     1       1.089   3.529  20.282  0.00  0.00    +0.000 C 
ENDROOT
BRANCH   1   7
ATOM      3  C   UNL     1       6.192   4.729  17.681  0.00  0.00    +0.000 C 
ATOM      4  O   UNL     1       7.256   4.463  18.242  0.00  0.00    +0.000 OA
ATOM      5  N   UNL     1       4.972   4.391  18.222  0.00  0.00    +0.000 N 
ATOM      6  C   UNL     1       4.673   3.711  19.481  0.00  0.00    +0.000 C 
ATOM      7  C   UNL     1       3.247   3.490  18.921  0.00  0.00    +0.000 C 
ATOM      8  C   UNL     1       3.836   3.969  17.595  0.00  0.00    +0.000 C 
ATOM      9  O   UNL     1       3.428   4.088  16.462  0.00  0.00    +0.000 OA
BRANCH   3  10
ATOM     10  C   UNL     1       6.142   5.431  16.335  0.00  0.00    +0.000 C 
BRANCH  10  11
ATOM     11  C   UNL     1       7.028   4.710  15.319  0.00  0.00    +0.000 C 
BRANCH  11  13
ATOM     12  C   UNL     1       5.725   3.933  13.328  0.00  0.00    +0.000 C 
ATOM     13  C   UNL     1       6.285   3.682  14.518  0.00  0.00    +0.000 C 
ENDBRANCH  11  13
ENDBRANCH  10  11
ENDBRANCH   3  10
ENDBRANCH   1   7
BRANCH   1  14
ATOM     14  O   UNL     1       2.629   5.371  20.316  0.00  0.00    +0.000 OA
BRANCH  14  15
ATOM     15  C   UNL     1       2.119   6.615  20.093  0.00  0.00    +0.000 C 
ATOM     16  O   UNL     1       1.394   7.211  20.879  0.00  0.00    +0.000 OA
BRANCH  15  17
ATOM     17  C   UNL     1       2.589   7.171  18.754  0.00  0.00    +0.000 C 
BRANCH  17  18
ATOM     18  O   UNL     1       2.455   8.583  18.631  0.00  0.00    +0.000 OA
BRANCH  18  19
ATOM     19  C   UNL     1       1.443   8.944  17.688  0.00  0.00    +0.000 C 
BRANCH  19  20
ATOM     20  C   UNL     1       0.421   9.813  18.366  0.00  0.00    +0.000 A 
ATOM     21  C   UNL     1      -0.824  10.043  17.764  0.00  0.00    +0.000 A 
ATOM     22  C   UNL     1      -1.778  10.845  18.391  0.00  0.00    +0.000 A 
ATOM     23  C   UNL     1      -1.497  11.420  19.629  0.00  0.00    +0.000 A 
ATOM     24  C   UNL     1      -0.267  11.186  20.243  0.00  0.00    +0.000 A 
ATOM     25  C   UNL     1       0.686  10.384  19.618  0.00  0.00    +0.000 A 
ENDBRANCH  19  20
ENDBRANCH  18  19
ENDBRANCH  17  18
ENDBRANCH  15  17
ENDBRANCH  14  15
ENDBRANCH   1  14
TORSDOF 10
ENDMDL
MODEL 7
REMARK VINA RESULT:      -6.7      4.027      8.475
REMARK  Name = 
REMARK  11 active torsions:
REMARK  status: ('A' for Active; 'I' for Inactive)
REMARK    1  A    between atoms: C_2  and  C_3
REMARK    2  A    between atoms: C_3  and  C_4
REMARK    3  A    between atoms: C_4  and  C_5
REMARK    4  A    between atoms: C_9  and  C_10
REMARK    5  A    between atoms: C_10  and  C_11
REMARK    6  A    between atoms: C_10  and  O_12
REMARK    7  A    between atoms: O_12  and  C_13
REMARK    8  A    between atoms: C_13  and  C_15
REMARK    9  A    between atoms: C_15  and  O_16
REMARK   10  A    between atoms: O_16  and  C_17
REMARK   11  A    between atoms: C_17  and  C_18
REMARK                            x       y       z     vdW  Elec       q    Type
REMARK                         _______ _______ _______ _____ _____    ______ ____
ROOT
ATOM      1  C   UNL     1       6.555   5.697  17.420  0.00  0.00    +0.000 C 
ATOM      2  C   UNL     1       7.196   7.081  17.321  0.00  0.00    +0.000 C 
ENDROOT
BRANCH   1   7
ATOM      3  C   UNL     1       6.283   4.153  13.217  0.00  0.00    +0.000 C 
ATOM      4  O   UNL     1       7.092   4.363  12.312  0.00  0.00    +0.000 OA
ATOM      5  N   UNL     1       6.541   4.493  14.527  0.00  0.00    +0.000 N 
ATOM      6  C   UNL     1       7.721   5.135  15.102  0.00  0.00    +0.000 C 
ATOM      7  C   UNL     1       7.193   4.672  16.481  0.00  0.00    +0.000 C 
ATOM      8  C   UNL     1       6.204   3.833  15.673  0.00  0.00    +0.000 C 
ATOM      9  O   UNL     1       5.345   3.022  15.934  0.00  0.00    +0.000 OA
BRANCH   3  10
ATOM     10  C   UNL     1       4.945   3.481  12.965  0.00  0.00    +0.000 C 
BRANCH  10  11
ATOM     11  C   UNL     1       4.849   3.001  11.517  0.00  0.00    +0.000 C 
BRANCH  11  13
ATOM     12  C   UNL     1       2.919   3.361   9.964  0.00  0.00    +0.000 C 
ATOM     13  C   UNL     1       3.942   3.849  10.676  0.00  0.00    +0.000 C 
ENDBRANCH  11  13
ENDBRANCH  10  11
ENDBRANCH   3  10
ENDBRANCH   1   7
BRANCH   1  14
ATOM     14  O   UNL     1       5.156   5.837  17.082  0.00  0.00    +0.000 OA
BRANCH  14  15
ATOM     15  C   UNL     1       4.294   5.523  18.090  0.00  0.00    +0.000 C 
ATOM     16  O   UNL     1       3.084   5.703  18.040  0.00  0.00    +0.000 OA
BRANCH  15  17
ATOM     17  C   UNL     1       5.030   4.896  19.268  0.00  0.00    +0.000 C 
BRANCH  17  18
ATOM     18  O   UNL     1       5.307   3.509  19.109  0.00  0.00    +0.000 OA
BRANCH  18  19
ATOM     19  C   UNL     1       4.650   2.714  20.098  0.00  0.00    +0.000 C 
BRANCH  19  20
ATOM     20  C   UNL     1       3.162   2.825  19.915  0.00  0.00    +0.000 A 
ATOM     21  C   UNL     1       2.396   3.598  20.800  0.00  0.00    +0.000 A 
ATOM     22  C   UNL     1       1.016   3.707  20.632  0.00  0.00    +0.000 A 
ATOM     23  C   UNL     1       0.389   3.051  19.574  0.00  0.00    +0.000 A 
ATOM     24  C   UNL     1       1.144   2.293  18.680  0.00  0.00    +0.000 A 
ATOM     25  C   UNL     1       2.524   2.182  18.846  0.00  0.00    +0.000 A 
ENDBRANCH  19  20
ENDBRANCH  18  19
ENDBRANCH  17  18
ENDBRANCH  15  17
ENDBRANCH  14  15
ENDBRANCH   1  14
TORSDOF 10
ENDMDL
MODEL 8
REMARK VINA RESULT:      -6.7      1.720      2.884
REMARK  Name = 
REMARK  11 active torsions:
REMARK  status: ('A' for Active; 'I' for Inactive)
REMARK    1  A    between atoms: C_2  and  C_3
REMARK    2  A    between atoms: C_3  and  C_4
REMARK    3  A    between atoms: C_4  and  C_5
REMARK    4  A    between atoms: C_9  and  C_10
REMARK    5  A    between atoms: C_10  and  C_11
REMARK    6  A    between atoms: C_10  and  O_12
REMARK    7  A    between atoms: O_12  and  C_13
REMARK    8  A    between atoms: C_13  and  C_15
REMARK    9  A    between atoms: C_15  and  O_16
REMARK   10  A    between atoms: O_16  and  C_17
REMARK   11  A    between atoms: C_17  and  C_18
REMARK                            x       y       z     vdW  Elec       q    Type
REMARK                         _______ _______ _______ _____ _____    ______ ____
ROOT
ATOM      1  C   UNL     1       4.855   6.331  17.490  0.00  0.00    +0.000 C 
ATOM      2  C   UNL     1       3.472   6.982  17.488  0.00  0.00    +0.000 C 
ENDROOT
BRANCH   1   7
ATOM      3  C   UNL     1       4.091   2.687  19.991  0.00  0.00    +0.000 C 
ATOM      4  O   UNL     1       4.888   1.772  20.205  0.00  0.00    +0.000 OA
ATOM      5  N   UNL     1       4.469   3.863  19.382  0.00  0.00    +0.000 N 
ATOM      6  C   UNL     1       5.780   4.266  18.878  0.00  0.00    +0.000 C 
ATOM      7  C   UNL     1       5.223   5.709  18.838  0.00  0.00    +0.000 C 
ATOM      8  C   UNL     1       4.047   5.137  19.628  0.00  0.00    +0.000 C 
ATOM      9  O   UNL     1       3.048   5.590  20.138  0.00  0.00    +0.000 OA
BRANCH   3  10
ATOM     10  C   UNL     1       2.632   2.600  20.403  0.00  0.00    +0.000 C 
BRANCH  10  11
ATOM     11  C   UNL     1       1.783   2.041  19.261  0.00  0.00    +0.000 C 
BRANCH  11  13
ATOM     12  C   UNL     1       1.360   3.860  17.594  0.00  0.00    +0.000 C 
ATOM     13  C   UNL     1       0.933   3.083  18.597  0.00  0.00    +0.000 C 
ENDBRANCH  11  13
ENDBRANCH  10  11
ENDBRANCH   3  10
ENDBRANCH   1   7
BRANCH   1  14
ATOM     14  O   UNL     1       5.822   7.356  17.166  0.00  0.00    +0.000 OA
BRANCH  14  15
ATOM     15  C   UNL     1       7.114   6.924  17.116  0.00  0.00    +0.000 C 
ATOM     16  O   UNL     1       7.548   6.155  16.269  0.00  0.00    +0.000 OA
BRANCH  15  17
ATOM     17  C   UNL     1       7.945   7.543  18.234  0.00  0.00    +0.000 C 
BRANCH  17  18
ATOM     18  O   UNL     1       8.737   8.652  17.823  0.00  0.00    +0.000 OA
BRANCH  18  19
ATOM     19  C   UNL     1       8.029   9.888  17.936  0.00  0.00    +0.000 C 
BRANCH  19  20
ATOM     20  C   UNL     1       8.985  10.970  18.357  0.00  0.00    +0.000 A 
ATOM     21  C   UNL     1       9.954  10.715  19.339  0.00  0.00    +0.000 A 
ATOM     22  C   UNL     1      10.846  11.713  19.730  0.00  0.00    +0.000 A 
ATOM     23  C   UNL     1      10.781  12.974  19.140  0.00  0.00    +0.000 A 
ATOM     24  C   UNL     1       9.831  13.233  18.153  0.00  0.00    +0.000 A 
ATOM     25  C   UNL     1       8.939  12.236  17.760  0.00  0.00    +0.000 A 
ENDBRANCH  19  20
ENDBRANCH  18  19
ENDBRANCH  17  18
ENDBRANCH  15  17
ENDBRANCH  14  15
ENDBRANCH   1  14
TORSDOF 10
ENDMDL
MODEL 9
REMARK VINA RESULT:      -6.6      4.862      8.033
REMARK  Name = 
REMARK  11 active torsions:
REMARK  status: ('A' for Active; 'I' for Inactive)
REMARK    1  A    between atoms: C_2  and  C_3
REMARK    2  A    between atoms: C_3  and  C_4
REMARK    3  A    between atoms: C_4  and  C_5
REMARK    4  A    between atoms: C_9  and  C_10
REMARK    5  A    between atoms: C_10  and  C_11
REMARK    6  A    between atoms: C_10  and  O_12
REMARK    7  A    between atoms: O_12  and  C_13
REMARK    8  A    between atoms: C_13  and  C_15
REMARK    9  A    between atoms: C_15  and  O_16
REMARK   10  A    between atoms: O_16  and  C_17
REMARK   11  A    between atoms: C_17  and  C_18
REMARK                            x       y       z     vdW  Elec       q    Type
REMARK                         _______ _______ _______ _____ _____    ______ ____
ROOT
ATOM      1  C   UNL     1       2.673   5.248  19.184  0.00  0.00    +0.000 C 
ATOM      2  C   UNL     1       1.562   4.368  19.757  0.00  0.00    +0.000 C 
ENDROOT
BRANCH   1   7
ATOM      3  C   UNL     1       6.370   4.491  16.760  0.00  0.00    +0.000 C 
ATOM      4  O   UNL     1       7.454   5.063  16.890  0.00  0.00    +0.000 OA
ATOM      5  N   UNL     1       5.349   4.637  17.672  0.00  0.00    +0.000 N 
ATOM      6  C   UNL     1       5.304   5.438  18.893  0.00  0.00    +0.000 C 
ATOM      7  C   UNL     1       4.058   4.610  19.287  0.00  0.00    +0.000 C 
ATOM      8  C   UNL     1       4.446   3.713  18.112  0.00  0.00    +0.000 C 
ATOM      9  O   UNL     1       4.032   2.678  17.643  0.00  0.00    +0.000 OA
BRANCH   3  10
ATOM     10  C   UNL     1       6.082   3.562  15.593  0.00  0.00    +0.000 C 
BRANCH  10  11
ATOM     11  C   UNL     1       5.666   4.362  14.359  0.00  0.00    +0.000 C 
BRANCH  11  13
ATOM     12  C   UNL     1       5.657   3.203  12.141  0.00  0.00    +0.000 C 
ATOM     13  C   UNL     1       6.312   3.872  13.097  0.00  0.00    +0.000 C 
ENDBRANCH  11  13
ENDBRANCH  10  11
ENDBRANCH   3  10
ENDBRANCH   1   7
BRANCH   1  14
ATOM     14  O   UNL     1       2.671   6.491  19.922  0.00  0.00    +0.000 OA
BRANCH  14  15
ATOM     15  C   UNL     1       2.407   7.598  19.171  0.00  0.00    +0.000 C 
ATOM     16  O   UNL     1       2.866   7.794  18.053  0.00  0.00    +0.000 OA
BRANCH  15  17
ATOM     17  C   UNL     1       1.451   8.538  19.895  0.00  0.00    +0.000 C 
BRANCH  17  18
ATOM     18  O   UNL     1       1.199   9.756  19.203  0.00  0.00    +0.000 OA
BRANCH  18  19
ATOM     19  C   UNL     1       0.448   9.547  18.005  0.00  0.00    +0.000 C 
BRANCH  19  20
ATOM     20  C   UNL     1      -0.880  10.241  18.124  0.00  0.00    +0.000 A 
ATOM     21  C   UNL     1      -1.064  11.257  19.074  0.00  0.00    +0.000 A 
ATOM     22  C   UNL     1      -2.293  11.907  19.186  0.00  0.00    +0.000 A 
ATOM     23  C   UNL     1      -3.347  11.553  18.346  0.00  0.00    +0.000 A 
ATOM     24  C   UNL     1      -3.169  10.555  17.388  0.00  0.00    +0.000 A 
ATOM     25  C   UNL     1      -1.942   9.904  17.275  0.00  0.00    +0.000 A 
ENDBRANCH  19  20
ENDBRANCH  18  19
ENDBRANCH  17  18
ENDBRANCH  15  17
ENDBRANCH  14  15
ENDBRANCH   1  14
TORSDOF 10
ENDMDL
