MODEL 1
REMARK VINA RESULT:      -7.3      0.000      0.000
REMARK  Name = 
REMARK  7 active torsions:
REMARK  status: ('A' for Active; 'I' for Inactive)
REMARK    1  A    between atoms: C_2  and  C_3
REMARK    2  A    between atoms: C_3  and  C_4
REMARK    3  A    between atoms: C_4  and  N_5
REMARK    4  A    between atoms: C_4  and  C_13
REMARK    5  A    between atoms: N_5  and  C_6
REMARK    6  A    between atoms: C_6  and  C_7
REMARK    7  A    between atoms: C_16  and  C_17
REMARK                            x       y       z     vdW  Elec       q    Type
REMARK                         _______ _______ _______ _____ _____    ______ ____
ROOT
ATOM      1  C   UNL     1       6.368   5.093  17.584  0.00  0.00    +0.000 C 
ENDROOT
BRANCH   1   2
ATOM      2  C   UNL     1       6.394   4.700  16.128  0.00  0.00    +0.000 A 
ATOM      3  C   UNL     1       5.638   3.846  15.348  0.00  0.00    +0.000 A 
ATOM      4  C   UNL     1       6.141   3.941  14.030  0.00  0.00    +0.000 A 
ATOM      5  C   UNL     1       7.157   4.868  14.071  0.00  0.00    +0.000 A 
ATOM      6  C   UNL     1       8.036   5.452  13.039  0.00  0.00    +0.000 C 
ATOM      7  O   UNL     1       7.331   5.320  15.345  0.00  0.00    +0.000 OA
ENDBRANCH   1   2
BRANCH   1   8
ATOM      8  N   UNL     1       5.814   3.958  18.342  0.00  0.00    +0.000 NA
ATOM      9  H   UNL     1       6.571   3.371  18.684  0.00  0.00    +0.000 HD
BRANCH   8  10
ATOM     10  C   UNL     1       4.940   4.335  19.447  0.00  0.00    +0.000 C 
BRANCH  10  11
ATOM     11  C   UNL     1       3.558   3.758  19.249  0.00  0.00    +0.000 A 
ATOM     12  C   UNL     1       2.511   4.091  20.120  0.00  0.00    +0.000 A 
ATOM     13  C   UNL     1       1.243   3.533  19.950  0.00  0.00    +0.000 A 
ATOM     14  C   UNL     1       1.009   2.638  18.907  0.00  0.00    +0.000 A 
ATOM     15  C   UNL     1       2.042   2.307  18.029  0.00  0.00    +0.000 A 
ATOM     16  C   UNL     1       3.307   2.863  18.197  0.00  0.00    +0.000 A 
ENDBRANCH  10  11
ENDBRANCH   8  10
ENDBRANCH   1   8
BRANCH   1  17
ATOM     17  C   UNL     1       7.773   5.507  18.105  0.00  0.00    +0.000 C 
BRANCH  17  19
ATOM     18  C   UNL     1       7.738   7.958  17.576  0.00  0.00    +0.000 C 
ATOM     19  C   UNL     1       7.930   6.964  18.452  0.00  0.00    +0.000 C 
ENDBRANCH  17  19
ENDBRANCH   1  17
TORSDOF 6
ENDMDL
MODEL 2
REMARK VINA RESULT:      -7.2      1.185      3.584
REMARK  Name = 
REMARK  7 active torsions:
REMARK  status: ('A' for Active; 'I' for Inactive)
REMARK    1  A    between atoms: C_2  and  C_3
REMARK    2  A    between atoms: C_3  and  C_4
REMARK    3  A    between atoms: C_4  and  N_5
REMARK    4  A    between atoms: C_4  and  C_13
REMARK    5  A    between atoms: N_5  and  C_6
REMARK    6  A    between atoms: C_6  and  C_7
REMARK    7  A    between atoms: C_16  and  C_17
REMARK                            x       y       z     vdW  Elec       q    Type
REMARK                         _______ _______ _______ _____ _____    ______ ____
ROOT
ATOM      1  C   UNL     1       5.999   3.962  16.402  0.00  0.00    +0.000 C 
ENDROOT
BRANCH   1   2
ATOM      2  C   UNL     1       6.697   4.933  17.322  0.00  0.00    +0.000 A 
ATOM      3  C   UNL     1       7.336   4.813  18.541  0.00  0.00    +0.000 A 
ATOM      4  C   UNL     1       7.824   6.098  18.876  0.00  0.00    +0.000 A 
ATOM      5  C   UNL     1       7.482   6.924  17.830  0.00  0.00    +0.000 A 
ATOM      6  C   UNL     1       7.740   8.349  17.541  0.00  0.00    +0.000 C 
ATOM      7  O   UNL     1       6.780   6.230  16.891  0.00  0.00    +0.000 OA
ENDBRANCH   1   2
BRANCH   1   8
ATOM      8  N   UNL     1       4.845   3.409  17.131  0.00  0.00    +0.000 NA
ATOM      9  H   UNL     1       5.084   3.289  18.113  0.00  0.00    +0.000 HD
BRANCH   8  10
ATOM     10  C   UNL     1       3.620   4.192  17.012  0.00  0.00    +0.000 C 
BRANCH  10  11
ATOM     11  C   UNL     1       2.804   4.091  18.279  0.00  0.00    +0.000 A 
ATOM     12  C   UNL     1       1.698   3.230  18.353  0.00  0.00    +0.000 A 
ATOM     13  C   UNL     1       0.930   3.162  19.516  0.00  0.00    +0.000 A 
ATOM     14  C   UNL     1       1.260   3.951  20.616  0.00  0.00    +0.000 A 
ATOM     15  C   UNL     1       2.362   4.803  20.557  0.00  0.00    +0.000 A 
ATOM     16  C   UNL     1       3.130   4.873  19.397  0.00  0.00    +0.000 A 
ENDBRANCH  10  11
ENDBRANCH   8  10
ENDBRANCH   1   8
BRANCH   1  17
ATOM     17  C   UNL     1       5.574   4.626  15.062  0.00  0.00    +0.000 C 
BRANCH  17  19
ATOM     18  C   UNL     1       5.876   3.583  12.802  0.00  0.00    +0.000 C 
ATOM     19  C   UNL     1       6.386   4.228  13.858  0.00  0.00    +0.000 C 
ENDBRANCH  17  19
ENDBRANCH   1  17
TORSDOF 6
ENDMDL
MODEL 3
REMARK VINA RESULT:      -7.2      1.450      3.852
REMARK  Name = 
REMARK  7 active torsions:
REMARK  status: ('A' for Active; 'I' for Inactive)
REMARK    1  A    between atoms: C_2  and  C_3
REMARK    2  A    between atoms: C_3  and  C_4
REMARK    3  A    between atoms: C_4  and  N_5
REMARK    4  A    between atoms: C_4  and  C_13
REMARK    5  A    between atoms: N_5  and  C_6
REMARK    6  A    between atoms: C_6  and  C_7
REMARK    7  A    between atoms: C_16  and  C_17
REMARK                            x       y       z     vdW  Elec       q    Type
REMARK                         _______ _______ _______ _____ _____    ______ ____
ROOT
ATOM      1  C   UNL     1       6.883   4.244  15.883  0.00  0.00    +0.000 C 
ENDROOT
BRANCH   1   2
ATOM      2  C   UNL     1       7.248   5.190  16.999  0.00  0.00    +0.000 A 
ATOM      3  C   UNL     1       7.560   5.026  18.336  0.00  0.00    +0.000 A 
ATOM      4  C   UNL     1       7.850   6.311  18.850  0.00  0.00    +0.000 A 
ATOM      5  C   UNL     1       7.728   7.185  17.793  0.00  0.00    +0.000 A 
ATOM      6  C   UNL     1       7.945   8.639  17.652  0.00  0.00    +0.000 C 
ATOM      7  O   UNL     1       7.344   6.515  16.670  0.00  0.00    +0.000 OA
ENDBRANCH   1   2
BRANCH   1   8
ATOM      8  N   UNL     1       5.787   3.388  16.365  0.00  0.00    +0.000 NA
ATOM      9  H   UNL     1       5.949   3.137  17.338  0.00  0.00    +0.000 HD
BRANCH   8  10
ATOM     10  C   UNL     1       4.456   3.965  16.218  0.00  0.00    +0.000 C 
BRANCH  10  11
ATOM     11  C   UNL     1       3.931   4.429  17.557  0.00  0.00    +0.000 A 
ATOM     12  C   UNL     1       3.710   3.513  18.596  0.00  0.00    +0.000 A 
ATOM     13  C   UNL     1       3.198   3.943  19.821  0.00  0.00    +0.000 A 
ATOM     14  C   UNL     1       2.902   5.290  20.020  0.00  0.00    +0.000 A 
ATOM     15  C   UNL     1       3.127   6.211  18.996  0.00  0.00    +0.000 A 
ATOM     16  C   UNL     1       3.638   5.784  17.773  0.00  0.00    +0.000 A 
ENDBRANCH  10  11
ENDBRANCH   8  10
ENDBRANCH   1   8
BRANCH   1  17
ATOM     17  C   UNL     1       6.500   4.997  14.578  0.00  0.00    +0.000 C 
BRANCH  17  19
ATOM     18  C   UNL     1       5.908   3.484  12.668  0.00  0.00    +0.000 C 
ATOM     19  C   UNL     1       6.796   4.264  13.297  0.00  0.00    +0.000 C 
ENDBRANCH  17  19
ENDBRANCH   1  17
TORSDOF 6
ENDMDL
MODEL 4
REMARK VINA RESULT:      -7.1      1.854      2.639
REMARK  Name = 
REMARK  7 active torsions:
REMARK  status: ('A' for Active; 'I' for Inactive)
REMARK    1  A    between atoms: C_2  and  C_3
REMARK    2  A    between atoms: C_3  and  C_4
REMARK    3  A    between atoms: C_4  and  N_5
REMARK    4  A    between atoms: C_4  and  C_13
REMARK    5  A    between atoms: N_5  and  C_6
REMARK    6  A    between atoms: C_6  and  C_7
REMARK    7  A    between atoms: C_16  and  C_17
REMARK                            x       y       z     vdW  Elec       q    Type
REMARK                         _______ _______ _______ _____ _____    ______ ____
ROOT
ATOM      1  C   UNL     1       4.559   4.507  16.923  0.00  0.00    +0.000 C 
ENDROOT
BRANCH   1   2
ATOM      2  C   UNL     1       5.529   4.559  15.769  0.00  0.00    +0.000 A 
ATOM      3  C   UNL     1       6.802   5.070  15.604  0.00  0.00    +0.000 A 
ATOM      4  C   UNL     1       7.198   4.767  14.281  0.00  0.00    +0.000 A 
ATOM      5  C   UNL     1       6.158   4.061  13.720  0.00  0.00    +0.000 A 
ATOM      6  C   UNL     1       5.964   3.417  12.405  0.00  0.00    +0.000 C 
ATOM      7  O   UNL     1       5.132   3.947  14.610  0.00  0.00    +0.000 OA
ENDBRANCH   1   2
BRANCH   1   8
ATOM      8  N   UNL     1       4.808   3.257  17.659  0.00  0.00    +0.000 NA
ATOM      9  H   UNL     1       5.114   3.470  18.606  0.00  0.00    +0.000 HD
BRANCH   8  10
ATOM     10  C   UNL     1       3.675   2.340  17.700  0.00  0.00    +0.000 C 
BRANCH  10  11
ATOM     11  C   UNL     1       2.823   2.607  18.919  0.00  0.00    +0.000 A 
ATOM     12  C   UNL     1       1.452   2.872  18.791  0.00  0.00    +0.000 A 
ATOM     13  C   UNL     1       0.676   3.146  19.918  0.00  0.00    +0.000 A 
ATOM     14  C   UNL     1       1.261   3.156  21.183  0.00  0.00    +0.000 A 
ATOM     15  C   UNL     1       2.623   2.883  21.322  0.00  0.00    +0.000 A 
ATOM     16  C   UNL     1       3.398   2.610  20.199  0.00  0.00    +0.000 A 
ENDBRANCH  10  11
ENDBRANCH   8  10
ENDBRANCH   1   8
BRANCH   1  17
ATOM     17  C   UNL     1       4.677   5.755  17.843  0.00  0.00    +0.000 C 
BRANCH  17  19
ATOM     18  C   UNL     1       2.521   6.974  18.231  0.00  0.00    +0.000 C 
ATOM     19  C   UNL     1       3.442   6.092  18.636  0.00  0.00    +0.000 C 
ENDBRANCH  17  19
ENDBRANCH   1  17
TORSDOF 6
ENDMDL
MODEL 5
REMARK VINA RESULT:      -7.0      1.323      3.552
REMARK  Name = 
REMARK  7 active torsions:
REMARK  status: ('A' for Active; 'I' for Inactive)
REMARK    1  A    between atoms: C_2  and  C_3
REMARK    2  A    between atoms: C_3  and  C_4
REMARK    3  A    between atoms: C_4  and  N_5
REMARK    4  A    between atoms: C_4  and  C_13
REMARK    5  A    between atoms: N_5  and  C_6
REMARK    6  A    between atoms: C_6  and  C_7
REMARK    7  A    between atoms: C_16  and  C_17
REMARK                            x       y       z     vdW  Elec       q    Type
REMARK                         _______ _______ _______ _____ _____    ______ ____
ROOT
ATOM      1  C   UNL     1       5.952   3.950  16.417  0.00  0.00    +0.000 C 
ENDROOT
BRANCH   1   2
ATOM      2  C   UNL     1       6.645   4.929  17.331  0.00  0.00    +0.000 A 
ATOM      3  C   UNL     1       7.266   4.823  18.562  0.00  0.00    +0.000 A 
ATOM      4  C   UNL     1       7.760   6.108  18.884  0.00  0.00    +0.000 A 
ATOM      5  C   UNL     1       7.441   6.921  17.820  0.00  0.00    +0.000 A 
ATOM      6  C   UNL     1       7.716   8.339  17.513  0.00  0.00    +0.000 C 
ATOM      7  O   UNL     1       6.747   6.218  16.882  0.00  0.00    +0.000 OA
ENDBRANCH   1   2
BRANCH   1   8
ATOM      8  N   UNL     1       4.797   3.400  17.147  0.00  0.00    +0.000 NA
ATOM      9  H   UNL     1       5.113   2.962  18.009  0.00  0.00    +0.000 HD
BRANCH   8  10
ATOM     10  C   UNL     1       3.747   4.367  17.439  0.00  0.00    +0.000 C 
BRANCH  10  11
ATOM     11  C   UNL     1       3.018   3.989  18.708  0.00  0.00    +0.000 A 
ATOM     12  C   UNL     1       3.674   3.282  19.727  0.00  0.00    +0.000 A 
ATOM     13  C   UNL     1       2.988   2.911  20.885  0.00  0.00    +0.000 A 
ATOM     14  C   UNL     1       1.643   3.242  21.035  0.00  0.00    +0.000 A 
ATOM     15  C   UNL     1       0.984   3.952  20.031  0.00  0.00    +0.000 A 
ATOM     16  C   UNL     1       1.666   4.324  18.876  0.00  0.00    +0.000 A 
ENDBRANCH  10  11
ENDBRANCH   8  10
ENDBRANCH   1   8
BRANCH   1  17
ATOM     17  C   UNL     1       5.529   4.604  15.071  0.00  0.00    +0.000 C 
BRANCH  17  19
ATOM     18  C   UNL     1       5.602   3.629  12.762  0.00  0.00    +0.000 C 
ATOM     19  C   UNL     1       6.238   4.084  13.849  0.00  0.00    +0.000 C 
ENDBRANCH  17  19
ENDBRANCH   1  17
TORSDOF 6
ENDMDL
MODEL 6
REMARK VINA RESULT:      -7.0      1.416      3.815
REMARK  Name = 
REMARK  7 active torsions:
REMARK  status: ('A' for Active; 'I' for Inactive)
REMARK    1  A    between atoms: C_2  and  C_3
REMARK    2  A    between atoms: C_3  and  C_4
REMARK    3  A    between atoms: C_4  and  N_5
REMARK    4  A    between atoms: C_4  and  C_13
REMARK    5  A    between atoms: N_5  and  C_6
REMARK    6  A    between atoms: C_6  and  C_7
REMARK    7  A    between atoms: C_16  and  C_17
REMARK                            x       y       z     vdW  Elec       q    Type
REMARK                         _______ _______ _______ _____ _____    ______ ____
ROOT
ATOM      1  C   UNL     1       5.958   3.897  16.114  0.00  0.00    +0.000 C 
ENDROOT
BRANCH   1   2
ATOM      2  C   UNL     1       6.658   4.955  16.931  0.00  0.00    +0.000 A 
ATOM      3  C   UNL     1       6.903   6.303  16.751  0.00  0.00    +0.000 A 
ATOM      4  C   UNL     1       7.584   6.753  17.905  0.00  0.00    +0.000 A 
ATOM      5  C   UNL     1       7.692   5.663  18.738  0.00  0.00    +0.000 A 
ATOM      6  C   UNL     1       8.240   5.478  20.097  0.00  0.00    +0.000 C 
ATOM      7  O   UNL     1       7.150   4.562  18.146  0.00  0.00    +0.000 OA
ENDBRANCH   1   2
BRANCH   1   8
ATOM      8  N   UNL     1       4.799   3.429  16.892  0.00  0.00    +0.000 NA
ATOM      9  H   UNL     1       5.111   3.057  17.786  0.00  0.00    +0.000 HD
BRANCH   8  10
ATOM     10  C   UNL     1       3.767   4.437  17.110  0.00  0.00    +0.000 C 
BRANCH  10  11
ATOM     11  C   UNL     1       2.755   3.948  18.119  0.00  0.00    +0.000 A 
ATOM     12  C   UNL     1       2.192   2.668  18.007  0.00  0.00    +0.000 A 
ATOM     13  C   UNL     1       1.237   2.231  18.925  0.00  0.00    +0.000 A 
ATOM     14  C   UNL     1       0.835   3.068  19.964  0.00  0.00    +0.000 A 
ATOM     15  C   UNL     1       1.395   4.340  20.091  0.00  0.00    +0.000 A 
ATOM     16  C   UNL     1       2.349   4.777  19.175  0.00  0.00    +0.000 A 
ENDBRANCH  10  11
ENDBRANCH   8  10
ENDBRANCH   1   8
BRANCH   1  17
ATOM     17  C   UNL     1       5.542   4.419  14.710  0.00  0.00    +0.000 C 
BRANCH  17  19
ATOM     18  C   UNL     1       5.802   3.398  12.435  0.00  0.00    +0.000 C 
ATOM     19  C   UNL     1       6.348   3.884  13.557  0.00  0.00    +0.000 C 
ENDBRANCH  17  19
ENDBRANCH   1  17
TORSDOF 6
ENDMDL
MODEL 7
REMARK VINA RESULT:      -7.0      1.825      2.528
REMARK  Name = 
REMARK  7 active torsions:
REMARK  status: ('A' for Active; 'I' for Inactive)
REMARK    1  A    between atoms: C_2  and  C_3
REMARK    2  A    between atoms: C_3  and  C_4
REMARK    3  A    between atoms: C_4  and  N_5
REMARK    4  A    between atoms: C_4  and  C_13
REMARK    5  A    between atoms: N_5  and  C_6
REMARK    6  A    between atoms: C_6  and  C_7
REMARK    7  A    between atoms: C_16  and  C_17
REMARK                            x       y       z     vdW  Elec       q    Type
REMARK                         _______ _______ _______ _____ _____    ______ ____
ROOT
ATOM      1  C   UNL     1       4.675   4.595  16.855  0.00  0.00    +0.000 C 
ENDROOT
BRANCH   1   2
ATOM      2  C   UNL     1       5.624   4.606  15.682  0.00  0.00    +0.000 A 
ATOM      3  C   UNL     1       6.889   5.121  15.472  0.00  0.00    +0.000 A 
ATOM      4  C   UNL     1       7.264   4.765  14.156  0.00  0.00    +0.000 A 
ATOM      5  C   UNL     1       6.221   4.027  13.645  0.00  0.00    +0.000 A 
ATOM      6  C   UNL     1       6.010   3.326  12.363  0.00  0.00    +0.000 C 
ATOM      7  O   UNL     1       5.213   3.942  14.558  0.00  0.00    +0.000 OA
ENDBRANCH   1   2
BRANCH   1   8
ATOM      8  N   UNL     1       4.865   3.322  17.570  0.00  0.00    +0.000 NA
ATOM      9  H   UNL     1       5.235   3.502  18.500  0.00  0.00    +0.000 HD
BRANCH   8  10
ATOM     10  C   UNL     1       3.668   2.495  17.665  0.00  0.00    +0.000 C 
BRANCH  10  11
ATOM     11  C   UNL     1       2.893   2.829  18.918  0.00  0.00    +0.000 A 
ATOM     12  C   UNL     1       3.402   2.503  20.184  0.00  0.00    +0.000 A 
ATOM     13  C   UNL     1       2.669   2.789  21.337  0.00  0.00    +0.000 A 
ATOM     14  C   UNL     1       1.423   3.404  21.236  0.00  0.00    +0.000 A 
ATOM     15  C   UNL     1       0.911   3.741  19.982  0.00  0.00    +0.000 A 
ATOM     16  C   UNL     1       1.641   3.457  18.831  0.00  0.00    +0.000 A 
ENDBRANCH  10  11
ENDBRANCH   8  10
ENDBRANCH   1   8
BRANCH   1  17
ATOM     17  C   UNL     1       4.883   5.821  17.788  0.00  0.00    +0.000 C 
BRANCH  17  19
ATOM     18  C   UNL     1       2.802   7.076  18.405  0.00  0.00    +0.000 C 
ATOM     19  C   UNL     1       3.882   6.933  17.627  0.00  0.00    +0.000 C 
ENDBRANCH  17  19
ENDBRANCH   1  17
TORSDOF 6
ENDMDL
MODEL 8
REMARK VINA RESULT:      -7.0      2.556      3.890
REMARK  Name = 
REMARK  7 active torsions:
REMARK  status: ('A' for Active; 'I' for Inactive)
REMARK    1  A    between atoms: C_2  and  C_3
REMARK    2  A    between atoms: C_3  and  C_4
REMARK    3  A    between atoms: C_4  and  N_5
REMARK    4  A    between atoms: C_4  and  C_13
REMARK    5  A    between atoms: N_5  and  C_6
REMARK    6  A    between atoms: C_6  and  C_7
REMARK    7  A    between atoms: C_16  and  C_17
REMARK                            x       y       z     vdW  Elec       q    Type
REMARK                         _______ _______ _______ _____ _____    ______ ____
ROOT
ATOM      1  C   UNL     1       5.715   4.632  18.874  0.00  0.00    +0.000 C 
ENDROOT
BRANCH   1   2
ATOM      2  C   UNL     1       4.562   5.577  18.643  0.00  0.00    +0.000 A 
ATOM      3  C   UNL     1       4.050   6.217  17.530  0.00  0.00    +0.000 A 
ATOM      4  C   UNL     1       2.920   6.949  17.962  0.00  0.00    +0.000 A 
ATOM      5  C   UNL     1       2.786   6.693  19.307  0.00  0.00    +0.000 A 
ATOM      6  C   UNL     1       1.794   7.102  20.321  0.00  0.00    +0.000 C 
ATOM      7  O   UNL     1       3.790   5.876  19.734  0.00  0.00    +0.000 OA
ENDBRANCH   1   2
BRANCH   1   8
ATOM      8  N   UNL     1       5.258   3.277  18.521  0.00  0.00    +0.000 NA
ATOM      9  H   UNL     1       6.009   2.771  18.057  0.00  0.00    +0.000 HD
BRANCH   8  10
ATOM     10  C   UNL     1       4.754   2.495  19.643  0.00  0.00    +0.000 C 
BRANCH  10  11
ATOM     11  C   UNL     1       3.269   2.717  19.818  0.00  0.00    +0.000 A 
ATOM     12  C   UNL     1       2.414   2.742  18.707  0.00  0.00    +0.000 A 
ATOM     13  C   UNL     1       1.047   2.975  18.871  0.00  0.00    +0.000 A 
ATOM     14  C   UNL     1       0.524   3.185  20.145  0.00  0.00    +0.000 A 
ATOM     15  C   UNL     1       1.365   3.153  21.258  0.00  0.00    +0.000 A 
ATOM     16  C   UNL     1       2.728   2.920  21.096  0.00  0.00    +0.000 A 
ENDBRANCH  10  11
ENDBRANCH   8  10
ENDBRANCH   1   8
BRANCH   1  17
ATOM     17  C   UNL     1       6.981   5.045  18.071  0.00  0.00    +0.000 C 
BRANCH  17  19
ATOM     18  C   UNL     1       7.654   7.429  17.689  0.00  0.00    +0.000 C 
ATOM     19  C   UNL     1       7.608   6.350  18.480  0.00  0.00    +0.000 C 
ENDBRANCH  17  19
ENDBRANCH   1  17
TORSDOF 6
ENDMDL
MODEL 9
REMARK VINA RESULT:      -7.0      1.413      3.663
REMARK  Name = 
REMARK  7 active torsions:
REMARK  status: ('A' for Active; 'I' for Inactive)
REMARK    1  A    between atoms: C_2  and  C_3
REMARK    2  A    between atoms: C_3  and  C_4
REMARK    3  A    between atoms: C_4  and  N_5
REMARK    4  A    between atoms: C_4  and  C_13
REMARK    5  A    between atoms: N_5  and  C_6
REMARK    6  A    between atoms: C_6  and  C_7
REMARK    7  A    between atoms: C_16  and  C_17
REMARK                            x       y       z     vdW  Elec       q    Type
REMARK                         _______ _______ _______ _____ _____    ______ ____
ROOT
ATOM      1  C   UNL     1       5.878   3.878  16.204  0.00  0.00    +0.000 C 
ENDROOT
BRANCH   1   2
ATOM      2  C   UNL     1       6.626   4.935  16.978  0.00  0.00    +0.000 A 
ATOM      3  C   UNL     1       6.923   6.265  16.749  0.00  0.00    +0.000 A 
ATOM      4  C   UNL     1       7.630   6.728  17.883  0.00  0.00    +0.000 A 
ATOM      5  C   UNL     1       7.700   5.664  18.754  0.00  0.00    +0.000 A 
ATOM      6  C   UNL     1       8.250   5.506  20.115  0.00  0.00    +0.000 C 
ATOM      7  O   UNL     1       7.110   4.566  18.205  0.00  0.00    +0.000 OA
ENDBRANCH   1   2
BRANCH   1   8
ATOM      8  N   UNL     1       4.718   3.470  17.014  0.00  0.00    +0.000 NA
ATOM      9  H   UNL     1       5.035   3.106  17.910  0.00  0.00    +0.000 HD
BRANCH   8  10
ATOM     10  C   UNL     1       3.729   4.519  17.229  0.00  0.00    +0.000 C 
BRANCH  10  11
ATOM     11  C   UNL     1       2.678   4.061  18.214  0.00  0.00    +0.000 A 
ATOM     12  C   UNL     1       2.418   4.799  19.378  0.00  0.00    +0.000 A 
ATOM     13  C   UNL     1       1.466   4.357  20.298  0.00  0.00    +0.000 A 
ATOM     14  C   UNL     1       0.766   3.176  20.064  0.00  0.00    +0.000 A 
ATOM     15  C   UNL     1       1.011   2.439  18.905  0.00  0.00    +0.000 A 
ATOM     16  C   UNL     1       1.959   2.879  17.986  0.00  0.00    +0.000 A 
ENDBRANCH  10  11
ENDBRANCH   8  10
ENDBRANCH   1   8
BRANCH   1  17
ATOM     17  C   UNL     1       5.455   4.374  14.793  0.00  0.00    +0.000 C 
BRANCH  17  19
ATOM     18  C   UNL     1       5.866   3.421  12.511  0.00  0.00    +0.000 C 
ATOM     19  C   UNL     1       6.336   3.924  13.659  0.00  0.00    +0.000 C 
ENDBRANCH  17  19
ENDBRANCH   1  17
TORSDOF 6
ENDMDL
