MODEL 1
REMARK VINA RESULT:      -7.9      0.000      0.000
REMARK  Name = 
REMARK  7 active torsions:
REMARK  status: ('A' for Active; 'I' for Inactive)
REMARK    1  A    between atoms: C_1  and  C_2
REMARK    2  A    between atoms: C_2  and  C_3
REMARK    3  A    between atoms: C_6  and  N_7
REMARK    4  A    between atoms: N_7  and  C_8
REMARK    5  A    between atoms: C_8  and  C_9
REMARK    6  A    between atoms: C_9  and  C_10
REMARK    7  A    between atoms: C_10  and  C_12
REMARK                            x       y       z     vdW  Elec       q    Type
REMARK                         _______ _______ _______ _____ _____    ______ ____
ROOT
ATOM      1  C   UNL     1       6.598   6.421  16.558  0.00  0.00    +0.000 C 
ENDROOT
BRANCH   1   2
ATOM      2  N   UNL     1       7.557   5.887  15.590  0.00  0.00    +0.000 N 
ATOM      3  H   UNL     1       8.126   6.615  15.165  0.00  0.00    +0.000 HD
BRANCH   2   7
ATOM      4  C   UNL     1       5.824   3.428  12.602  0.00  0.00    +0.000 A 
ATOM      5  C   UNL     1       5.294   3.487  13.894  0.00  0.00    +0.000 A 
ATOM      6  C   UNL     1       5.899   4.285  14.871  0.00  0.00    +0.000 A 
ATOM      7  C   UNL     1       7.063   5.018  14.600  0.00  0.00    +0.000 A 
ATOM      8  C   UNL     1       7.581   4.953  13.302  0.00  0.00    +0.000 A 
ATOM      9  C   UNL     1       6.978   4.162  12.317  0.00  0.00    +0.000 A 
BRANCH   4  11
ATOM     10  C   UNL     1       3.887   3.455  11.036  0.00  0.00    +0.000 C 
ATOM     11  C   UNL     1       5.107   2.677  11.512  0.00  0.00    +0.000 C 
ENDBRANCH   4  11
ENDBRANCH   2   7
ENDBRANCH   1   2
BRANCH   1  12
ATOM     12  C   UNL     1       7.282   6.615  17.911  0.00  0.00    +0.000 C 
BRANCH  12  13
ATOM     13  C   UNL     1       6.699   5.662  18.934  0.00  0.00    +0.000 C 
ATOM     14  O   UNL     1       7.321   5.321  19.939  0.00  0.00    +0.000 OA
BRANCH  13  15
ATOM     15  C   UNL     1       5.329   5.106  18.721  0.00  0.00    +0.000 A 
ATOM     16  C   UNL     1       4.243   5.990  18.759  0.00  0.00    +0.000 A 
ATOM     17  C   UNL     1       2.937   5.526  18.584  0.00  0.00    +0.000 A 
ATOM     18  C   UNL     1       2.703   4.168  18.368  0.00  0.00    +0.000 A 
ATOM     19 CL   UNL     1       1.067   3.654  18.172  0.00  0.00    +0.000 Cl
ATOM     20  C   UNL     1       3.784   3.277  18.321  0.00  0.00    +0.000 A 
ATOM     21 CL   UNL     1       3.571   1.582  18.058  0.00  0.00    +0.000 Cl
ATOM     22  C   UNL     1       5.095   3.745  18.495  0.00  0.00    +0.000 A 
ENDBRANCH  13  15
ENDBRANCH  12  13
ENDBRANCH   1  12
TORSDOF 6
ENDMDL
MODEL 2
REMARK VINA RESULT:      -7.8      0.799      1.314
REMARK  Name = 
REMARK  7 active torsions:
REMARK  status: ('A' for Active; 'I' for Inactive)
REMARK    1  A    between atoms: C_1  and  C_2
REMARK    2  A    between atoms: C_2  and  C_3
REMARK    3  A    between atoms: C_6  and  N_7
REMARK    4  A    between atoms: N_7  and  C_8
REMARK    5  A    between atoms: C_8  and  C_9
REMARK    6  A    between atoms: C_9  and  C_10
REMARK    7  A    between atoms: C_10  and  C_12
REMARK                            x       y       z     vdW  Elec       q    Type
REMARK                         _______ _______ _______ _____ _____    ______ ____
ROOT
ATOM      1  C   UNL     1       7.385   4.979  16.836  0.00  0.00    +0.000 C 
ENDROOT
BRANCH   1   2
ATOM      2  N   UNL     1       7.583   5.505  15.484  0.00  0.00    +0.000 N 
ATOM      3  H   UNL     1       7.476   6.516  15.441  0.00  0.00    +0.000 HD
BRANCH   2   7
ATOM      4  C   UNL     1       5.617   3.462  12.332  0.00  0.00    +0.000 A 
ATOM      5  C   UNL     1       6.864   4.063  12.143  0.00  0.00    +0.000 A 
ATOM      6  C   UNL     1       7.482   4.755  13.191  0.00  0.00    +0.000 A 
ATOM      7  C   UNL     1       6.863   4.897  14.440  0.00  0.00    +0.000 A 
ATOM      8  C   UNL     1       5.615   4.287  14.617  0.00  0.00    +0.000 A 
ATOM      9  C   UNL     1       4.994   3.587  13.576  0.00  0.00    +0.000 A 
BRANCH   4  11
ATOM     10  C   UNL     1       3.700   3.219  10.759  0.00  0.00    +0.000 C 
ATOM     11  C   UNL     1       5.005   2.608  11.254  0.00  0.00    +0.000 C 
ENDBRANCH   4  11
ENDBRANCH   2   7
ENDBRANCH   1   2
BRANCH   1  12
ATOM     12  C   UNL     1       6.743   6.048  17.719  0.00  0.00    +0.000 C 
BRANCH  12  13
ATOM     13  C   UNL     1       6.310   5.447  19.039  0.00  0.00    +0.000 C 
ATOM     14  O   UNL     1       7.049   5.431  20.024  0.00  0.00    +0.000 OA
BRANCH  13  15
ATOM     15  C   UNL     1       4.950   4.843  19.160  0.00  0.00    +0.000 A 
ATOM     16  C   UNL     1       3.909   5.648  19.641  0.00  0.00    +0.000 A 
ATOM     17  C   UNL     1       2.619   5.134  19.792  0.00  0.00    +0.000 A 
ATOM     18  C   UNL     1       2.355   3.805  19.461  0.00  0.00    +0.000 A 
ATOM     19 CL   UNL     1       0.744   3.225  19.681  0.00  0.00    +0.000 Cl
ATOM     20  C   UNL     1       3.388   2.994  18.972  0.00  0.00    +0.000 A 
ATOM     21 CL   UNL     1       3.136   1.339  18.541  0.00  0.00    +0.000 Cl
ATOM     22  C   UNL     1       4.683   3.512  18.819  0.00  0.00    +0.000 A 
ENDBRANCH  13  15
ENDBRANCH  12  13
ENDBRANCH   1  12
TORSDOF 6
ENDMDL
MODEL 3
REMARK VINA RESULT:      -7.8      1.365      1.777
REMARK  Name = 
REMARK  7 active torsions:
REMARK  status: ('A' for Active; 'I' for Inactive)
REMARK    1  A    between atoms: C_1  and  C_2
REMARK    2  A    between atoms: C_2  and  C_3
REMARK    3  A    between atoms: C_6  and  N_7
REMARK    4  A    between atoms: N_7  and  C_8
REMARK    5  A    between atoms: C_8  and  C_9
REMARK    6  A    between atoms: C_9  and  C_10
REMARK    7  A    between atoms: C_10  and  C_12
REMARK                            x       y       z     vdW  Elec       q    Type
REMARK                         _______ _______ _______ _____ _____    ______ ____
ROOT
ATOM      1  C   UNL     1       7.465   4.756  17.118  0.00  0.00    +0.000 C 
ENDROOT
BRANCH   1   2
ATOM      2  N   UNL     1       7.516   5.471  15.842  0.00  0.00    +0.000 N 
ATOM      3  H   UNL     1       7.254   6.449  15.934  0.00  0.00    +0.000 HD
BRANCH   2   7
ATOM      4  C   UNL     1       5.713   3.520  12.537  0.00  0.00    +0.000 A 
ATOM      5  C   UNL     1       6.949   4.162  12.418  0.00  0.00    +0.000 A 
ATOM      6  C   UNL     1       7.512   4.822  13.515  0.00  0.00    +0.000 A 
ATOM      7  C   UNL     1       6.848   4.891  14.748  0.00  0.00    +0.000 A 
ATOM      8  C   UNL     1       5.613   4.241  14.855  0.00  0.00    +0.000 A 
ATOM      9  C   UNL     1       5.046   3.573  13.763  0.00  0.00    +0.000 A 
BRANCH   4  11
ATOM     10  C   UNL     1       3.801   3.229  10.966  0.00  0.00    +0.000 C 
ATOM     11  C   UNL     1       5.162   2.700  11.402  0.00  0.00    +0.000 C 
ENDBRANCH   4  11
ENDBRANCH   2   7
ENDBRANCH   1   2
BRANCH   1  12
ATOM     12  C   UNL     1       6.910   5.677  18.205  0.00  0.00    +0.000 C 
BRANCH  12  13
ATOM     13  C   UNL     1       5.503   6.111  17.855  0.00  0.00    +0.000 C 
ATOM     14  O   UNL     1       5.276   7.134  17.208  0.00  0.00    +0.000 OA
BRANCH  13  15
ATOM     15  C   UNL     1       4.344   5.286  18.311  0.00  0.00    +0.000 A 
ATOM     16  C   UNL     1       3.078   5.576  17.786  0.00  0.00    +0.000 A 
ATOM     17  C   UNL     1       1.955   4.849  18.188  0.00  0.00    +0.000 A 
ATOM     18  C   UNL     1       2.086   3.821  19.121  0.00  0.00    +0.000 A 
ATOM     19 CL   UNL     1       0.660   2.968  19.587  0.00  0.00    +0.000 Cl
ATOM     20  C   UNL     1       3.351   3.519  19.646  0.00  0.00    +0.000 A 
ATOM     21 CL   UNL     1       3.591   2.259  20.805  0.00  0.00    +0.000 Cl
ATOM     22  C   UNL     1       4.478   4.248  19.240  0.00  0.00    +0.000 A 
ENDBRANCH  13  15
ENDBRANCH  12  13
ENDBRANCH   1  12
TORSDOF 6
ENDMDL
MODEL 4
REMARK VINA RESULT:      -7.8      2.830      5.265
REMARK  Name = 
REMARK  7 active torsions:
REMARK  status: ('A' for Active; 'I' for Inactive)
REMARK    1  A    between atoms: C_1  and  C_2
REMARK    2  A    between atoms: C_2  and  C_3
REMARK    3  A    between atoms: C_6  and  N_7
REMARK    4  A    between atoms: N_7  and  C_8
REMARK    5  A    between atoms: C_8  and  C_9
REMARK    6  A    between atoms: C_9  and  C_10
REMARK    7  A    between atoms: C_10  and  C_12
REMARK                            x       y       z     vdW  Elec       q    Type
REMARK                         _______ _______ _______ _____ _____    ______ ____
ROOT
ATOM      1  C   UNL     1       5.336   4.246  15.585  0.00  0.00    +0.000 C 
ENDROOT
BRANCH   1   2
ATOM      2  N   UNL     1       5.093   2.986  16.289  0.00  0.00    +0.000 N 
ATOM      3  H   UNL     1       5.146   2.179  15.672  0.00  0.00    +0.000 HD
BRANCH   2   7
ATOM      4  C   UNL     1       1.781   2.865  18.934  0.00  0.00    +0.000 A 
ATOM      5  C   UNL     1       2.921   2.090  19.160  0.00  0.00    +0.000 A 
ATOM      6  C   UNL     1       3.991   2.126  18.259  0.00  0.00    +0.000 A 
ATOM      7  C   UNL     1       3.943   2.905  17.095  0.00  0.00    +0.000 A 
ATOM      8  C   UNL     1       2.797   3.679  16.882  0.00  0.00    +0.000 A 
ATOM      9  C   UNL     1       1.725   3.654  17.782  0.00  0.00    +0.000 A 
BRANCH   4  11
ATOM     10  C   UNL     1       1.261   2.908  21.370  0.00  0.00    +0.000 C 
ATOM     11  C   UNL     1       0.682   2.932  19.960  0.00  0.00    +0.000 C 
ENDBRANCH   4  11
ENDBRANCH   2   7
ENDBRANCH   1   2
BRANCH   1  12
ATOM     12  C   UNL     1       6.701   4.806  15.983  0.00  0.00    +0.000 C 
BRANCH  12  13
ATOM     13  C   UNL     1       6.531   6.078  16.788  0.00  0.00    +0.000 C 
ATOM     14  O   UNL     1       7.355   6.992  16.749  0.00  0.00    +0.000 OA
BRANCH  13  15
ATOM     15  C   UNL     1       5.333   6.236  17.666  0.00  0.00    +0.000 A 
ATOM     16  C   UNL     1       5.284   5.499  18.856  0.00  0.00    +0.000 A 
ATOM     17  C   UNL     1       4.182   5.592  19.709  0.00  0.00    +0.000 A 
ATOM     18  C   UNL     1       3.114   6.427  19.381  0.00  0.00    +0.000 A 
ATOM     19 CL   UNL     1       1.776   6.489  20.469  0.00  0.00    +0.000 Cl
ATOM     20  C   UNL     1       3.158   7.174  18.195  0.00  0.00    +0.000 A 
ATOM     21 CL   UNL     1       1.872   8.229  17.722  0.00  0.00    +0.000 Cl
ATOM     22  C   UNL     1       4.266   7.081  17.340  0.00  0.00    +0.000 A 
ENDBRANCH  13  15
ENDBRANCH  12  13
ENDBRANCH   1  12
TORSDOF 6
ENDMDL
MODEL 5
REMARK VINA RESULT:      -7.7      1.337      1.866
REMARK  Name = 
REMARK  7 active torsions:
REMARK  status: ('A' for Active; 'I' for Inactive)
REMARK    1  A    between atoms: C_1  and  C_2
REMARK    2  A    between atoms: C_2  and  C_3
REMARK    3  A    between atoms: C_6  and  N_7
REMARK    4  A    between atoms: N_7  and  C_8
REMARK    5  A    between atoms: C_8  and  C_9
REMARK    6  A    between atoms: C_9  and  C_10
REMARK    7  A    between atoms: C_10  and  C_12
REMARK                            x       y       z     vdW  Elec       q    Type
REMARK                         _______ _______ _______ _____ _____    ______ ____
ROOT
ATOM      1  C   UNL     1       7.444   5.021  16.825  0.00  0.00    +0.000 C 
ENDROOT
BRANCH   1   2
ATOM      2  N   UNL     1       7.239   5.744  15.568  0.00  0.00    +0.000 N 
ATOM      3  H   UNL     1       6.713   6.605  15.697  0.00  0.00    +0.000 HD
BRANCH   2   7
ATOM      4  C   UNL     1       5.890   3.352  12.338  0.00  0.00    +0.000 A 
ATOM      5  C   UNL     1       7.146   3.964  12.316  0.00  0.00    +0.000 A 
ATOM      6  C   UNL     1       7.559   4.771  13.381  0.00  0.00    +0.000 A 
ATOM      7  C   UNL     1       6.724   5.017  14.480  0.00  0.00    +0.000 A 
ATOM      8  C   UNL     1       5.470   4.396  14.492  0.00  0.00    +0.000 A 
ATOM      9  C   UNL     1       5.052   3.582  13.433  0.00  0.00    +0.000 A 
BRANCH   4  11
ATOM     10  C   UNL     1       6.602   1.370  11.007  0.00  0.00    +0.000 C 
ATOM     11  C   UNL     1       5.490   2.380  11.260  0.00  0.00    +0.000 C 
ENDBRANCH   4  11
ENDBRANCH   2   7
ENDBRANCH   1   2
BRANCH   1  12
ATOM     12  C   UNL     1       6.678   5.715  17.951  0.00  0.00    +0.000 C 
BRANCH  12  13
ATOM     13  C   UNL     1       5.266   6.033  17.506  0.00  0.00    +0.000 C 
ATOM     14  O   UNL     1       4.987   7.075  16.913  0.00  0.00    +0.000 OA
BRANCH  13  15
ATOM     15  C   UNL     1       4.168   5.063  17.799  0.00  0.00    +0.000 A 
ATOM     16  C   UNL     1       2.859   5.554  17.887  0.00  0.00    +0.000 A 
ATOM     17  C   UNL     1       1.793   4.698  18.175  0.00  0.00    +0.000 A 
ATOM     18  C   UNL     1       2.026   3.338  18.378  0.00  0.00    +0.000 A 
ATOM     19 CL   UNL     1       0.671   2.334  18.742  0.00  0.00    +0.000 Cl
ATOM     20  C   UNL     1       3.332   2.837  18.284  0.00  0.00    +0.000 A 
ATOM     21 CL   UNL     1       3.697   1.164  18.523  0.00  0.00    +0.000 Cl
ATOM     22  C   UNL     1       4.401   3.697  17.993  0.00  0.00    +0.000 A 
ENDBRANCH  13  15
ENDBRANCH  12  13
ENDBRANCH   1  12
TORSDOF 6
ENDMDL
MODEL 6
REMARK VINA RESULT:      -7.7      3.838      6.304
REMARK  Name = 
REMARK  7 active torsions:
REMARK  status: ('A' for Active; 'I' for Inactive)
REMARK    1  A    between atoms: C_1  and  C_2
REMARK    2  A    between atoms: C_2  and  C_3
REMARK    3  A    between atoms: C_6  and  N_7
REMARK    4  A    between atoms: N_7  and  C_8
REMARK    5  A    between atoms: C_8  and  C_9
REMARK    6  A    between atoms: C_9  and  C_10
REMARK    7  A    between atoms: C_10  and  C_12
REMARK                            x       y       z     vdW  Elec       q    Type
REMARK                         _______ _______ _______ _____ _____    ______ ____
ROOT
ATOM      1  C   UNL     1       2.134   2.673  21.357  0.00  0.00    +0.000 C 
ENDROOT
BRANCH   1   2
ATOM      2  N   UNL     1       1.035   3.464  20.801  0.00  0.00    +0.000 N 
ATOM      3  H   UNL     1       0.351   2.890  20.313  0.00  0.00    +0.000 HD
BRANCH   2   7
ATOM      4  C   UNL     1       2.333   6.804  18.535  0.00  0.00    +0.000 A 
ATOM      5  C   UNL     1       2.383   6.808  19.931  0.00  0.00    +0.000 A 
ATOM      6  C   UNL     1       1.924   5.705  20.659  0.00  0.00    +0.000 A 
ATOM      7  C   UNL     1       1.373   4.585  20.021  0.00  0.00    +0.000 A 
ATOM      8  C   UNL     1       1.332   4.592  18.623  0.00  0.00    +0.000 A 
ATOM      9  C   UNL     1       1.795   5.689  17.887  0.00  0.00    +0.000 A 
BRANCH   4  11
ATOM     10  C   UNL     1       2.064   9.172  17.810  0.00  0.00    +0.000 C 
ATOM     11  C   UNL     1       2.942   7.929  17.741  0.00  0.00    +0.000 C 
ENDBRANCH   4  11
ENDBRANCH   2   7
ENDBRANCH   1   2
BRANCH   1  12
ATOM     12  C   UNL     1       2.781   1.838  20.252  0.00  0.00    +0.000 C 
BRANCH  12  13
ATOM     13  C   UNL     1       4.218   2.268  20.044  0.00  0.00    +0.000 C 
ATOM     14  O   UNL     1       5.125   1.902  20.791  0.00  0.00    +0.000 OA
BRANCH  13  15
ATOM     15  C   UNL     1       4.555   3.173  18.904  0.00  0.00    +0.000 A 
ATOM     16  C   UNL     1       4.079   2.836  17.630  0.00  0.00    +0.000 A 
ATOM     17  C   UNL     1       4.376   3.634  16.523  0.00  0.00    +0.000 A 
ATOM     18  C   UNL     1       5.155   4.781  16.678  0.00  0.00    +0.000 A 
ATOM     19 CL   UNL     1       5.498   5.718  15.270  0.00  0.00    +0.000 Cl
ATOM     20  C   UNL     1       5.629   5.129  17.950  0.00  0.00    +0.000 A 
ATOM     21 CL   UNL     1       6.598   6.535  18.219  0.00  0.00    +0.000 Cl
ATOM     22  C   UNL     1       5.328   4.328  19.062  0.00  0.00    +0.000 A 
ENDBRANCH  13  15
ENDBRANCH  12  13
ENDBRANCH   1  12
TORSDOF 6
ENDMDL
MODEL 7
REMARK VINA RESULT:      -7.5      1.630      2.166
REMARK  Name = 
REMARK  7 active torsions:
REMARK  status: ('A' for Active; 'I' for Inactive)
REMARK    1  A    between atoms: C_1  and  C_2
REMARK    2  A    between atoms: C_2  and  C_3
REMARK    3  A    between atoms: C_6  and  N_7
REMARK    4  A    between atoms: N_7  and  C_8
REMARK    5  A    between atoms: C_8  and  C_9
REMARK    6  A    between atoms: C_9  and  C_10
REMARK    7  A    between atoms: C_10  and  C_12
REMARK                            x       y       z     vdW  Elec       q    Type
REMARK                         _______ _______ _______ _____ _____    ______ ____
ROOT
ATOM      1  C   UNL     1       7.579   4.904  16.939  0.00  0.00    +0.000 C 
ENDROOT
BRANCH   1   2
ATOM      2  N   UNL     1       7.372   5.583  15.658  0.00  0.00    +0.000 N 
ATOM      3  H   UNL     1       6.815   6.429  15.752  0.00  0.00    +0.000 HD
BRANCH   2   7
ATOM      4  C   UNL     1       5.717   3.425  12.405  0.00  0.00    +0.000 A 
ATOM      5  C   UNL     1       5.088   3.457  13.652  0.00  0.00    +0.000 A 
ATOM      6  C   UNL     1       5.667   4.153  14.719  0.00  0.00    +0.000 A 
ATOM      7  C   UNL     1       6.899   4.807  14.584  0.00  0.00    +0.000 A 
ATOM      8  C   UNL     1       7.517   4.771  13.329  0.00  0.00    +0.000 A 
ATOM      9  C   UNL     1       6.941   4.081  12.255  0.00  0.00    +0.000 A 
BRANCH   4  11
ATOM     10  C   UNL     1       3.709   3.472  10.932  0.00  0.00    +0.000 C 
ATOM     11  C   UNL     1       5.040   2.789  11.220  0.00  0.00    +0.000 C 
ENDBRANCH   4  11
ENDBRANCH   2   7
ENDBRANCH   1   2
BRANCH   1  12
ATOM     12  C   UNL     1       7.036   5.770  18.076  0.00  0.00    +0.000 C 
BRANCH  12  13
ATOM     13  C   UNL     1       5.544   5.971  17.915  0.00  0.00    +0.000 C 
ATOM     14  O   UNL     1       5.075   6.762  17.098  0.00  0.00    +0.000 OA
BRANCH  13  15
ATOM     15  C   UNL     1       4.602   5.195  18.777  0.00  0.00    +0.000 A 
ATOM     16  C   UNL     1       4.865   3.835  18.986  0.00  0.00    +0.000 A 
ATOM     17  C   UNL     1       4.011   3.054  19.768  0.00  0.00    +0.000 A 
ATOM     18  C   UNL     1       2.882   3.628  20.354  0.00  0.00    +0.000 A 
ATOM     19 CL   UNL     1       1.859   2.609  21.299  0.00  0.00    +0.000 Cl
ATOM     20  C   UNL     1       2.616   4.990  20.156  0.00  0.00    +0.000 A 
ATOM     21 CL   UNL     1       1.237   5.769  20.850  0.00  0.00    +0.000 Cl
ATOM     22  C   UNL     1       3.475   5.773  19.372  0.00  0.00    +0.000 A 
ENDBRANCH  13  15
ENDBRANCH  12  13
ENDBRANCH   1  12
TORSDOF 6
ENDMDL
MODEL 8
REMARK VINA RESULT:      -7.4      4.061      5.678
REMARK  Name = 
REMARK  7 active torsions:
REMARK  status: ('A' for Active; 'I' for Inactive)
REMARK    1  A    between atoms: C_1  and  C_2
REMARK    2  A    between atoms: C_2  and  C_3
REMARK    3  A    between atoms: C_6  and  N_7
REMARK    4  A    between atoms: N_7  and  C_8
REMARK    5  A    between atoms: C_8  and  C_9
REMARK    6  A    between atoms: C_9  and  C_10
REMARK    7  A    between atoms: C_10  and  C_12
REMARK                            x       y       z     vdW  Elec       q    Type
REMARK                         _______ _______ _______ _____ _____    ______ ____
ROOT
ATOM      1  C   UNL     1       4.984   3.638  19.650  0.00  0.00    +0.000 C 
ENDROOT
BRANCH   1   2
ATOM      2  N   UNL     1       5.675   3.769  18.366  0.00  0.00    +0.000 N 
ATOM      3  H   UNL     1       6.260   2.963  18.156  0.00  0.00    +0.000 HD
BRANCH   2   7
ATOM      4  C   UNL     1       7.582   7.504  17.737  0.00  0.00    +0.000 A 
ATOM      5  C   UNL     1       6.530   7.078  16.923  0.00  0.00    +0.000 A 
ATOM      6  C   UNL     1       5.934   5.829  17.132  0.00  0.00    +0.000 A 
ATOM      7  C   UNL     1       6.388   4.960  18.133  0.00  0.00    +0.000 A 
ATOM      8  C   UNL     1       7.440   5.400  18.944  0.00  0.00    +0.000 A 
ATOM      9  C   UNL     1       8.037   6.650  18.745  0.00  0.00    +0.000 A 
BRANCH   4  11
ATOM     10  C   UNL     1       8.784   9.344  18.910  0.00  0.00    +0.000 C 
ATOM     11  C   UNL     1       8.141   8.895  17.603  0.00  0.00    +0.000 C 
ENDBRANCH   4  11
ENDBRANCH   2   7
ENDBRANCH   1   2
BRANCH   1  12
ATOM     12  C   UNL     1       3.513   3.295  19.412  0.00  0.00    +0.000 C 
BRANCH  12  13
ATOM     13  C   UNL     1       2.887   4.298  18.467  0.00  0.00    +0.000 C 
ATOM     14  O   UNL     1       2.724   4.057  17.271  0.00  0.00    +0.000 OA
BRANCH  13  15
ATOM     15  C   UNL     1       2.458   5.630  18.990  0.00  0.00    +0.000 A 
ATOM     16  C   UNL     1       1.995   5.704  20.310  0.00  0.00    +0.000 A 
ATOM     17  C   UNL     1       1.564   6.918  20.849  0.00  0.00    +0.000 A 
ATOM     18  C   UNL     1       1.592   8.076  20.071  0.00  0.00    +0.000 A 
ATOM     19 CL   UNL     1       1.034   9.543  20.790  0.00  0.00    +0.000 Cl
ATOM     20  C   UNL     1       2.060   8.012  18.752  0.00  0.00    +0.000 A 
ATOM     21 CL   UNL     1       2.124   9.405  17.729  0.00  0.00    +0.000 Cl
ATOM     22  C   UNL     1       2.494   6.793  18.212  0.00  0.00    +0.000 A 
ENDBRANCH  13  15
ENDBRANCH  12  13
ENDBRANCH   1  12
TORSDOF 6
ENDMDL
MODEL 9
REMARK VINA RESULT:      -7.4      1.022      1.553
REMARK  Name = 
REMARK  7 active torsions:
REMARK  status: ('A' for Active; 'I' for Inactive)
REMARK    1  A    between atoms: C_1  and  C_2
REMARK    2  A    between atoms: C_2  and  C_3
REMARK    3  A    between atoms: C_6  and  N_7
REMARK    4  A    between atoms: N_7  and  C_8
REMARK    5  A    between atoms: C_8  and  C_9
REMARK    6  A    between atoms: C_9  and  C_10
REMARK    7  A    between atoms: C_10  and  C_12
REMARK                            x       y       z     vdW  Elec       q    Type
REMARK                         _______ _______ _______ _____ _____    ______ ____
ROOT
ATOM      1  C   UNL     1       6.410   6.681  16.356  0.00  0.00    +0.000 C 
ENDROOT
BRANCH   1   2
ATOM      2  N   UNL     1       7.423   5.805  15.765  0.00  0.00    +0.000 N 
ATOM      3  H   UNL     1       8.273   6.307  15.516  0.00  0.00    +0.000 HD
BRANCH   2   7
ATOM      4  C   UNL     1       5.960   3.454  12.555  0.00  0.00    +0.000 A 
ATOM      5  C   UNL     1       5.373   3.401  13.821  0.00  0.00    +0.000 A 
ATOM      6  C   UNL     1       5.890   4.166  14.873  0.00  0.00    +0.000 A 
ATOM      7  C   UNL     1       7.021   4.976  14.702  0.00  0.00    +0.000 A 
ATOM      8  C   UNL     1       7.597   5.022  13.427  0.00  0.00    +0.000 A 
ATOM      9  C   UNL     1       7.082   4.265  12.369  0.00  0.00    +0.000 A 
BRANCH   4  11
ATOM     10  C   UNL     1       3.918   3.242  11.143  0.00  0.00    +0.000 C 
ATOM     11  C   UNL     1       5.334   2.736  11.389  0.00  0.00    +0.000 C 
ENDBRANCH   4  11
ENDBRANCH   2   7
ENDBRANCH   1   2
BRANCH   1  12
ATOM     12  C   UNL     1       6.407   6.515  17.876  0.00  0.00    +0.000 C 
BRANCH  12  13
ATOM     13  C   UNL     1       6.413   5.046  18.242  0.00  0.00    +0.000 C 
ATOM     14  O   UNL     1       7.452   4.388  18.288  0.00  0.00    +0.000 OA
BRANCH  13  15
ATOM     15  C   UNL     1       5.122   4.362  18.552  0.00  0.00    +0.000 A 
ATOM     16  C   UNL     1       5.131   3.334  19.505  0.00  0.00    +0.000 A 
ATOM     17  C   UNL     1       3.958   2.646  19.824  0.00  0.00    +0.000 A 
ATOM     18  C   UNL     1       2.760   2.979  19.192  0.00  0.00    +0.000 A 
ATOM     19 CL   UNL     1       1.347   2.085  19.619  0.00  0.00    +0.000 Cl
ATOM     20  C   UNL     1       2.741   4.011  18.243  0.00  0.00    +0.000 A 
ATOM     21 CL   UNL     1       1.294   4.479  17.420  0.00  0.00    +0.000 Cl
ATOM     22  C   UNL     1       3.919   4.702  17.925  0.00  0.00    +0.000 A 
ENDBRANCH  13  15
ENDBRANCH  12  13
ENDBRANCH   1  12
TORSDOF 6
ENDMDL
