MODEL 1
REMARK VINA RESULT:      -8.2      0.000      0.000
REMARK  Name = 
REMARK  8 active torsions:
REMARK  status: ('A' for Active; 'I' for Inactive)
REMARK    1  A    between atoms: C_1  and  O_2
REMARK    2  A    between atoms: O_2  and  C_3
REMARK    3  A    between atoms: C_6  and  N_7
REMARK    4  A    between atoms: C_8  and  C_10
REMARK    5  A    between atoms: C_15  and  C_16
REMARK    6  A    between atoms: N_18  and  C_19
REMARK    7  A    between atoms: C_22  and  O_23
REMARK    8  A    between atoms: O_23  and  C_24
REMARK                            x       y       z     vdW  Elec       q    Type
REMARK                         _______ _______ _______ _____ _____    ______ ____
ROOT
ATOM      1  C   UNL     1       3.621   3.638  19.915  0.00  0.00    +0.000 A 
ATOM      2  C   UNL     1       3.701   2.402  20.597  0.00  0.00    +0.000 A 
ATOM      3  C   UNL     1       2.712   2.006  21.499  0.00  0.00    +0.000 A 
ATOM      4  C   UNL     1       1.641   2.849  21.756  0.00  0.00    +0.000 A 
ATOM      5  C   UNL     1       1.559   4.079  21.103  0.00  0.00    +0.000 A 
ATOM      6  C   UNL     1       2.535   4.501  20.169  0.00  0.00    +0.000 A 
ENDROOT
BRANCH   1   8
ATOM      7  N   UNL     1       4.482   3.986  17.651  0.00  0.00    +0.000 N 
ATOM      8  C   UNL     1       4.750   3.975  19.013  0.00  0.00    +0.000 C 
ATOM      9  O   UNL     1       5.842   4.170  19.536  0.00  0.00    +0.000 OA
ATOM     10  H   UNL     1       3.543   3.757  17.346  0.00  0.00    +0.000 HD
BRANCH   7  14
ATOM     11  C   UNL     1       7.119   5.000  14.494  0.00  0.00    +0.000 A 
ATOM     12  C   UNL     1       7.484   5.257  15.811  0.00  0.00    +0.000 A 
ATOM     13  C   UNL     1       6.641   4.906  16.868  0.00  0.00    +0.000 A 
ATOM     14  C   UNL     1       5.399   4.316  16.626  0.00  0.00    +0.000 A 
ATOM     15  C   UNL     1       5.033   4.063  15.297  0.00  0.00    +0.000 A 
ATOM     16  C   UNL     1       5.889   4.399  14.234  0.00  0.00    +0.000 A 
BRANCH  11  18
ATOM     17  C   UNL     1       7.702   5.139  12.206  0.00  0.00    +0.000 C 
ATOM     18  O   UNL     1       8.024   5.418  13.561  0.00  0.00    +0.000 OA
ENDBRANCH  11  18
ENDBRANCH   7  14
ENDBRANCH   1   8
BRANCH   6  19
ATOM     19  C   UNL     1       2.200   5.812  19.510  0.00  0.00    +0.000 C 
ATOM     20  O   UNL     1       2.010   5.770  18.291  0.00  0.00    +0.000 OA
ATOM     21  N   UNL     1       2.114   6.959  20.264  0.00  0.00    +0.000 N 
ATOM     22  H   UNL     1       2.433   6.920  21.232  0.00  0.00    +0.000 HD
BRANCH  21  23
ATOM     23  C   UNL     1       1.712   8.235  19.806  0.00  0.00    +0.000 A 
ATOM     24  C   UNL     1       2.065   8.750  18.557  0.00  0.00    +0.000 A 
ATOM     25  C   UNL     1       1.624  10.015  18.158  0.00  0.00    +0.000 A 
ATOM     26  C   UNL     1       0.816  10.781  18.996  0.00  0.00    +0.000 A 
ATOM     27  C   UNL     1       0.472  10.285  20.252  0.00  0.00    +0.000 A 
ATOM     28  C   UNL     1       0.901   9.009  20.646  0.00  0.00    +0.000 A 
BRANCH  26  29
ATOM     29  O   UNL     1       0.451  12.002  18.500  0.00  0.00    +0.000 OA
ATOM     30  C   UNL     1      -0.951  12.232  18.433  0.00  0.00    +0.000 C 
ENDBRANCH  26  29
ENDBRANCH  21  23
ENDBRANCH   6  19
TORSDOF 6
ENDMDL
MODEL 2
REMARK VINA RESULT:      -8.1      0.438      1.007
REMARK  Name = 
REMARK  8 active torsions:
REMARK  status: ('A' for Active; 'I' for Inactive)
REMARK    1  A    between atoms: C_1  and  O_2
REMARK    2  A    between atoms: O_2  and  C_3
REMARK    3  A    between atoms: C_6  and  N_7
REMARK    4  A    between atoms: C_8  and  C_10
REMARK    5  A    between atoms: C_15  and  C_16
REMARK    6  A    between atoms: N_18  and  C_19
REMARK    7  A    between atoms: C_22  and  O_23
REMARK    8  A    between atoms: O_23  and  C_24
REMARK                            x       y       z     vdW  Elec       q    Type
REMARK                         _______ _______ _______ _____ _____    ______ ____
ROOT
ATOM      1  C   UNL     1       3.625   3.661  19.846  0.00  0.00    +0.000 A 
ATOM      2  C   UNL     1       3.701   2.426  20.529  0.00  0.00    +0.000 A 
ATOM      3  C   UNL     1       2.727   2.049  21.455  0.00  0.00    +0.000 A 
ATOM      4  C   UNL     1       1.676   2.910  21.735  0.00  0.00    +0.000 A 
ATOM      5  C   UNL     1       1.599   4.139  21.081  0.00  0.00    +0.000 A 
ATOM      6  C   UNL     1       2.560   4.543  20.123  0.00  0.00    +0.000 A 
ENDROOT
BRANCH   1   8
ATOM      7  N   UNL     1       4.413   4.119  17.575  0.00  0.00    +0.000 N 
ATOM      8  C   UNL     1       4.738   3.977  18.917  0.00  0.00    +0.000 C 
ATOM      9  O   UNL     1       5.865   4.042  19.398  0.00  0.00    +0.000 OA
ATOM     10  H   UNL     1       3.446   3.991  17.301  0.00  0.00    +0.000 HD
BRANCH   7  14
ATOM     11  C   UNL     1       7.015   5.053  14.365  0.00  0.00    +0.000 A 
ATOM     12  C   UNL     1       6.845   5.960  15.405  0.00  0.00    +0.000 A 
ATOM     13  C   UNL     1       6.012   5.660  16.485  0.00  0.00    +0.000 A 
ATOM     14  C   UNL     1       5.309   4.455  16.533  0.00  0.00    +0.000 A 
ATOM     15  C   UNL     1       5.479   3.545  15.481  0.00  0.00    +0.000 A 
ATOM     16  C   UNL     1       6.331   3.839  14.402  0.00  0.00    +0.000 A 
BRANCH  11  18
ATOM     17  C   UNL     1       7.549   4.990  12.062  0.00  0.00    +0.000 C 
ATOM     18  O   UNL     1       7.835   5.485  13.362  0.00  0.00    +0.000 OA
ENDBRANCH  11  18
ENDBRANCH   7  14
ENDBRANCH   1   8
BRANCH   6  19
ATOM     19  C   UNL     1       2.232   5.858  19.469  0.00  0.00    +0.000 C 
ATOM     20  O   UNL     1       2.064   5.826  18.247  0.00  0.00    +0.000 OA
ATOM     21  N   UNL     1       2.126   6.999  20.231  0.00  0.00    +0.000 N 
ATOM     22  H   UNL     1       2.428   6.953  21.204  0.00  0.00    +0.000 HD
BRANCH  21  23
ATOM     23  C   UNL     1       1.727   8.277  19.775  0.00  0.00    +0.000 A 
ATOM     24  C   UNL     1       0.943   9.151  20.530  0.00  0.00    +0.000 A 
ATOM     25  C   UNL     1       0.592  10.408  20.027  0.00  0.00    +0.000 A 
ATOM     26  C   UNL     1       1.028  10.813  18.767  0.00  0.00    +0.000 A 
ATOM     27  C   UNL     1       1.796   9.942  17.997  0.00  0.00    +0.000 A 
ATOM     28  C   UNL     1       2.161   8.687  18.508  0.00  0.00    +0.000 A 
BRANCH  26  29
ATOM     29  O   UNL     1       0.619  12.060  18.381  0.00  0.00    +0.000 OA
ATOM     30  C   UNL     1      -0.249  12.720  19.294  0.00  0.00    +0.000 C 
ENDBRANCH  26  29
ENDBRANCH  21  23
ENDBRANCH   6  19
TORSDOF 6
ENDMDL
MODEL 3
REMARK VINA RESULT:      -8.0      0.568      7.258
REMARK  Name = 
REMARK  8 active torsions:
REMARK  status: ('A' for Active; 'I' for Inactive)
REMARK    1  A    between atoms: C_1  and  O_2
REMARK    2  A    between atoms: O_2  and  C_3
REMARK    3  A    between atoms: C_6  and  N_7
REMARK    4  A    between atoms: C_8  and  C_10
REMARK    5  A    between atoms: C_15  and  C_16
REMARK    6  A    between atoms: N_18  and  C_19
REMARK    7  A    between atoms: C_22  and  O_23
REMARK    8  A    between atoms: O_23  and  C_24
REMARK                            x       y       z     vdW  Elec       q    Type
REMARK                         _______ _______ _______ _____ _____    ______ ____
ROOT
ATOM      1  C   UNL     1       2.443   4.483  20.146  0.00  0.00    +0.000 A 
ATOM      2  C   UNL     1       1.548   4.010  21.132  0.00  0.00    +0.000 A 
ATOM      3  C   UNL     1       1.778   2.807  21.802  0.00  0.00    +0.000 A 
ATOM      4  C   UNL     1       2.890   2.044  21.480  0.00  0.00    +0.000 A 
ATOM      5  C   UNL     1       3.772   2.491  20.496  0.00  0.00    +0.000 A 
ATOM      6  C   UNL     1       3.577   3.715  19.812  0.00  0.00    +0.000 A 
ENDROOT
BRANCH   1   8
ATOM      7  N   UNL     1       1.959   6.879  20.269  0.00  0.00    +0.000 N 
ATOM      8  C   UNL     1       2.076   5.752  19.468  0.00  0.00    +0.000 C 
ATOM      9  O   UNL     1       1.859   5.697  18.263  0.00  0.00    +0.000 OA
ATOM     10  H   UNL     1       2.119   6.777  21.265  0.00  0.00    +0.000 HD
BRANCH   7  14
ATOM     11  C   UNL     1       1.075  10.845  19.070  0.00  0.00    +0.000 A 
ATOM     12  C   UNL     1       1.702   9.976  18.183  0.00  0.00    +0.000 A 
ATOM     13  C   UNL     1       1.977   8.657  18.550  0.00  0.00    +0.000 A 
ATOM     14  C   UNL     1       1.658   8.188  19.825  0.00  0.00    +0.000 A 
ATOM     15  C   UNL     1       1.031   9.067  20.718  0.00  0.00    +0.000 A 
ATOM     16  C   UNL     1       0.736  10.390  20.343  0.00  0.00    +0.000 A 
BRANCH  11  18
ATOM     17  C   UNL     1       1.808  13.093  19.047  0.00  0.00    +0.000 C 
ATOM     18  O   UNL     1       0.890  12.110  18.591  0.00  0.00    +0.000 OA
ENDBRANCH  11  18
ENDBRANCH   7  14
ENDBRANCH   1   8
BRANCH   6  19
ATOM     19  C   UNL     1       4.698   4.052  18.866  0.00  0.00    +0.000 C 
ATOM     20  O   UNL     1       5.841   3.915  19.312  0.00  0.00    +0.000 OA
ATOM     21  N   UNL     1       4.417   4.476  17.588  0.00  0.00    +0.000 N 
ATOM     22  H   UNL     1       3.448   4.702  17.362  0.00  0.00    +0.000 HD
BRANCH  21  23
ATOM     23  C   UNL     1       5.357   4.730  16.562  0.00  0.00    +0.000 A 
ATOM     24  C   UNL     1       6.374   5.679  16.670  0.00  0.00    +0.000 A 
ATOM     25  C   UNL     1       7.281   5.873  15.623  0.00  0.00    +0.000 A 
ATOM     26  C   UNL     1       7.190   5.115  14.458  0.00  0.00    +0.000 A 
ATOM     27  C   UNL     1       6.167   4.177  14.332  0.00  0.00    +0.000 A 
ATOM     28  C   UNL     1       5.268   3.972  15.388  0.00  0.00    +0.000 A 
BRANCH  26  29
ATOM     29  O   UNL     1       8.128   5.397  13.503  0.00  0.00    +0.000 OA
ATOM     30  C   UNL     1       7.717   5.155  12.163  0.00  0.00    +0.000 C 
ENDBRANCH  26  29
ENDBRANCH  21  23
ENDBRANCH   6  19
TORSDOF 6
ENDMDL
MODEL 4
REMARK VINA RESULT:      -8.0      0.296      7.246
REMARK  Name = 
REMARK  8 active torsions:
REMARK  status: ('A' for Active; 'I' for Inactive)
REMARK    1  A    between atoms: C_1  and  O_2
REMARK    2  A    between atoms: O_2  and  C_3
REMARK    3  A    between atoms: C_6  and  N_7
REMARK    4  A    between atoms: C_8  and  C_10
REMARK    5  A    between atoms: C_15  and  C_16
REMARK    6  A    between atoms: N_18  and  C_19
REMARK    7  A    between atoms: C_22  and  O_23
REMARK    8  A    between atoms: O_23  and  C_24
REMARK                            x       y       z     vdW  Elec       q    Type
REMARK                         _______ _______ _______ _____ _____    ______ ____
ROOT
ATOM      1  C   UNL     1       2.451   4.463  20.155  0.00  0.00    +0.000 A 
ATOM      2  C   UNL     1       1.572   3.990  21.156  0.00  0.00    +0.000 A 
ATOM      3  C   UNL     1       1.810   2.784  21.818  0.00  0.00    +0.000 A 
ATOM      4  C   UNL     1       2.913   2.018  21.473  0.00  0.00    +0.000 A 
ATOM      5  C   UNL     1       3.779   2.465  20.475  0.00  0.00    +0.000 A 
ATOM      6  C   UNL     1       3.576   3.692  19.799  0.00  0.00    +0.000 A 
ENDROOT
BRANCH   1   8
ATOM      7  N   UNL     1       1.976   6.859  20.295  0.00  0.00    +0.000 N 
ATOM      8  C   UNL     1       2.076   5.734  19.488  0.00  0.00    +0.000 C 
ATOM      9  O   UNL     1       1.837   5.684  18.286  0.00  0.00    +0.000 OA
ATOM     10  H   UNL     1       2.152   6.754  21.287  0.00  0.00    +0.000 HD
BRANCH   7  14
ATOM     11  C   UNL     1       1.053  10.738  18.861  0.00  0.00    +0.000 A 
ATOM     12  C   UNL     1       0.647  10.355  20.135  0.00  0.00    +0.000 A 
ATOM     13  C   UNL     1       0.964   9.091  20.636  0.00  0.00    +0.000 A 
ATOM     14  C   UNL     1       1.671   8.171  19.860  0.00  0.00    +0.000 A 
ATOM     15  C   UNL     1       2.075   8.558  18.576  0.00  0.00    +0.000 A 
ATOM     16  C   UNL     1       1.772   9.837  18.077  0.00  0.00    +0.000 A 
BRANCH  11  18
ATOM     17  C   UNL     1      -0.741  12.250  18.565  0.00  0.00    +0.000 C 
ATOM     18  O   UNL     1       0.653  11.989  18.489  0.00  0.00    +0.000 OA
ENDBRANCH  11  18
ENDBRANCH   7  14
ENDBRANCH   1   8
BRANCH   6  19
ATOM     19  C   UNL     1       4.680   4.028  18.833  0.00  0.00    +0.000 C 
ATOM     20  O   UNL     1       5.828   3.970  19.284  0.00  0.00    +0.000 OA
ATOM     21  N   UNL     1       4.380   4.365  17.533  0.00  0.00    +0.000 N 
ATOM     22  H   UNL     1       3.402   4.531  17.297  0.00  0.00    +0.000 HD
BRANCH  21  23
ATOM     23  C   UNL     1       5.309   4.605  16.494  0.00  0.00    +0.000 A 
ATOM     24  C   UNL     1       5.292   3.922  15.277  0.00  0.00    +0.000 A 
ATOM     25  C   UNL     1       6.232   4.215  14.283  0.00  0.00    +0.000 A 
ATOM     26  C   UNL     1       7.194   5.201  14.487  0.00  0.00    +0.000 A 
ATOM     27  C   UNL     1       7.231   5.878  15.705  0.00  0.00    +0.000 A 
ATOM     28  C   UNL     1       6.280   5.594  16.696  0.00  0.00    +0.000 A 
BRANCH  26  29
ATOM     29  O   UNL     1       8.061   5.396  13.447  0.00  0.00    +0.000 OA
ATOM     30  C   UNL     1       7.609   4.914  12.187  0.00  0.00    +0.000 C 
ENDBRANCH  26  29
ENDBRANCH  21  23
ENDBRANCH   6  19
TORSDOF 6
ENDMDL
MODEL 5
REMARK VINA RESULT:      -7.9      4.154      5.709
REMARK  Name = 
REMARK  8 active torsions:
REMARK  status: ('A' for Active; 'I' for Inactive)
REMARK    1  A    between atoms: C_1  and  O_2
REMARK    2  A    between atoms: O_2  and  C_3
REMARK    3  A    between atoms: C_6  and  N_7
REMARK    4  A    between atoms: C_8  and  C_10
REMARK    5  A    between atoms: C_15  and  C_16
REMARK    6  A    between atoms: N_18  and  C_19
REMARK    7  A    between atoms: C_22  and  O_23
REMARK    8  A    between atoms: O_23  and  C_24
REMARK                            x       y       z     vdW  Elec       q    Type
REMARK                         _______ _______ _______ _____ _____    ______ ____
ROOT
ATOM      1  C   UNL     1       6.636   5.954  16.936  0.00  0.00    +0.000 A 
ATOM      2  C   UNL     1       7.329   5.348  15.863  0.00  0.00    +0.000 A 
ATOM      3  C   UNL     1       6.716   4.391  15.052  0.00  0.00    +0.000 A 
ATOM      4  C   UNL     1       5.411   4.003  15.315  0.00  0.00    +0.000 A 
ATOM      5  C   UNL     1       4.721   4.580  16.381  0.00  0.00    +0.000 A 
ATOM      6  C   UNL     1       5.308   5.567  17.210  0.00  0.00    +0.000 A 
ENDROOT
BRANCH   1   8
ATOM      7  N   UNL     1       7.524   8.212  17.252  0.00  0.00    +0.000 N 
ATOM      8  C   UNL     1       7.399   6.925  17.758  0.00  0.00    +0.000 C 
ATOM      9  O   UNL     1       7.901   6.505  18.795  0.00  0.00    +0.000 OA
ATOM     10  H   UNL     1       7.100   8.417  16.354  0.00  0.00    +0.000 HD
BRANCH   7  14
ATOM     11  C   UNL     1       9.365  11.542  19.114  0.00  0.00    +0.000 A 
ATOM     12  C   UNL     1       9.522  10.272  19.656  0.00  0.00    +0.000 A 
ATOM     13  C   UNL     1       8.945   9.157  19.042  0.00  0.00    +0.000 A 
ATOM     14  C   UNL     1       8.174   9.296  17.888  0.00  0.00    +0.000 A 
ATOM     15  C   UNL     1       8.014  10.578  17.346  0.00  0.00    +0.000 A 
ATOM     16  C   UNL     1       8.609  11.698  17.953  0.00  0.00    +0.000 A 
BRANCH  11  18
ATOM     17  C   UNL     1      11.229  12.243  20.389  0.00  0.00    +0.000 C 
ATOM     18  O   UNL     1       9.959  12.543  19.828  0.00  0.00    +0.000 OA
ENDBRANCH  11  18
ENDBRANCH   7  14
ENDBRANCH   1   8
BRANCH   6  19
ATOM     19  C   UNL     1       4.356   6.125  18.234  0.00  0.00    +0.000 C 
ATOM     20  O   UNL     1       4.512   5.724  19.391  0.00  0.00    +0.000 OA
ATOM     21  N   UNL     1       3.393   7.033  17.856  0.00  0.00    +0.000 N 
ATOM     22  H   UNL     1       3.247   7.187  16.859  0.00  0.00    +0.000 HD
BRANCH  21  23
ATOM     23  C   UNL     1       2.502   7.716  18.716  0.00  0.00    +0.000 A 
ATOM     24  C   UNL     1       2.178   7.270  19.998  0.00  0.00    +0.000 A 
ATOM     25  C   UNL     1       1.298   7.998  20.804  0.00  0.00    +0.000 A 
ATOM     26  C   UNL     1       0.737   9.188  20.345  0.00  0.00    +0.000 A 
ATOM     27  C   UNL     1       1.039   9.634  19.060  0.00  0.00    +0.000 A 
ATOM     28  C   UNL     1       1.933   8.911  18.257  0.00  0.00    +0.000 A 
BRANCH  26  29
ATOM     29  O   UNL     1      -0.112   9.810  21.220  0.00  0.00    +0.000 OA
ATOM     30  C   UNL     1       0.063   9.454  22.586  0.00  0.00    +0.000 C 
ENDBRANCH  26  29
ENDBRANCH  21  23
ENDBRANCH   6  19
TORSDOF 6
ENDMDL
MODEL 6
REMARK VINA RESULT:      -7.6      4.214      7.715
REMARK  Name = 
REMARK  8 active torsions:
REMARK  status: ('A' for Active; 'I' for Inactive)
REMARK    1  A    between atoms: C_1  and  O_2
REMARK    2  A    between atoms: O_2  and  C_3
REMARK    3  A    between atoms: C_6  and  N_7
REMARK    4  A    between atoms: C_8  and  C_10
REMARK    5  A    between atoms: C_15  and  C_16
REMARK    6  A    between atoms: N_18  and  C_19
REMARK    7  A    between atoms: C_22  and  O_23
REMARK    8  A    between atoms: O_23  and  C_24
REMARK                            x       y       z     vdW  Elec       q    Type
REMARK                         _______ _______ _______ _____ _____    ______ ____
ROOT
ATOM      1  C   UNL     1       5.279   5.642  17.102  0.00  0.00    +0.000 A 
ATOM      2  C   UNL     1       4.777   4.612  16.273  0.00  0.00    +0.000 A 
ATOM      3  C   UNL     1       5.578   4.007  15.304  0.00  0.00    +0.000 A 
ATOM      4  C   UNL     1       6.884   4.437  15.126  0.00  0.00    +0.000 A 
ATOM      5  C   UNL     1       7.387   5.463  15.926  0.00  0.00    +0.000 A 
ATOM      6  C   UNL     1       6.607   6.085  16.930  0.00  0.00    +0.000 A 
ENDROOT
BRANCH   1   8
ATOM      7  N   UNL     1       3.629   7.366  17.643  0.00  0.00    +0.000 N 
ATOM      8  C   UNL     1       4.326   6.243  18.068  0.00  0.00    +0.000 C 
ATOM      9  O   UNL     1       4.263   5.732  19.180  0.00  0.00    +0.000 OA
ATOM     10  H   UNL     1       3.812   7.719  16.711  0.00  0.00    +0.000 HD
BRANCH   7  14
ATOM     11  C   UNL     1       0.635   9.501  19.747  0.00  0.00    +0.000 A 
ATOM     12  C   UNL     1       1.238   8.394  20.334  0.00  0.00    +0.000 A 
ATOM     13  C   UNL     1       2.246   7.692  19.668  0.00  0.00    +0.000 A 
ATOM     14  C   UNL     1       2.651   8.068  18.386  0.00  0.00    +0.000 A 
ATOM     15  C   UNL     1       2.039   9.182  17.797  0.00  0.00    +0.000 A 
ATOM     16  C   UNL     1       1.037   9.899  18.473  0.00  0.00    +0.000 A 
BRANCH  11  18
ATOM     17  C   UNL     1      -1.059  11.145  19.887  0.00  0.00    +0.000 C 
ATOM     18  O   UNL     1      -0.351  10.075  20.497  0.00  0.00    +0.000 OA
ENDBRANCH  11  18
ENDBRANCH   7  14
ENDBRANCH   1   8
BRANCH   6  19
ATOM     19  C   UNL     1       7.374   7.096  17.739  0.00  0.00    +0.000 C 
ATOM     20  O   UNL     1       7.972   6.656  18.725  0.00  0.00    +0.000 OA
ATOM     21  N   UNL     1       7.386   8.418  17.357  0.00  0.00    +0.000 N 
ATOM     22  H   UNL     1       6.744   8.708  16.620  0.00  0.00    +0.000 HD
BRANCH  21  23
ATOM     23  C   UNL     1       8.138   9.456  17.954  0.00  0.00    +0.000 A 
ATOM     24  C   UNL     1       8.956   9.269  19.069  0.00  0.00    +0.000 A 
ATOM     25  C   UNL     1       9.685  10.335  19.605  0.00  0.00    +0.000 A 
ATOM     26  C   UNL     1       9.615  11.602  19.028  0.00  0.00    +0.000 A 
ATOM     27  C   UNL     1       8.787  11.805  17.925  0.00  0.00    +0.000 A 
ATOM     28  C   UNL     1       8.068  10.731  17.379  0.00  0.00    +0.000 A 
BRANCH  26  29
ATOM     29  O   UNL     1      10.367  12.565  19.641  0.00  0.00    +0.000 OA
ATOM     30  C   UNL     1      11.486  13.025  18.892  0.00  0.00    +0.000 C 
ENDBRANCH  26  29
ENDBRANCH  21  23
ENDBRANCH   6  19
TORSDOF 6
ENDMDL
MODEL 7
REMARK VINA RESULT:      -7.5      0.633      7.424
REMARK  Name = 
REMARK  8 active torsions:
REMARK  status: ('A' for Active; 'I' for Inactive)
REMARK    1  A    between atoms: C_1  and  O_2
REMARK    2  A    between atoms: O_2  and  C_3
REMARK    3  A    between atoms: C_6  and  N_7
REMARK    4  A    between atoms: C_8  and  C_10
REMARK    5  A    between atoms: C_15  and  C_16
REMARK    6  A    between atoms: N_18  and  C_19
REMARK    7  A    between atoms: C_22  and  O_23
REMARK    8  A    between atoms: O_23  and  C_24
REMARK                            x       y       z     vdW  Elec       q    Type
REMARK                         _______ _______ _______ _____ _____    ______ ____
ROOT
ATOM      1  C   UNL     1       2.774   4.492  19.989  0.00  0.00    +0.000 A 
ATOM      2  C   UNL     1       1.997   4.033  21.076  0.00  0.00    +0.000 A 
ATOM      3  C   UNL     1       2.291   2.829  21.720  0.00  0.00    +0.000 A 
ATOM      4  C   UNL     1       3.348   2.052  21.271  0.00  0.00    +0.000 A 
ATOM      5  C   UNL     1       4.113   2.486  20.188  0.00  0.00    +0.000 A 
ATOM      6  C   UNL     1       3.852   3.710  19.527  0.00  0.00    +0.000 A 
ENDROOT
BRANCH   1   8
ATOM      7  N   UNL     1       2.135   6.846  20.196  0.00  0.00    +0.000 N 
ATOM      8  C   UNL     1       2.344   5.763  19.353  0.00  0.00    +0.000 C 
ATOM      9  O   UNL     1       2.159   5.746  18.141  0.00  0.00    +0.000 OA
ATOM     10  H   UNL     1       2.277   6.712  21.191  0.00  0.00    +0.000 HD
BRANCH   7  14
ATOM     11  C   UNL     1       1.009  10.708  18.870  0.00  0.00    +0.000 A 
ATOM     12  C   UNL     1       0.647  10.280  20.143  0.00  0.00    +0.000 A 
ATOM     13  C   UNL     1       1.032   9.020  20.609  0.00  0.00    +0.000 A 
ATOM     14  C   UNL     1       1.762   8.151  19.798  0.00  0.00    +0.000 A 
ATOM     15  C   UNL     1       2.121   8.584  18.515  0.00  0.00    +0.000 A 
ATOM     16  C   UNL     1       1.750   9.858  18.051  0.00  0.00    +0.000 A 
BRANCH  11  18
ATOM     17  C   UNL     1      -0.223  12.619  19.524  0.00  0.00    +0.000 C 
ATOM     18  O   UNL     1       0.545  11.948  18.535  0.00  0.00    +0.000 OA
ENDBRANCH  11  18
ENDBRANCH   7  14
ENDBRANCH   1   8
BRANCH   6  19
ATOM     19  C   UNL     1       4.857   4.031  18.453  0.00  0.00    +0.000 C 
ATOM     20  O   UNL     1       6.021   4.186  18.832  0.00  0.00    +0.000 OA
ATOM     21  N   UNL     1       4.455   4.127  17.140  0.00  0.00    +0.000 N 
ATOM     22  H   UNL     1       3.454   4.132  16.946  0.00  0.00    +0.000 HD
BRANCH  21  23
ATOM     23  C   UNL     1       5.295   4.320  16.019  0.00  0.00    +0.000 A 
ATOM     24  C   UNL     1       6.495   5.029  16.071  0.00  0.00    +0.000 A 
ATOM     25  C   UNL     1       7.287   5.174  14.927  0.00  0.00    +0.000 A 
ATOM     26  C   UNL     1       6.895   4.604  13.718  0.00  0.00    +0.000 A 
ATOM     27  C   UNL     1       5.689   3.909  13.650  0.00  0.00    +0.000 A 
ATOM     28  C   UNL     1       4.903   3.751  14.800  0.00  0.00    +0.000 A 
BRANCH  26  29
ATOM     29  O   UNL     1       7.747   4.815  12.669  0.00  0.00    +0.000 OA
ATOM     30  C   UNL     1       8.589   5.956  12.795  0.00  0.00    +0.000 C 
ENDBRANCH  26  29
ENDBRANCH  21  23
ENDBRANCH   6  19
TORSDOF 6
ENDMDL
MODEL 8
REMARK VINA RESULT:      -7.5      4.155      5.579
REMARK  Name = 
REMARK  8 active torsions:
REMARK  status: ('A' for Active; 'I' for Inactive)
REMARK    1  A    between atoms: C_1  and  O_2
REMARK    2  A    between atoms: O_2  and  C_3
REMARK    3  A    between atoms: C_6  and  N_7
REMARK    4  A    between atoms: C_8  and  C_10
REMARK    5  A    between atoms: C_15  and  C_16
REMARK    6  A    between atoms: N_18  and  C_19
REMARK    7  A    between atoms: C_22  and  O_23
REMARK    8  A    between atoms: O_23  and  C_24
REMARK                            x       y       z     vdW  Elec       q    Type
REMARK                         _______ _______ _______ _____ _____    ______ ____
ROOT
ATOM      1  C   UNL     1       6.652   5.956  16.964  0.00  0.00    +0.000 A 
ATOM      2  C   UNL     1       7.377   5.241  15.982  0.00  0.00    +0.000 A 
ATOM      3  C   UNL     1       6.763   4.265  15.195  0.00  0.00    +0.000 A 
ATOM      4  C   UNL     1       5.423   3.968  15.393  0.00  0.00    +0.000 A 
ATOM      5  C   UNL     1       4.700   4.654  16.369  0.00  0.00    +0.000 A 
ATOM      6  C   UNL     1       5.289   5.661  17.171  0.00  0.00    +0.000 A 
ENDROOT
BRANCH   1   8
ATOM      7  N   UNL     1       7.507   8.228  17.267  0.00  0.00    +0.000 N 
ATOM      8  C   UNL     1       7.417   6.938  17.771  0.00  0.00    +0.000 C 
ATOM      9  O   UNL     1       7.949   6.524  18.795  0.00  0.00    +0.000 OA
ATOM     10  H   UNL     1       7.059   8.428  16.380  0.00  0.00    +0.000 HD
BRANCH   7  14
ATOM     11  C   UNL     1       9.334  11.588  19.090  0.00  0.00    +0.000 A 
ATOM     12  C   UNL     1       9.466  10.330  19.667  0.00  0.00    +0.000 A 
ATOM     13  C   UNL     1       8.894   9.205  19.068  0.00  0.00    +0.000 A 
ATOM     14  C   UNL     1       8.152   9.322  17.891  0.00  0.00    +0.000 A 
ATOM     15  C   UNL     1       8.017  10.592  17.315  0.00  0.00    +0.000 A 
ATOM     16  C   UNL     1       8.608  11.722  17.908  0.00  0.00    +0.000 A 
BRANCH  11  18
ATOM     17  C   UNL     1      10.913  12.217  20.735  0.00  0.00    +0.000 C 
ATOM     18  O   UNL     1       9.920  12.600  19.794  0.00  0.00    +0.000 OA
ENDBRANCH  11  18
ENDBRANCH   7  14
ENDBRANCH   1   8
BRANCH   6  19
ATOM     19  C   UNL     1       4.308   6.339  18.089  0.00  0.00    +0.000 C 
ATOM     20  O   UNL     1       4.320   5.964  19.264  0.00  0.00    +0.000 OA
ATOM     21  N   UNL     1       3.473   7.319  17.602  0.00  0.00    +0.000 N 
ATOM     22  H   UNL     1       3.432   7.453  16.592  0.00  0.00    +0.000 HD
BRANCH  21  23
ATOM     23  C   UNL     1       2.578   8.110  18.359  0.00  0.00    +0.000 A 
ATOM     24  C   UNL     1       2.062   9.327  17.912  0.00  0.00    +0.000 A 
ATOM     25  C   UNL     1       1.169  10.056  18.705  0.00  0.00    +0.000 A 
ATOM     26  C   UNL     1       0.773   9.575  19.951  0.00  0.00    +0.000 A 
ATOM     27  C   UNL     1       1.296   8.369  20.415  0.00  0.00    +0.000 A 
ATOM     28  C   UNL     1       2.179   7.631  19.614  0.00  0.00    +0.000 A 
BRANCH  26  29
ATOM     29  O   UNL     1      -0.099  10.375  20.636  0.00  0.00    +0.000 OA
ATOM     30  C   UNL     1      -1.057  11.052  19.832  0.00  0.00    +0.000 C 
ENDBRANCH  26  29
ENDBRANCH  21  23
ENDBRANCH   6  19
TORSDOF 6
ENDMDL
MODEL 9
REMARK VINA RESULT:      -7.5      4.213      7.671
REMARK  Name = 
REMARK  8 active torsions:
REMARK  status: ('A' for Active; 'I' for Inactive)
REMARK    1  A    between atoms: C_1  and  O_2
REMARK    2  A    between atoms: O_2  and  C_3
REMARK    3  A    between atoms: C_6  and  N_7
REMARK    4  A    between atoms: C_8  and  C_10
REMARK    5  A    between atoms: C_15  and  C_16
REMARK    6  A    between atoms: N_18  and  C_19
REMARK    7  A    between atoms: C_22  and  O_23
REMARK    8  A    between atoms: O_23  and  C_24
REMARK                            x       y       z     vdW  Elec       q    Type
REMARK                         _______ _______ _______ _____ _____    ______ ____
ROOT
ATOM      1  C   UNL     1       5.285   5.599  17.192  0.00  0.00    +0.000 A 
ATOM      2  C   UNL     1       4.754   4.568  16.384  0.00  0.00    +0.000 A 
ATOM      3  C   UNL     1       5.507   3.988  15.362  0.00  0.00    +0.000 A 
ATOM      4  C   UNL     1       6.792   4.446  15.112  0.00  0.00    +0.000 A 
ATOM      5  C   UNL     1       7.322   5.474  15.891  0.00  0.00    +0.000 A 
ATOM      6  C   UNL     1       6.591   6.071  16.947  0.00  0.00    +0.000 A 
ENDROOT
BRANCH   1   8
ATOM      7  N   UNL     1       3.535   7.194  17.810  0.00  0.00    +0.000 N 
ATOM      8  C   UNL     1       4.380   6.172  18.220  0.00  0.00    +0.000 C 
ATOM      9  O   UNL     1       4.482   5.733  19.360  0.00  0.00    +0.000 OA
ATOM     10  H   UNL     1       3.585   7.500  16.845  0.00  0.00    +0.000 HD
BRANCH   7  14
ATOM     11  C   UNL     1       0.584   9.197  20.098  0.00  0.00    +0.000 A 
ATOM     12  C   UNL     1       1.201   8.059  20.606  0.00  0.00    +0.000 A 
ATOM     13  C   UNL     1       2.195   7.400  19.880  0.00  0.00    +0.000 A 
ATOM     14  C   UNL     1       2.572   7.850  18.613  0.00  0.00    +0.000 A 
ATOM     15  C   UNL     1       1.946   8.994  18.102  0.00  0.00    +0.000 A 
ATOM     16  C   UNL     1       0.958   9.669  18.841  0.00  0.00    +0.000 A 
BRANCH  11  18
ATOM     17  C   UNL     1      -0.242   9.491  22.294  0.00  0.00    +0.000 C 
ATOM     18  O   UNL     1      -0.386   9.725  20.901  0.00  0.00    +0.000 OA
ENDBRANCH  11  18
ENDBRANCH   7  14
ENDBRANCH   1   8
BRANCH   6  19
ATOM     19  C   UNL     1       7.386   7.089  17.719  0.00  0.00    +0.000 C 
ATOM     20  O   UNL     1       8.036   6.654  18.674  0.00  0.00    +0.000 OA
ATOM     21  N   UNL     1       7.363   8.411  17.341  0.00  0.00    +0.000 N 
ATOM     22  H   UNL     1       6.682   8.696  16.637  0.00  0.00    +0.000 HD
BRANCH  21  23
ATOM     23  C   UNL     1       8.132   9.457  17.902  0.00  0.00    +0.000 A 
ATOM     24  C   UNL     1       8.168  10.751  17.380  0.00  0.00    +0.000 A 
ATOM     25  C   UNL     1       8.939  11.744  17.990  0.00  0.00    +0.000 A 
ATOM     26  C   UNL     1       9.679  11.463  19.137  0.00  0.00    +0.000 A 
ATOM     27  C   UNL     1       9.666  10.170  19.657  0.00  0.00    +0.000 A 
ATOM     28  C   UNL     1       8.879   9.177  19.054  0.00  0.00    +0.000 A 
BRANCH  26  29
ATOM     29  O   UNL     1      10.398  12.511  19.641  0.00  0.00    +0.000 OA
ATOM     30  C   UNL     1      10.049  12.901  20.964  0.00  0.00    +0.000 C 
ENDBRANCH  26  29
ENDBRANCH  21  23
ENDBRANCH   6  19
TORSDOF 6
ENDMDL
