MODEL 1
REMARK VINA RESULT:      -6.7      0.000      0.000
REMARK  Name = 
REMARK  13 active torsions:
REMARK  status: ('A' for Active; 'I' for Inactive)
REMARK    1  A    between atoms: C_1  and  C_2
REMARK    2  A    between atoms: C_2  and  C_3
REMARK    3  A    between atoms: C_3  and  C_4
REMARK    4  A    between atoms: C_4  and  C_5
REMARK    5  A    between atoms: C_5  and  C_6
REMARK    6  A    between atoms: C_8  and  O_9
REMARK    7  A    between atoms: C_14  and  C_15
REMARK    8  A    between atoms: C_14  and  C_16
REMARK    9  A    between atoms: C_19  and  O_20
REMARK   10  A    between atoms: O_20  and  C_21
REMARK   11  A    between atoms: C_21  and  C_22
REMARK   12  A    between atoms: C_23  and  C_24
REMARK   13  A    between atoms: C_23  and  O_25
REMARK                            x       y       z     vdW  Elec       q    Type
REMARK                         _______ _______ _______ _____ _____    ______ ____
ROOT
ATOM      1  C   UNL     1       2.794   6.807  18.371  0.00  0.00    +0.000 A 
ATOM      2  C   UNL     1       2.696   7.925  17.547  0.00  0.00    +0.000 A 
ATOM      3  C   UNL     1       2.088   9.105  18.008  0.00  0.00    +0.000 A 
ATOM      4  C   UNL     1       1.541   9.215  19.309  0.00  0.00    +0.000 A 
ATOM      5  C   UNL     1       1.633   8.069  20.104  0.00  0.00    +0.000 A 
ATOM      6  C   UNL     1       2.256   6.894  19.653  0.00  0.00    +0.000 A 
ATOM      7  O   UNL     1       1.129   7.950  21.362  0.00  0.00    +0.000 OA
ATOM      8  C   UNL     1       0.562   9.096  22.017  0.00  0.00    +0.000 C 
ATOM      9  C   UNL     1       1.497   9.362  23.211  0.00  0.00    +0.000 C 
ATOM     10  C   UNL     1      -0.804   8.609  22.523  0.00  0.00    +0.000 C 
ATOM     11  C   UNL     1       0.410  10.361  21.163  0.00  0.00    +0.000 C 
ATOM     12  C   UNL     1       0.903  10.424  19.894  0.00  0.00    +0.000 C 
ATOM     13  C   UNL     1       0.809  11.725  19.121  0.00  0.00    +0.000 C 
ATOM     14  C   UNL     1      -0.406  12.616  19.565  0.00  0.00    +0.000 C 
ATOM     15  C   UNL     1      -1.755  11.972  19.174  0.00  0.00    +0.000 C 
ATOM     16  C   UNL     1      -0.417  12.835  21.074  0.00  0.00    +0.000 C 
ATOM     17  C   UNL     1      -0.288  11.527  21.841  0.00  0.00    +0.000 C 
ENDROOT
BRANCH   3  18
ATOM     18  O   UNL     1       2.019  10.142  17.117  0.00  0.00    +0.000 OA
ATOM     19  H   UNL     1       1.150  10.567  17.184  0.00  0.00    +0.000 HD
ENDBRANCH   3  18
BRANCH  14  20
ATOM     20  O   UNL     1      -0.373  13.897  18.920  0.00  0.00    +0.000 OA
ATOM     21  H   UNL     1      -1.297  14.139  18.721  0.00  0.00    +0.000 HD
ENDBRANCH  14  20
BRANCH   1  22
ATOM     22  C   UNL     1       3.472   5.545  17.896  0.00  0.00    +0.000 C 
BRANCH  22  23
ATOM     23  C   UNL     1       2.993   4.298  18.644  0.00  0.00    +0.000 C 
BRANCH  23  24
ATOM     24  C   UNL     1       1.840   3.620  17.903  0.00  0.00    +0.000 C 
BRANCH  24  26
ATOM     25  C   UNL     1       1.086   3.420  20.295  0.00  0.00    +0.000 C 
ATOM     26  C   UNL     1       0.899   2.910  18.875  0.00  0.00    +0.000 C 
ENDBRANCH  24  26
ENDBRANCH  23  24
ENDBRANCH  22  23
ENDBRANCH   1  22
BRANCH  13  27
ATOM     27  O   UNL     1       2.092  12.410  19.105  0.00  0.00    +0.000 OA
BRANCH  27  28
ATOM     28  C   UNL     1       2.376  13.216  17.965  0.00  0.00    +0.000 C 
ATOM     29  C   UNL     1       3.239  14.414  18.305  0.00  0.00    +0.000 C 
ENDBRANCH  27  28
ENDBRANCH  13  27
TORSDOF 8
ENDMDL
MODEL 2
REMARK VINA RESULT:      -6.4      1.363      2.445
REMARK  Name = 
REMARK  13 active torsions:
REMARK  status: ('A' for Active; 'I' for Inactive)
REMARK    1  A    between atoms: C_1  and  C_2
REMARK    2  A    between atoms: C_2  and  C_3
REMARK    3  A    between atoms: C_3  and  C_4
REMARK    4  A    between atoms: C_4  and  C_5
REMARK    5  A    between atoms: C_5  and  C_6
REMARK    6  A    between atoms: C_8  and  O_9
REMARK    7  A    between atoms: C_14  and  C_15
REMARK    8  A    between atoms: C_14  and  C_16
REMARK    9  A    between atoms: C_19  and  O_20
REMARK   10  A    between atoms: O_20  and  C_21
REMARK   11  A    between atoms: C_21  and  C_22
REMARK   12  A    between atoms: C_23  and  C_24
REMARK   13  A    between atoms: C_23  and  O_25
REMARK                            x       y       z     vdW  Elec       q    Type
REMARK                         _______ _______ _______ _____ _____    ______ ____
ROOT
ATOM      1  C   UNL     1       2.877   6.927  18.387  0.00  0.00    +0.000 A 
ATOM      2  C   UNL     1       2.776   8.052  17.574  0.00  0.00    +0.000 A 
ATOM      3  C   UNL     1       2.135   9.216  18.035  0.00  0.00    +0.000 A 
ATOM      4  C   UNL     1       1.559   9.301  19.324  0.00  0.00    +0.000 A 
ATOM      5  C   UNL     1       1.655   8.148  20.108  0.00  0.00    +0.000 A 
ATOM      6  C   UNL     1       2.310   6.990  19.659  0.00  0.00    +0.000 A 
ATOM      7  O   UNL     1       1.126   8.005  21.354  0.00  0.00    +0.000 OA
ATOM      8  C   UNL     1       0.524   9.133  22.009  0.00  0.00    +0.000 C 
ATOM      9  C   UNL     1       1.428   9.403  23.225  0.00  0.00    +0.000 C 
ATOM     10  C   UNL     1      -0.844   8.614  22.480  0.00  0.00    +0.000 C 
ATOM     11  C   UNL     1       0.366  10.404  21.165  0.00  0.00    +0.000 C 
ATOM     12  C   UNL     1       0.885  10.491  19.908  0.00  0.00    +0.000 C 
ATOM     13  C   UNL     1       0.783  11.799  19.147  0.00  0.00    +0.000 C 
ATOM     14  C   UNL     1      -0.458  12.662  19.574  0.00  0.00    +0.000 C 
ATOM     15  C   UNL     1      -1.785  11.997  19.148  0.00  0.00    +0.000 C 
ATOM     16  C   UNL     1      -0.505  12.863  21.085  0.00  0.00    +0.000 C 
ATOM     17  C   UNL     1      -0.368  11.549  21.841  0.00  0.00    +0.000 C 
ENDROOT
BRANCH   3  18
ATOM     18  O   UNL     1       2.066  10.261  17.153  0.00  0.00    +0.000 OA
ATOM     19  H   UNL     1       2.603  10.058  16.370  0.00  0.00    +0.000 HD
ENDBRANCH   3  18
BRANCH  14  20
ATOM     20  O   UNL     1      -0.435  13.950  18.945  0.00  0.00    +0.000 OA
ATOM     21  H   UNL     1       0.478  14.097  18.632  0.00  0.00    +0.000 HD
ENDBRANCH  14  20
BRANCH   1  22
ATOM     22  C   UNL     1       3.589   5.684  17.914  0.00  0.00    +0.000 C 
BRANCH  22  23
ATOM     23  C   UNL     1       4.807   5.995  17.042  0.00  0.00    +0.000 C 
BRANCH  23  24
ATOM     24  C   UNL     1       6.091   6.015  17.874  0.00  0.00    +0.000 C 
BRANCH  24  26
ATOM     25  C   UNL     1       7.775   7.877  17.718  0.00  0.00    +0.000 C 
ATOM     26  C   UNL     1       7.256   6.600  17.078  0.00  0.00    +0.000 C 
ENDBRANCH  24  26
ENDBRANCH  23  24
ENDBRANCH  22  23
ENDBRANCH   1  22
BRANCH  13  27
ATOM     27  O   UNL     1       2.052  12.508  19.167  0.00  0.00    +0.000 OA
BRANCH  27  28
ATOM     28  C   UNL     1       2.400  13.236  17.992  0.00  0.00    +0.000 C 
ATOM     29  C   UNL     1       3.017  14.583  18.310  0.00  0.00    +0.000 C 
ENDBRANCH  27  28
ENDBRANCH  13  27
TORSDOF 8
ENDMDL
MODEL 3
REMARK VINA RESULT:      -6.3      1.334      2.218
REMARK  Name = 
REMARK  13 active torsions:
REMARK  status: ('A' for Active; 'I' for Inactive)
REMARK    1  A    between atoms: C_1  and  C_2
REMARK    2  A    between atoms: C_2  and  C_3
REMARK    3  A    between atoms: C_3  and  C_4
REMARK    4  A    between atoms: C_4  and  C_5
REMARK    5  A    between atoms: C_5  and  C_6
REMARK    6  A    between atoms: C_8  and  O_9
REMARK    7  A    between atoms: C_14  and  C_15
REMARK    8  A    between atoms: C_14  and  C_16
REMARK    9  A    between atoms: C_19  and  O_20
REMARK   10  A    between atoms: O_20  and  C_21
REMARK   11  A    between atoms: C_21  and  C_22
REMARK   12  A    between atoms: C_23  and  C_24
REMARK   13  A    between atoms: C_23  and  O_25
REMARK                            x       y       z     vdW  Elec       q    Type
REMARK                         _______ _______ _______ _____ _____    ______ ____
ROOT
ATOM      1  C   UNL     1       2.864   6.760  18.473  0.00  0.00    +0.000 A 
ATOM      2  C   UNL     1       2.767   7.858  17.623  0.00  0.00    +0.000 A 
ATOM      3  C   UNL     1       2.141   9.042  18.049  0.00  0.00    +0.000 A 
ATOM      4  C   UNL     1       1.576   9.176  19.340  0.00  0.00    +0.000 A 
ATOM      5  C   UNL     1       1.668   8.050  20.161  0.00  0.00    +0.000 A 
ATOM      6  C   UNL     1       2.307   6.870  19.746  0.00  0.00    +0.000 A 
ATOM      7  O   UNL     1       1.148   7.954  21.415  0.00  0.00    +0.000 OA
ATOM      8  C   UNL     1       0.562   9.109  22.037  0.00  0.00    +0.000 C 
ATOM      9  C   UNL     1       1.478   9.411  23.236  0.00  0.00    +0.000 C 
ATOM     10  C   UNL     1      -0.807   8.620  22.535  0.00  0.00    +0.000 C 
ATOM     11  C   UNL     1       0.410  10.353  21.152  0.00  0.00    +0.000 C 
ATOM     12  C   UNL     1       0.919  10.392  19.888  0.00  0.00    +0.000 C 
ATOM     13  C   UNL     1       0.824  11.675  19.085  0.00  0.00    +0.000 C 
ATOM     14  C   UNL     1      -0.405  12.564  19.492  0.00  0.00    +0.000 C 
ATOM     15  C   UNL     1      -1.742  11.899  19.098  0.00  0.00    +0.000 C 
ATOM     16  C   UNL     1      -0.438  12.817  20.996  0.00  0.00    +0.000 C 
ATOM     17  C   UNL     1      -0.308  11.528  21.794  0.00  0.00    +0.000 C 
ENDROOT
BRANCH   3  18
ATOM     18  O   UNL     1       2.075  10.058  17.133  0.00  0.00    +0.000 OA
ATOM     19  H   UNL     1       2.967  10.407  16.975  0.00  0.00    +0.000 HD
ENDBRANCH   3  18
BRANCH  14  20
ATOM     20  O   UNL     1      -0.375  13.830  18.820  0.00  0.00    +0.000 OA
ATOM     21  H   UNL     1      -1.275  14.203  18.876  0.00  0.00    +0.000 HD
ENDBRANCH  14  20
BRANCH   1  22
ATOM     22  C   UNL     1       3.559   5.494  18.036  0.00  0.00    +0.000 C 
BRANCH  22  23
ATOM     23  C   UNL     1       4.784   5.764  17.159  0.00  0.00    +0.000 C 
BRANCH  23  24
ATOM     24  C   UNL     1       4.939   4.689  16.082  0.00  0.00    +0.000 C 
BRANCH  24  26
ATOM     25  C   UNL     1       6.221   4.015  14.025  0.00  0.00    +0.000 C 
ATOM     26  C   UNL     1       5.864   5.159  14.960  0.00  0.00    +0.000 C 
ENDBRANCH  24  26
ENDBRANCH  23  24
ENDBRANCH  22  23
ENDBRANCH   1  22
BRANCH  13  27
ATOM     27  O   UNL     1       2.100  12.371  19.071  0.00  0.00    +0.000 OA
BRANCH  27  28
ATOM     28  C   UNL     1       2.385  13.167  17.924  0.00  0.00    +0.000 C 
ATOM     29  C   UNL     1       3.102  14.454  18.278  0.00  0.00    +0.000 C 
ENDBRANCH  27  28
ENDBRANCH  13  27
TORSDOF 8
ENDMDL
MODEL 4
REMARK VINA RESULT:      -6.1      2.449      4.763
REMARK  Name = 
REMARK  13 active torsions:
REMARK  status: ('A' for Active; 'I' for Inactive)
REMARK    1  A    between atoms: C_1  and  C_2
REMARK    2  A    between atoms: C_2  and  C_3
REMARK    3  A    between atoms: C_3  and  C_4
REMARK    4  A    between atoms: C_4  and  C_5
REMARK    5  A    between atoms: C_5  and  C_6
REMARK    6  A    between atoms: C_8  and  O_9
REMARK    7  A    between atoms: C_14  and  C_15
REMARK    8  A    between atoms: C_14  and  C_16
REMARK    9  A    between atoms: C_19  and  O_20
REMARK   10  A    between atoms: O_20  and  C_21
REMARK   11  A    between atoms: C_21  and  C_22
REMARK   12  A    between atoms: C_23  and  C_24
REMARK   13  A    between atoms: C_23  and  O_25
REMARK                            x       y       z     vdW  Elec       q    Type
REMARK                         _______ _______ _______ _____ _____    ______ ____
ROOT
ATOM      1  C   UNL     1       1.338   8.440  20.511  0.00  0.00    +0.000 A 
ATOM      2  C   UNL     1       1.151   8.791  21.845  0.00  0.00    +0.000 A 
ATOM      3  C   UNL     1       0.459   9.966  22.187  0.00  0.00    +0.000 A 
ATOM      4  C   UNL     1      -0.066  10.845  21.211  0.00  0.00    +0.000 A 
ATOM      5  C   UNL     1       0.159  10.478  19.881  0.00  0.00    +0.000 A 
ATOM      6  C   UNL     1       0.834   9.297  19.535  0.00  0.00    +0.000 A 
ATOM      7  O   UNL     1      -0.219  11.207  18.796  0.00  0.00    +0.000 OA
ATOM      8  C   UNL     1      -1.021  12.386  18.970  0.00  0.00    +0.000 C 
ATOM      9  C   UNL     1      -2.359  12.048  18.288  0.00  0.00    +0.000 C 
ATOM     10  C   UNL     1      -0.285  13.470  18.167  0.00  0.00    +0.000 C 
ATOM     11  C   UNL     1      -1.256  12.841  20.416  0.00  0.00    +0.000 C 
ATOM     12  C   UNL     1      -0.831  12.093  21.473  0.00  0.00    +0.000 C 
ATOM     13  C   UNL     1      -1.166  12.537  22.884  0.00  0.00    +0.000 C 
ATOM     14  C   UNL     1      -1.347  14.093  23.011  0.00  0.00    +0.000 C 
ATOM     15  C   UNL     1      -0.011  14.839  22.802  0.00  0.00    +0.000 C 
ATOM     16  C   UNL     1      -2.340  14.625  21.983  0.00  0.00    +0.000 C 
ATOM     17  C   UNL     1      -2.016  14.146  20.575  0.00  0.00    +0.000 C 
ENDROOT
BRANCH   3  18
ATOM     18  O   UNL     1       0.346  10.237  23.524  0.00  0.00    +0.000 OA
ATOM     19  H   UNL     1       0.572  11.167  23.685  0.00  0.00    +0.000 HD
ENDBRANCH   3  18
BRANCH  14  20
ATOM     20  O   UNL     1      -1.809  14.456  24.319  0.00  0.00    +0.000 OA
ATOM     21  H   UNL     1      -2.110  13.635  24.752  0.00  0.00    +0.000 HD
ENDBRANCH  14  20
BRANCH   1  22
ATOM     22  C   UNL     1       2.053   7.166  20.133  0.00  0.00    +0.000 C 
BRANCH  22  23
ATOM     23  C   UNL     1       1.450   5.928  20.801  0.00  0.00    +0.000 C 
BRANCH  23  24
ATOM     24  C   UNL     1       2.025   4.642  20.203  0.00  0.00    +0.000 C 
BRANCH  24  26
ATOM     25  C   UNL     1       1.675   2.604  21.635  0.00  0.00    +0.000 C 
ATOM     26  C   UNL     1       1.123   3.445  20.495  0.00  0.00    +0.000 C 
ENDBRANCH  24  26
ENDBRANCH  23  24
ENDBRANCH  22  23
ENDBRANCH   1  22
BRANCH  13  27
ATOM     27  O   UNL     1      -2.262  11.751  23.427  0.00  0.00    +0.000 OA
BRANCH  27  28
ATOM     28  C   UNL     1      -3.576  12.273  23.250  0.00  0.00    +0.000 C 
ATOM     29  C   UNL     1      -4.358  12.320  24.547  0.00  0.00    +0.000 C 
ENDBRANCH  27  28
ENDBRANCH  13  27
TORSDOF 8
ENDMDL
MODEL 5
REMARK VINA RESULT:      -6.0      4.321      6.463
REMARK  Name = 
REMARK  13 active torsions:
REMARK  status: ('A' for Active; 'I' for Inactive)
REMARK    1  A    between atoms: C_1  and  C_2
REMARK    2  A    between atoms: C_2  and  C_3
REMARK    3  A    between atoms: C_3  and  C_4
REMARK    4  A    between atoms: C_4  and  C_5
REMARK    5  A    between atoms: C_5  and  C_6
REMARK    6  A    between atoms: C_8  and  O_9
REMARK    7  A    between atoms: C_14  and  C_15
REMARK    8  A    between atoms: C_14  and  C_16
REMARK    9  A    between atoms: C_19  and  O_20
REMARK   10  A    between atoms: O_20  and  C_21
REMARK   11  A    between atoms: C_21  and  C_22
REMARK   12  A    between atoms: C_23  and  C_24
REMARK   13  A    between atoms: C_23  and  O_25
REMARK                            x       y       z     vdW  Elec       q    Type
REMARK                         _______ _______ _______ _____ _____    ______ ____
ROOT
ATOM      1  C   UNL     1      -2.600  10.420  17.309  0.00  0.00    +0.000 A 
ATOM      2  C   UNL     1      -1.271  10.570  17.696  0.00  0.00    +0.000 A 
ATOM      3  C   UNL     1      -0.929  11.394  18.783  0.00  0.00    +0.000 A 
ATOM      4  C   UNL     1      -1.898  12.111  19.522  0.00  0.00    +0.000 A 
ATOM      5  C   UNL     1      -3.220  11.959  19.095  0.00  0.00    +0.000 A 
ATOM      6  C   UNL     1      -3.569  11.124  18.022  0.00  0.00    +0.000 A 
ATOM      7  O   UNL     1      -4.294  12.597  19.637  0.00  0.00    +0.000 OA
ATOM      8  C   UNL     1      -4.128  13.400  20.817  0.00  0.00    +0.000 C 
ATOM      9  C   UNL     1      -4.946  12.672  21.899  0.00  0.00    +0.000 C 
ATOM     10  C   UNL     1      -4.800  14.736  20.466  0.00  0.00    +0.000 C 
ATOM     11  C   UNL     1      -2.686  13.620  21.292  0.00  0.00    +0.000 C 
ATOM     12  C   UNL     1      -1.638  12.984  20.697  0.00  0.00    +0.000 C 
ATOM     13  C   UNL     1      -0.241  13.162  21.260  0.00  0.00    +0.000 C 
ATOM     14  C   UNL     1      -0.046  14.539  21.992  0.00  0.00    +0.000 C 
ATOM     15  C   UNL     1      -0.091  15.721  21.000  0.00  0.00    +0.000 C 
ATOM     16  C   UNL     1      -1.128  14.772  23.041  0.00  0.00    +0.000 C 
ATOM     17  C   UNL     1      -2.525  14.557  22.477  0.00  0.00    +0.000 C 
ENDROOT
BRANCH   3  18
ATOM     18  O   UNL     1       0.406  11.495  19.071  0.00  0.00    +0.000 OA
ATOM     19  H   UNL     1       0.853  10.672  18.818  0.00  0.00    +0.000 HD
ENDBRANCH   3  18
BRANCH  14  20
ATOM     20  O   UNL     1       1.233  14.606  22.637  0.00  0.00    +0.000 OA
ATOM     21  H   UNL     1       1.901  14.717  21.934  0.00  0.00    +0.000 HD
ENDBRANCH  14  20
BRANCH   1  22
ATOM     22  C   UNL     1      -2.981   9.515  16.164  0.00  0.00    +0.000 C 
BRANCH  22  23
ATOM     23  C   UNL     1      -2.895  10.212  14.804  0.00  0.00    +0.000 C 
BRANCH  23  24
ATOM     24  C   UNL     1      -4.182  10.018  14.001  0.00  0.00    +0.000 C 
BRANCH  24  26
ATOM     25  C   UNL     1      -5.159   9.563  11.728  0.00  0.00    +0.000 C 
ATOM     26  C   UNL     1      -3.881   9.788  12.521  0.00  0.00    +0.000 C 
ENDBRANCH  24  26
ENDBRANCH  23  24
ENDBRANCH  22  23
ENDBRANCH   1  22
BRANCH  13  27
ATOM     27  O   UNL     1       0.156  11.999  22.036  0.00  0.00    +0.000 OA
BRANCH  27  28
ATOM     28  C   UNL     1      -0.868  11.340  22.776  0.00  0.00    +0.000 C 
ATOM     29  C   UNL     1      -0.499   9.912  23.126  0.00  0.00    +0.000 C 
ENDBRANCH  27  28
ENDBRANCH  13  27
TORSDOF 8
ENDMDL
MODEL 6
REMARK VINA RESULT:      -6.0      5.211      7.507
REMARK  Name = 
REMARK  13 active torsions:
REMARK  status: ('A' for Active; 'I' for Inactive)
REMARK    1  A    between atoms: C_1  and  C_2
REMARK    2  A    between atoms: C_2  and  C_3
REMARK    3  A    between atoms: C_3  and  C_4
REMARK    4  A    between atoms: C_4  and  C_5
REMARK    5  A    between atoms: C_5  and  C_6
REMARK    6  A    between atoms: C_8  and  O_9
REMARK    7  A    between atoms: C_14  and  C_15
REMARK    8  A    between atoms: C_14  and  C_16
REMARK    9  A    between atoms: C_19  and  O_20
REMARK   10  A    between atoms: O_20  and  C_21
REMARK   11  A    between atoms: C_21  and  C_22
REMARK   12  A    between atoms: C_23  and  C_24
REMARK   13  A    between atoms: C_23  and  O_25
REMARK                            x       y       z     vdW  Elec       q    Type
REMARK                         _______ _______ _______ _____ _____    ______ ____
ROOT
ATOM      1  C   UNL     1      -3.108  10.885  16.526  0.00  0.00    +0.000 A 
ATOM      2  C   UNL     1      -2.130  11.332  17.410  0.00  0.00    +0.000 A 
ATOM      3  C   UNL     1      -2.485  11.898  18.647  0.00  0.00    +0.000 A 
ATOM      4  C   UNL     1      -3.833  12.052  19.048  0.00  0.00    +0.000 A 
ATOM      5  C   UNL     1      -4.792  11.616  18.130  0.00  0.00    +0.000 A 
ATOM      6  C   UNL     1      -4.442  11.033  16.901  0.00  0.00    +0.000 A 
ATOM      7  O   UNL     1      -6.139  11.718  18.300  0.00  0.00    +0.000 OA
ATOM      8  C   UNL     1      -6.668  12.185  19.551  0.00  0.00    +0.000 C 
ATOM      9  C   UNL     1      -7.429  10.977  20.125  0.00  0.00    +0.000 C 
ATOM     10  C   UNL     1      -7.662  13.288  19.156  0.00  0.00    +0.000 C 
ATOM     11  C   UNL     1      -5.646  12.708  20.569  0.00  0.00    +0.000 C 
ATOM     12  C   UNL     1      -4.306  12.614  20.341  0.00  0.00    +0.000 C 
ATOM     13  C   UNL     1      -3.334  13.061  21.415  0.00  0.00    +0.000 C 
ATOM     14  C   UNL     1      -3.922  14.180  22.348  0.00  0.00    +0.000 C 
ATOM     15  C   UNL     1      -4.114  15.510  21.586  0.00  0.00    +0.000 C 
ATOM     16  C   UNL     1      -5.275  13.775  22.922  0.00  0.00    +0.000 C 
ATOM     17  C   UNL     1      -6.233  13.295  21.841  0.00  0.00    +0.000 C 
ENDROOT
BRANCH   3  18
ATOM     18  O   UNL     1      -1.453  12.329  19.436  0.00  0.00    +0.000 OA
ATOM     19  H   UNL     1      -1.799  12.918  20.125  0.00  0.00    +0.000 HD
ENDBRANCH   3  18
BRANCH  14  20
ATOM     20  O   UNL     1      -3.034  14.467  23.437  0.00  0.00    +0.000 OA
ATOM     21  H   UNL     1      -2.129  14.284  23.121  0.00  0.00    +0.000 HD
ENDBRANCH  14  20
BRANCH   1  22
ATOM     22  C   UNL     1      -2.737  10.248  15.209  0.00  0.00    +0.000 C 
BRANCH  22  23
ATOM     23  C   UNL     1      -3.935  10.085  14.272  0.00  0.00    +0.000 C 
BRANCH  23  24
ATOM     24  C   UNL     1      -3.487   9.681  12.867  0.00  0.00    +0.000 C 
BRANCH  24  26
ATOM     25  C   UNL     1      -5.825   9.183  12.085  0.00  0.00    +0.000 C 
ATOM     26  C   UNL     1      -4.564   9.993  11.830  0.00  0.00    +0.000 C 
ENDBRANCH  24  26
ENDBRANCH  23  24
ENDBRANCH  22  23
ENDBRANCH   1  22
BRANCH  13  27
ATOM     27  O   UNL     1      -2.776  11.916  22.117  0.00  0.00    +0.000 OA
BRANCH  27  28
ATOM     28  C   UNL     1      -1.422  12.023  22.548  0.00  0.00    +0.000 C 
ATOM     29  C   UNL     1      -0.877  10.709  23.069  0.00  0.00    +0.000 C 
ENDBRANCH  27  28
ENDBRANCH  13  27
TORSDOF 8
ENDMDL
MODEL 7
REMARK VINA RESULT:      -6.0      2.434      4.775
REMARK  Name = 
REMARK  13 active torsions:
REMARK  status: ('A' for Active; 'I' for Inactive)
REMARK    1  A    between atoms: C_1  and  C_2
REMARK    2  A    between atoms: C_2  and  C_3
REMARK    3  A    between atoms: C_3  and  C_4
REMARK    4  A    between atoms: C_4  and  C_5
REMARK    5  A    between atoms: C_5  and  C_6
REMARK    6  A    between atoms: C_8  and  O_9
REMARK    7  A    between atoms: C_14  and  C_15
REMARK    8  A    between atoms: C_14  and  C_16
REMARK    9  A    between atoms: C_19  and  O_20
REMARK   10  A    between atoms: O_20  and  C_21
REMARK   11  A    between atoms: C_21  and  C_22
REMARK   12  A    between atoms: C_23  and  C_24
REMARK   13  A    between atoms: C_23  and  O_25
REMARK                            x       y       z     vdW  Elec       q    Type
REMARK                         _______ _______ _______ _____ _____    ______ ____
ROOT
ATOM      1  C   UNL     1       1.206   8.267  20.702  0.00  0.00    +0.000 A 
ATOM      2  C   UNL     1       1.035   8.680  22.021  0.00  0.00    +0.000 A 
ATOM      3  C   UNL     1       0.359   9.877  22.316  0.00  0.00    +0.000 A 
ATOM      4  C   UNL     1      -0.163  10.719  21.306  0.00  0.00    +0.000 A 
ATOM      5  C   UNL     1       0.046  10.290  19.992  0.00  0.00    +0.000 A 
ATOM      6  C   UNL     1       0.704   9.086  19.693  0.00  0.00    +0.000 A 
ATOM      7  O   UNL     1      -0.332  10.975  18.878  0.00  0.00    +0.000 OA
ATOM      8  C   UNL     1      -1.119  12.170  19.006  0.00  0.00    +0.000 C 
ATOM      9  C   UNL     1      -2.467  11.819  18.351  0.00  0.00    +0.000 C 
ATOM     10  C   UNL     1      -0.377  13.209  18.150  0.00  0.00    +0.000 C 
ATOM     11  C   UNL     1      -1.336  12.692  20.433  0.00  0.00    +0.000 C 
ATOM     12  C   UNL     1      -0.911  11.987  21.519  0.00  0.00    +0.000 C 
ATOM     13  C   UNL     1      -1.228  12.497  22.911  0.00  0.00    +0.000 C 
ATOM     14  C   UNL     1      -1.390  14.059  22.969  0.00  0.00    +0.000 C 
ATOM     15  C   UNL     1      -0.046  14.778  22.717  0.00  0.00    +0.000 C 
ATOM     16  C   UNL     1      -2.385  14.557  21.927  0.00  0.00    +0.000 C 
ATOM     17  C   UNL     1      -2.079  14.012  20.539  0.00  0.00    +0.000 C 
ENDROOT
BRANCH   3  18
ATOM     18  O   UNL     1       0.262  10.209  23.641  0.00  0.00    +0.000 OA
ATOM     19  H   UNL     1      -0.652  10.467  23.841  0.00  0.00    +0.000 HD
ENDBRANCH   3  18
BRANCH  14  20
ATOM     20  O   UNL     1      -1.836  14.485  24.264  0.00  0.00    +0.000 OA
ATOM     21  H   UNL     1      -2.183  15.392  24.160  0.00  0.00    +0.000 HD
ENDBRANCH  14  20
BRANCH   1  22
ATOM     22  C   UNL     1       1.902   6.969  20.376  0.00  0.00    +0.000 C 
BRANCH  22  23
ATOM     23  C   UNL     1       2.525   6.966  18.977  0.00  0.00    +0.000 C 
BRANCH  23  24
ATOM     24  C   UNL     1       2.918   5.551  18.551  0.00  0.00    +0.000 C 
BRANCH  24  26
ATOM     25  C   UNL     1       1.618   3.420  18.245  0.00  0.00    +0.000 C 
ATOM     26  C   UNL     1       1.781   4.864  17.798  0.00  0.00    +0.000 C 
ENDBRANCH  24  26
ENDBRANCH  23  24
ENDBRANCH  22  23
ENDBRANCH   1  22
BRANCH  13  27
ATOM     27  O   UNL     1      -2.329  11.749  23.497  0.00  0.00    +0.000 OA
BRANCH  27  28
ATOM     28  C   UNL     1      -3.635  12.296  23.337  0.00  0.00    +0.000 C 
ATOM     29  C   UNL     1      -4.416  12.316  24.635  0.00  0.00    +0.000 C 
ENDBRANCH  27  28
ENDBRANCH  13  27
TORSDOF 8
ENDMDL
MODEL 8
REMARK VINA RESULT:      -6.0      3.870      6.706
REMARK  Name = 
REMARK  13 active torsions:
REMARK  status: ('A' for Active; 'I' for Inactive)
REMARK    1  A    between atoms: C_1  and  C_2
REMARK    2  A    between atoms: C_2  and  C_3
REMARK    3  A    between atoms: C_3  and  C_4
REMARK    4  A    between atoms: C_4  and  C_5
REMARK    5  A    between atoms: C_5  and  C_6
REMARK    6  A    between atoms: C_8  and  O_9
REMARK    7  A    between atoms: C_14  and  C_15
REMARK    8  A    between atoms: C_14  and  C_16
REMARK    9  A    between atoms: C_19  and  O_20
REMARK   10  A    between atoms: O_20  and  C_21
REMARK   11  A    between atoms: C_21  and  C_22
REMARK   12  A    between atoms: C_23  and  C_24
REMARK   13  A    between atoms: C_23  and  O_25
REMARK                            x       y       z     vdW  Elec       q    Type
REMARK                         _______ _______ _______ _____ _____    ______ ____
ROOT
ATOM      1  C   UNL     1      -1.176  10.524  18.335  0.00  0.00    +0.000 A 
ATOM      2  C   UNL     1      -0.958  11.173  19.547  0.00  0.00    +0.000 A 
ATOM      3  C   UNL     1      -1.984  11.916  20.157  0.00  0.00    +0.000 A 
ATOM      4  C   UNL     1      -3.268  12.051  19.576  0.00  0.00    +0.000 A 
ATOM      5  C   UNL     1      -3.447  11.408  18.348  0.00  0.00    +0.000 A 
ATOM      6  C   UNL     1      -2.431  10.650  17.744  0.00  0.00    +0.000 A 
ATOM      7  O   UNL     1      -4.586  11.454  17.603  0.00  0.00    +0.000 OA
ATOM      8  C   UNL     1      -5.761  12.090  18.130  0.00  0.00    +0.000 C 
ATOM      9  C   UNL     1      -6.784  10.951  18.283  0.00  0.00    +0.000 C 
ATOM     10  C   UNL     1      -6.208  13.048  17.014  0.00  0.00    +0.000 C 
ATOM     11  C   UNL     1      -5.590  12.839  19.458  0.00  0.00    +0.000 C 
ATOM     12  C   UNL     1      -4.420  12.792  20.155  0.00  0.00    +0.000 C 
ATOM     13  C   UNL     1      -4.328  13.473  21.506  0.00  0.00    +0.000 C 
ATOM     14  C   UNL     1      -5.307  14.694  21.646  0.00  0.00    +0.000 C 
ATOM     15  C   UNL     1      -4.890  15.863  20.725  0.00  0.00    +0.000 C 
ATOM     16  C   UNL     1      -6.737  14.308  21.286  0.00  0.00    +0.000 C 
ATOM     17  C   UNL     1      -6.816  13.594  19.944  0.00  0.00    +0.000 C 
ENDROOT
BRANCH   3  18
ATOM     18  O   UNL     1      -1.667  12.537  21.335  0.00  0.00    +0.000 OA
ATOM     19  H   UNL     1      -1.383  11.873  21.983  0.00  0.00    +0.000 HD
ENDBRANCH   3  18
BRANCH  14  20
ATOM     20  O   UNL     1      -5.299  15.215  22.982  0.00  0.00    +0.000 OA
ATOM     21  H   UNL     1      -6.019  14.766  23.465  0.00  0.00    +0.000 HD
ENDBRANCH  14  20
BRANCH   1  22
ATOM     22  C   UNL     1      -0.091   9.699  17.687  0.00  0.00    +0.000 C 
BRANCH  22  23
ATOM     23  C   UNL     1       1.259   9.835  18.394  0.00  0.00    +0.000 C 
BRANCH  23  24
ATOM     24  C   UNL     1       2.312   8.929  17.754  0.00  0.00    +0.000 C 
BRANCH  24  26
ATOM     25  C   UNL     1       3.502   6.718  17.909  0.00  0.00    +0.000 C 
ATOM     26  C   UNL     1       2.344   7.557  18.425  0.00  0.00    +0.000 C 
ENDBRANCH  24  26
ENDBRANCH  23  24
ENDBRANCH  22  23
ENDBRANCH   1  22
BRANCH  13  27
ATOM     27  O   UNL     1      -4.414  12.499  22.582  0.00  0.00    +0.000 OA
BRANCH  27  28
ATOM     28  C   UNL     1      -3.699  12.797  23.778  0.00  0.00    +0.000 C 
ATOM     29  C   UNL     1      -4.483  12.440  25.024  0.00  0.00    +0.000 C 
ENDBRANCH  27  28
ENDBRANCH  13  27
TORSDOF 8
ENDMDL
MODEL 9
REMARK VINA RESULT:      -5.9      1.090      1.178
REMARK  Name = 
REMARK  13 active torsions:
REMARK  status: ('A' for Active; 'I' for Inactive)
REMARK    1  A    between atoms: C_1  and  C_2
REMARK    2  A    between atoms: C_2  and  C_3
REMARK    3  A    between atoms: C_3  and  C_4
REMARK    4  A    between atoms: C_4  and  C_5
REMARK    5  A    between atoms: C_5  and  C_6
REMARK    6  A    between atoms: C_8  and  O_9
REMARK    7  A    between atoms: C_14  and  C_15
REMARK    8  A    between atoms: C_14  and  C_16
REMARK    9  A    between atoms: C_19  and  O_20
REMARK   10  A    between atoms: O_20  and  C_21
REMARK   11  A    between atoms: C_21  and  C_22
REMARK   12  A    between atoms: C_23  and  C_24
REMARK   13  A    between atoms: C_23  and  O_25
REMARK                            x       y       z     vdW  Elec       q    Type
REMARK                         _______ _______ _______ _____ _____    ______ ____
ROOT
ATOM      1  C   UNL     1       2.776   7.173  18.363  0.00  0.00    +0.000 A 
ATOM      2  C   UNL     1       2.629   8.309  17.571  0.00  0.00    +0.000 A 
ATOM      3  C   UNL     1       1.963   9.445  18.063  0.00  0.00    +0.000 A 
ATOM      4  C   UNL     1       1.405   9.491  19.363  0.00  0.00    +0.000 A 
ATOM      5  C   UNL     1       1.548   8.328  20.125  0.00  0.00    +0.000 A 
ATOM      6  C   UNL     1       2.228   7.197  19.645  0.00  0.00    +0.000 A 
ATOM      7  O   UNL     1       1.044   8.148  21.376  0.00  0.00    +0.000 OA
ATOM      8  C   UNL     1       0.420   9.246  22.061  0.00  0.00    +0.000 C 
ATOM      9  C   UNL     1       1.335   9.522  23.267  0.00  0.00    +0.000 C 
ATOM     10  C   UNL     1      -0.924   8.680  22.543  0.00  0.00    +0.000 C 
ATOM     11  C   UNL     1       0.212  10.527  21.242  0.00  0.00    +0.000 C 
ATOM     12  C   UNL     1       0.707  10.651  19.978  0.00  0.00    +0.000 C 
ATOM     13  C   UNL     1       0.555  11.968  19.243  0.00  0.00    +0.000 C 
ATOM     14  C   UNL     1      -0.704  12.787  19.705  0.00  0.00    +0.000 C 
ATOM     15  C   UNL     1      -2.018  12.090  19.287  0.00  0.00    +0.000 C 
ATOM     16  C   UNL     1      -0.732  12.961  21.219  0.00  0.00    +0.000 C 
ATOM     17  C   UNL     1      -0.545  11.638  21.950  0.00  0.00    +0.000 C 
ENDROOT
BRANCH   3  18
ATOM     18  O   UNL     1       1.849  10.503  17.201  0.00  0.00    +0.000 OA
ATOM     19  H   UNL     1       2.571  10.469  16.554  0.00  0.00    +0.000 HD
ENDBRANCH   3  18
BRANCH  14  20
ATOM     20  O   UNL     1      -0.728  14.086  19.098  0.00  0.00    +0.000 OA
ATOM     21  H   UNL     1      -1.563  14.511  19.371  0.00  0.00    +0.000 HD
ENDBRANCH  14  20
BRANCH   1  22
ATOM     22  C   UNL     1       3.516   5.960  17.857  0.00  0.00    +0.000 C 
BRANCH  22  23
ATOM     23  C   UNL     1       2.691   4.675  17.965  0.00  0.00    +0.000 C 
BRANCH  23  24
ATOM     24  C   UNL     1       3.417   3.496  17.316  0.00  0.00    +0.000 C 
BRANCH  24  26
ATOM     25  C   UNL     1       3.634   1.324  18.567  0.00  0.00    +0.000 C 
ATOM     26  C   UNL     1       2.746   2.170  17.669  0.00  0.00    +0.000 C 
ENDBRANCH  24  26
ENDBRANCH  23  24
ENDBRANCH  22  23
ENDBRANCH   1  22
BRANCH  13  27
ATOM     27  O   UNL     1       1.803  12.713  19.255  0.00  0.00    +0.000 OA
BRANCH  27  28
ATOM     28  C   UNL     1       2.365  13.005  20.531  0.00  0.00    +0.000 C 
ATOM     29  C   UNL     1       2.814  14.448  20.648  0.00  0.00    +0.000 C 
ENDBRANCH  27  28
ENDBRANCH  13  27
TORSDOF 8
ENDMDL
