MODEL 1
REMARK VINA RESULT:     -10.1      0.000      0.000
REMARK  Name = 
REMARK  4 active torsions:
REMARK  status: ('A' for Active; 'I' for Inactive)
REMARK    1  A    between atoms: N_2  and  C_3
REMARK    2  A    between atoms: C_3  and  C_4
REMARK    3  A    between atoms: N_7  and  C_8
REMARK    4  A    between atoms: N_24  and  C_25
REMARK                            x       y       z     vdW  Elec       q    Type
REMARK                         _______ _______ _______ _____ _____    ______ ____
ROOT
ATOM      1  C   UNL     1      -0.670  10.849  21.468  0.00  0.00    +0.000 A 
ATOM      2  C   UNL     1      -0.335  10.560  20.151  0.00  0.00    +0.000 A 
ATOM      3  C   UNL     1       0.440   9.448  19.845  0.00  0.00    +0.000 A 
ATOM      4  C   UNL     1       0.895   8.609  20.854  0.00  0.00    +0.000 A 
ATOM      5  N   UNL     1       1.666   7.488  20.610  0.00  0.00    +0.000 N 
ATOM      6  C   UNL     1       2.525   7.204  19.561  0.00  0.00    +0.000 A 
ATOM      7  N   UNL     1       2.619   8.063  18.521  0.00  0.00    +0.000 NA
ATOM      8  C   UNL     1       3.402   7.770  17.464  0.00  0.00    +0.000 A 
ATOM      9  C   UNL     1       4.129   6.595  17.478  0.00  0.00    +0.000 A 
ATOM     10  C   UNL     1       5.002   5.908  16.599  0.00  0.00    +0.000 A 
ATOM     11  C   UNL     1       5.342   5.962  15.244  0.00  0.00    +0.000 A 
ATOM     12  C   UNL     1       6.484   5.263  14.881  0.00  0.00    +0.000 A 
ATOM     13  N   UNL     1       7.343   4.697  15.756  0.00  0.00    +0.000 NA
ATOM     14  C   UNL     1       6.986   4.621  17.053  0.00  0.00    +0.000 A 
ATOM     15  F   UNL     1       7.884   4.210  17.957  0.00  0.00    +0.000 F 
ATOM     16  C   UNL     1       5.729   5.059  17.430  0.00  0.00    +0.000 A 
ATOM     17  N   UNL     1       4.881   4.764  18.485  0.00  0.00    +0.000 N 
ATOM     18  C   UNL     1       4.035   5.839  18.636  0.00  0.00    +0.000 A 
ATOM     19  N   UNL     1       3.225   6.067  19.678  0.00  0.00    +0.000 NA
ATOM     20  N   UNL     1       0.588   8.846  22.143  0.00  0.00    +0.000 NA
ATOM     21  C   UNL     1      -0.154   9.949  22.409  0.00  0.00    +0.000 A 
ATOM     22  H   UNL     1       1.870   6.950  21.434  0.00  0.00    +0.000 HD
ENDROOT
BRANCH   1  26
ATOM     23  C   UNL     1      -3.658  13.616  22.522  0.00  0.00    +0.000 C 
ATOM     24  C   UNL     1      -2.907  12.754  23.557  0.00  0.00    +0.000 C 
ATOM     25  C   UNL     1      -1.452  12.477  23.177  0.00  0.00    +0.000 C 
ATOM     26  N   UNL     1      -1.432  11.942  21.816  0.00  0.00    +0.000 N 
ATOM     27  C   UNL     1      -1.985  12.810  20.780  0.00  0.00    +0.000 C 
ATOM     28  C   UNL     1      -3.458  13.042  21.102  0.00  0.00    +0.000 C 
BRANCH  23  29
ATOM     29  C   UNL     1      -3.240  15.095  22.566  0.00  0.00    +0.000 C 
BRANCH  29  31
ATOM     30  C   UNL     1      -4.416  16.366  24.513  0.00  0.00    +0.000 C 
ATOM     31  N   UNL     1      -3.895  15.797  23.645  0.00  0.00    +0.000 NA
ENDBRANCH  29  31
ENDBRANCH  23  29
ENDBRANCH   1  26
BRANCH  17  32
ATOM     32  C   UNL     1       4.481   3.411  18.876  0.00  0.00    +0.000 C 
ATOM     33  C   UNL     1       3.549   3.424  20.100  0.00  0.00    +0.000 C 
ATOM     34  C   UNL     1       2.771   2.123  20.041  0.00  0.00    +0.000 C 
ATOM     35  C   UNL     1       2.740   1.712  18.576  0.00  0.00    +0.000 C 
ATOM     36  C   UNL     1       3.737   2.591  17.825  0.00  0.00    +0.000 C 
ENDBRANCH  17  32
TORSDOF 4
ENDMDL
MODEL 2
REMARK VINA RESULT:     -10.1      1.242      1.455
REMARK  Name = 
REMARK  4 active torsions:
REMARK  status: ('A' for Active; 'I' for Inactive)
REMARK    1  A    between atoms: N_2  and  C_3
REMARK    2  A    between atoms: C_3  and  C_4
REMARK    3  A    between atoms: N_7  and  C_8
REMARK    4  A    between atoms: N_24  and  C_25
REMARK                            x       y       z     vdW  Elec       q    Type
REMARK                         _______ _______ _______ _____ _____    ______ ____
ROOT
ATOM      1  C   UNL     1      -1.156  11.453  22.263  0.00  0.00    +0.000 A 
ATOM      2  C   UNL     1      -0.744  11.295  20.945  0.00  0.00    +0.000 A 
ATOM      3  C   UNL     1      -0.103  10.130  20.539  0.00  0.00    +0.000 A 
ATOM      4  C   UNL     1       0.139   9.107  21.447  0.00  0.00    +0.000 A 
ATOM      5  N   UNL     1       0.769   7.928  21.102  0.00  0.00    +0.000 N 
ATOM      6  C   UNL     1       1.674   7.660  20.088  0.00  0.00    +0.000 A 
ATOM      7  N   UNL     1       1.980   8.626  19.191  0.00  0.00    +0.000 NA
ATOM      8  C   UNL     1       2.810   8.362  18.162  0.00  0.00    +0.000 A 
ATOM      9  C   UNL     1       3.366   7.102  18.060  0.00  0.00    +0.000 A 
ATOM     10  C   UNL     1       4.214   6.415  17.157  0.00  0.00    +0.000 A 
ATOM     11  C   UNL     1       4.682   6.597  15.852  0.00  0.00    +0.000 A 
ATOM     12  C   UNL     1       5.747   5.791  15.476  0.00  0.00    +0.000 A 
ATOM     13  N   UNL     1       6.436   4.993  16.320  0.00  0.00    +0.000 NA
ATOM     14  C   UNL     1       5.954   4.800  17.564  0.00  0.00    +0.000 A 
ATOM     15  F   UNL     1       6.700   4.145  18.462  0.00  0.00    +0.000 F 
ATOM     16  C   UNL     1       4.739   5.365  17.907  0.00  0.00    +0.000 A 
ATOM     17  N   UNL     1       3.765   5.062  18.845  0.00  0.00    +0.000 N 
ATOM     18  C   UNL     1       3.063   6.221  19.087  0.00  0.00    +0.000 A 
ATOM     19  N   UNL     1       2.200   6.427  20.090  0.00  0.00    +0.000 NA
ATOM     20  N   UNL     1      -0.251   9.216  22.731  0.00  0.00    +0.000 NA
ATOM     21  C   UNL     1      -0.857  10.371  23.099  0.00  0.00    +0.000 A 
ATOM     22  H   UNL     1       0.821   7.261  21.853  0.00  0.00    +0.000 HD
ENDROOT
BRANCH   1  26
ATOM     23  C   UNL     1      -3.016  14.558  24.408  0.00  0.00    +0.000 C 
ATOM     24  C   UNL     1      -1.490  14.475  24.199  0.00  0.00    +0.000 C 
ATOM     25  C   UNL     1      -1.091  13.867  22.855  0.00  0.00    +0.000 C 
ATOM     26  N   UNL     1      -1.791  12.591  22.707  0.00  0.00    +0.000 N 
ATOM     27  C   UNL     1      -3.249  12.657  22.729  0.00  0.00    +0.000 C 
ATOM     28  C   UNL     1      -3.673  13.196  24.092  0.00  0.00    +0.000 C 
BRANCH  23  29
ATOM     29  C   UNL     1      -3.669  15.673  23.574  0.00  0.00    +0.000 C 
BRANCH  29  31
ATOM     30  C   UNL     1      -6.244  15.762  23.968  0.00  0.00    +0.000 C 
ATOM     31  N   UNL     1      -5.096  15.726  23.791  0.00  0.00    +0.000 NA
ENDBRANCH  29  31
ENDBRANCH  23  29
ENDBRANCH   1  26
BRANCH  17  32
ATOM     32  C   UNL     1       3.149   3.743  19.007  0.00  0.00    +0.000 C 
ATOM     33  C   UNL     1       2.689   3.505  20.456  0.00  0.00    +0.000 C 
ATOM     34  C   UNL     1       1.604   2.448  20.375  0.00  0.00    +0.000 C 
ATOM     35  C   UNL     1       1.004   2.559  18.980  0.00  0.00    +0.000 C 
ATOM     36  C   UNL     1       1.919   3.458  18.151  0.00  0.00    +0.000 C 
ENDBRANCH  17  32
TORSDOF 4
ENDMDL
MODEL 3
REMARK VINA RESULT:      -9.9      1.199      1.529
REMARK  Name = 
REMARK  4 active torsions:
REMARK  status: ('A' for Active; 'I' for Inactive)
REMARK    1  A    between atoms: N_2  and  C_3
REMARK    2  A    between atoms: C_3  and  C_4
REMARK    3  A    between atoms: N_7  and  C_8
REMARK    4  A    between atoms: N_24  and  C_25
REMARK                            x       y       z     vdW  Elec       q    Type
REMARK                         _______ _______ _______ _____ _____    ______ ____
ROOT
ATOM      1  C   UNL     1      -1.207  11.450  22.291  0.00  0.00    +0.000 A 
ATOM      2  C   UNL     1      -0.809  11.299  20.968  0.00  0.00    +0.000 A 
ATOM      3  C   UNL     1      -0.141  10.152  20.556  0.00  0.00    +0.000 A 
ATOM      4  C   UNL     1       0.143   9.139  21.463  0.00  0.00    +0.000 A 
ATOM      5  N   UNL     1       0.800   7.976  21.112  0.00  0.00    +0.000 N 
ATOM      6  C   UNL     1       1.698   7.731  20.086  0.00  0.00    +0.000 A 
ATOM      7  N   UNL     1       1.964   8.702  19.182  0.00  0.00    +0.000 NA
ATOM      8  C   UNL     1       2.786   8.459  18.142  0.00  0.00    +0.000 A 
ATOM      9  C   UNL     1       3.375   7.214  18.035  0.00  0.00    +0.000 A 
ATOM     10  C   UNL     1       4.230   6.549  17.122  0.00  0.00    +0.000 A 
ATOM     11  C   UNL     1       4.673   6.740  15.810  0.00  0.00    +0.000 A 
ATOM     12  C   UNL     1       5.755   5.963  15.421  0.00  0.00    +0.000 A 
ATOM     13  N   UNL     1       6.479   5.188  16.257  0.00  0.00    +0.000 NA
ATOM     14  C   UNL     1       6.020   4.986  17.508  0.00  0.00    +0.000 A 
ATOM     15  F   UNL     1       6.797   4.355  18.397  0.00  0.00    +0.000 F 
ATOM     16  C   UNL     1       4.795   5.517  17.868  0.00  0.00    +0.000 A 
ATOM     17  N   UNL     1       3.844   5.190  18.820  0.00  0.00    +0.000 N 
ATOM     18  C   UNL     1       3.113   6.329  19.069  0.00  0.00    +0.000 A 
ATOM     19  N   UNL     1       2.258   6.514  20.084  0.00  0.00    +0.000 NA
ATOM     20  N   UNL     1      -0.232   9.240  22.753  0.00  0.00    +0.000 NA
ATOM     21  C   UNL     1      -0.865  10.379  23.126  0.00  0.00    +0.000 A 
ATOM     22  H   UNL     1       0.882   7.314  21.864  0.00  0.00    +0.000 HD
ENDROOT
BRANCH   1  26
ATOM     23  C   UNL     1      -3.106  14.516  24.456  0.00  0.00    +0.000 C 
ATOM     24  C   UNL     1      -1.586  14.485  24.199  0.00  0.00    +0.000 C 
ATOM     25  C   UNL     1      -1.208  13.873  22.850  0.00  0.00    +0.000 C 
ATOM     26  N   UNL     1      -1.867  12.571  22.742  0.00  0.00    +0.000 N 
ATOM     27  C   UNL     1      -3.325  12.586  22.810  0.00  0.00    +0.000 C 
ATOM     28  C   UNL     1      -3.724  13.128  24.179  0.00  0.00    +0.000 C 
BRANCH  23  29
ATOM     29  C   UNL     1      -3.825  15.596  23.630  0.00  0.00    +0.000 C 
BRANCH  29  31
ATOM     30  C   UNL     1      -2.830  17.963  24.075  0.00  0.00    +0.000 C 
ATOM     31  N   UNL     1      -3.271  16.906  23.879  0.00  0.00    +0.000 NA
ENDBRANCH  29  31
ENDBRANCH  23  29
ENDBRANCH   1  26
BRANCH  17  32
ATOM     32  C   UNL     1       3.268   3.854  18.995  0.00  0.00    +0.000 C 
ATOM     33  C   UNL     1       2.519   3.388  17.735  0.00  0.00    +0.000 C 
ATOM     34  C   UNL     1       2.495   1.873  17.806  0.00  0.00    +0.000 C 
ATOM     35  C   UNL     1       3.698   1.467  18.646  0.00  0.00    +0.000 C 
ATOM     36  C   UNL     1       4.248   2.728  19.310  0.00  0.00    +0.000 C 
ENDBRANCH  17  32
TORSDOF 4
ENDMDL
MODEL 4
REMARK VINA RESULT:      -9.7      1.096      1.537
REMARK  Name = 
REMARK  4 active torsions:
REMARK  status: ('A' for Active; 'I' for Inactive)
REMARK    1  A    between atoms: N_2  and  C_3
REMARK    2  A    between atoms: C_3  and  C_4
REMARK    3  A    between atoms: N_7  and  C_8
REMARK    4  A    between atoms: N_24  and  C_25
REMARK                            x       y       z     vdW  Elec       q    Type
REMARK                         _______ _______ _______ _____ _____    ______ ____
ROOT
ATOM      1  C   UNL     1      -1.269  11.489  22.179  0.00  0.00    +0.000 A 
ATOM      2  C   UNL     1      -0.866  11.311  20.862  0.00  0.00    +0.000 A 
ATOM      3  C   UNL     1      -0.185  10.162  20.478  0.00  0.00    +0.000 A 
ATOM      4  C   UNL     1       0.107   9.174  21.410  0.00  0.00    +0.000 A 
ATOM      5  N   UNL     1       0.779   8.011  21.087  0.00  0.00    +0.000 N 
ATOM      6  C   UNL     1       1.682   7.752  20.070  0.00  0.00    +0.000 A 
ATOM      7  N   UNL     1       1.940   8.704  19.145  0.00  0.00    +0.000 NA
ATOM      8  C   UNL     1       2.768   8.446  18.113  0.00  0.00    +0.000 A 
ATOM      9  C   UNL     1       3.371   7.205  18.036  0.00  0.00    +0.000 A 
ATOM     10  C   UNL     1       4.235   6.528  17.141  0.00  0.00    +0.000 A 
ATOM     11  C   UNL     1       4.681   6.693  15.827  0.00  0.00    +0.000 A 
ATOM     12  C   UNL     1       5.772   5.919  15.459  0.00  0.00    +0.000 A 
ATOM     13  N   UNL     1       6.502   5.172  16.315  0.00  0.00    +0.000 NA
ATOM     14  C   UNL     1       6.041   4.994  17.569  0.00  0.00    +0.000 A 
ATOM     15  F   UNL     1       6.823   4.392  18.474  0.00  0.00    +0.000 F 
ATOM     16  C   UNL     1       4.809   5.520  17.913  0.00  0.00    +0.000 A 
ATOM     17  N   UNL     1       3.859   5.205  18.870  0.00  0.00    +0.000 N 
ATOM     18  C   UNL     1       3.115   6.341  19.090  0.00  0.00    +0.000 A 
ATOM     19  N   UNL     1       2.255   6.540  20.097  0.00  0.00    +0.000 NA
ATOM     20  N   UNL     1      -0.272   9.301  22.695  0.00  0.00    +0.000 NA
ATOM     21  C   UNL     1      -0.919  10.441  23.040  0.00  0.00    +0.000 A 
ATOM     22  H   UNL     1       0.865   7.367  21.855  0.00  0.00    +0.000 HD
ENDROOT
BRANCH   1  26
ATOM     23  C   UNL     1      -3.075  15.253  22.703  0.00  0.00    +0.000 C 
ATOM     24  C   UNL     1      -3.770  14.079  21.984  0.00  0.00    +0.000 C 
ATOM     25  C   UNL     1      -3.402  12.710  22.557  0.00  0.00    +0.000 C 
ATOM     26  N   UNL     1      -1.943  12.613  22.602  0.00  0.00    +0.000 N 
ATOM     27  C   UNL     1      -1.261  13.614  23.417  0.00  0.00    +0.000 C 
ATOM     28  C   UNL     1      -1.557  14.986  22.820  0.00  0.00    +0.000 C 
BRANCH  23  29
ATOM     29  C   UNL     1      -3.676  15.539  24.089  0.00  0.00    +0.000 C 
BRANCH  29  31
ATOM     30  C   UNL     1      -6.247  15.938  23.951  0.00  0.00    +0.000 C 
ATOM     31  N   UNL     1      -5.101  15.757  24.011  0.00  0.00    +0.000 NA
ENDBRANCH  29  31
ENDBRANCH  23  29
ENDBRANCH   1  26
BRANCH  17  32
ATOM     32  C   UNL     1       3.297   3.868  19.074  0.00  0.00    +0.000 C 
ATOM     33  C   UNL     1       2.329   3.478  17.944  0.00  0.00    +0.000 C 
ATOM     34  C   UNL     1       2.288   1.962  17.940  0.00  0.00    +0.000 C 
ATOM     35  C   UNL     1       3.612   1.499  18.531  0.00  0.00    +0.000 C 
ATOM     36  C   UNL     1       4.295   2.716  19.152  0.00  0.00    +0.000 C 
ENDBRANCH  17  32
TORSDOF 4
ENDMDL
MODEL 5
REMARK VINA RESULT:      -9.7      1.679      3.463
REMARK  Name = 
REMARK  4 active torsions:
REMARK  status: ('A' for Active; 'I' for Inactive)
REMARK    1  A    between atoms: N_2  and  C_3
REMARK    2  A    between atoms: C_3  and  C_4
REMARK    3  A    between atoms: N_7  and  C_8
REMARK    4  A    between atoms: N_24  and  C_25
REMARK                            x       y       z     vdW  Elec       q    Type
REMARK                         _______ _______ _______ _____ _____    ______ ____
ROOT
ATOM      1  C   UNL     1      -1.223  12.069  21.855  0.00  0.00    +0.000 A 
ATOM      2  C   UNL     1      -0.692  10.925  22.437  0.00  0.00    +0.000 A 
ATOM      3  C   UNL     1       0.178  10.107  21.727  0.00  0.00    +0.000 A 
ATOM      4  C   UNL     1       0.528  10.420  20.420  0.00  0.00    +0.000 A 
ATOM      5  N   UNL     1       1.389   9.647  19.666  0.00  0.00    +0.000 N 
ATOM      6  C   UNL     1       1.685   8.296  19.749  0.00  0.00    +0.000 A 
ATOM      7  N   UNL     1       1.162   7.557  20.754  0.00  0.00    +0.000 NA
ATOM      8  C   UNL     1       1.491   6.256  20.886  0.00  0.00    +0.000 A 
ATOM      9  C   UNL     1       2.344   5.687  19.960  0.00  0.00    +0.000 A 
ATOM     10  C   UNL     1       2.956   4.426  19.755  0.00  0.00    +0.000 A 
ATOM     11  C   UNL     1       3.182   3.265  20.500  0.00  0.00    +0.000 A 
ATOM     12  C   UNL     1       3.581   2.152  19.774  0.00  0.00    +0.000 A 
ATOM     13  N   UNL     1       3.599   2.085  18.425  0.00  0.00    +0.000 NA
ATOM     14  C   UNL     1       3.414   3.220  17.721  0.00  0.00    +0.000 A 
ATOM     15  F   UNL     1       3.271   3.151  16.392  0.00  0.00    +0.000 F 
ATOM     16  C   UNL     1       3.284   4.418  18.401  0.00  0.00    +0.000 A 
ATOM     17  N   UNL     1       3.512   5.744  18.071  0.00  0.00    +0.000 N 
ATOM     18  C   UNL     1       2.740   6.508  18.916  0.00  0.00    +0.000 A 
ATOM     19  N   UNL     1       2.483   7.816  18.785  0.00  0.00    +0.000 NA
ATOM     20  N   UNL     1       0.044  11.523  19.819  0.00  0.00    +0.000 NA
ATOM     21  C   UNL     1      -0.816  12.289  20.533  0.00  0.00    +0.000 A 
ATOM     22  H   UNL     1       1.591  10.032  18.759  0.00  0.00    +0.000 HD
ENDROOT
BRANCH   1  26
ATOM     23  C   UNL     1      -3.573  14.218  24.604  0.00  0.00    +0.000 C 
ATOM     24  C   UNL     1      -2.139  14.633  24.218  0.00  0.00    +0.000 C 
ATOM     25  C   UNL     1      -1.783  14.314  22.766  0.00  0.00    +0.000 C 
ATOM     26  N   UNL     1      -2.091  12.905  22.521  0.00  0.00    +0.000 N 
ATOM     27  C   UNL     1      -3.484  12.513  22.714  0.00  0.00    +0.000 C 
ATOM     28  C   UNL     1      -3.841  12.757  24.177  0.00  0.00    +0.000 C 
BRANCH  23  29
ATOM     29  C   UNL     1      -4.641  15.152  24.011  0.00  0.00    +0.000 C 
BRANCH  29  31
ATOM     30  C   UNL     1      -4.678  17.455  25.232  0.00  0.00    +0.000 C 
ATOM     31  N   UNL     1      -4.658  16.429  24.686  0.00  0.00    +0.000 NA
ENDBRANCH  29  31
ENDBRANCH  23  29
ENDBRANCH   1  26
BRANCH  17  32
ATOM     32  C   UNL     1       4.758   6.255  17.496  0.00  0.00    +0.000 C 
ATOM     33  C   UNL     1       5.985   5.815  18.314  0.00  0.00    +0.000 C 
ATOM     34  C   UNL     1       7.162   5.880  17.359  0.00  0.00    +0.000 C 
ATOM     35  C   UNL     1       6.586   5.701  15.961  0.00  0.00    +0.000 C 
ATOM     36  C   UNL     1       5.068   5.833  16.063  0.00  0.00    +0.000 C 
ENDBRANCH  17  32
TORSDOF 4
ENDMDL
MODEL 6
REMARK VINA RESULT:      -9.6      1.329      1.631
REMARK  Name = 
REMARK  4 active torsions:
REMARK  status: ('A' for Active; 'I' for Inactive)
REMARK    1  A    between atoms: N_2  and  C_3
REMARK    2  A    between atoms: C_3  and  C_4
REMARK    3  A    between atoms: N_7  and  C_8
REMARK    4  A    between atoms: N_24  and  C_25
REMARK                            x       y       z     vdW  Elec       q    Type
REMARK                         _______ _______ _______ _____ _____    ______ ____
ROOT
ATOM      1  C   UNL     1      -1.489  11.975  22.032  0.00  0.00    +0.000 A 
ATOM      2  C   UNL     1      -1.060  11.703  20.739  0.00  0.00    +0.000 A 
ATOM      3  C   UNL     1      -0.400  10.515  20.448  0.00  0.00    +0.000 A 
ATOM      4  C   UNL     1      -0.156   9.582  21.447  0.00  0.00    +0.000 A 
ATOM      5  N   UNL     1       0.492   8.384  21.217  0.00  0.00    +0.000 N 
ATOM      6  C   UNL     1       1.412   8.037  20.241  0.00  0.00    +0.000 A 
ATOM      7  N   UNL     1       1.716   8.922  19.263  0.00  0.00    +0.000 NA
ATOM      8  C   UNL     1       2.561   8.576  18.271  0.00  0.00    +0.000 A 
ATOM      9  C   UNL     1       3.133   7.319  18.289  0.00  0.00    +0.000 A 
ATOM     10  C   UNL     1       3.999   6.565  17.461  0.00  0.00    +0.000 A 
ATOM     11  C   UNL     1       4.480   6.633  16.150  0.00  0.00    +0.000 A 
ATOM     12  C   UNL     1       5.559   5.811  15.860  0.00  0.00    +0.000 A 
ATOM     13  N   UNL     1       6.249   5.103  16.780  0.00  0.00    +0.000 NA
ATOM     14  C   UNL     1       5.754   5.017  18.031  0.00  0.00    +0.000 A 
ATOM     15  F   UNL     1       6.498   4.457  18.992  0.00  0.00    +0.000 F 
ATOM     16  C   UNL     1       4.529   5.595  18.309  0.00  0.00    +0.000 A 
ATOM     17  N   UNL     1       3.549   5.365  19.261  0.00  0.00    +0.000 N 
ATOM     18  C   UNL     1       2.830   6.532  19.390  0.00  0.00    +0.000 A 
ATOM     19  N   UNL     1       1.952   6.817  20.360  0.00  0.00    +0.000 NA
ATOM     20  N   UNL     1      -0.562   9.801  22.712  0.00  0.00    +0.000 NA
ATOM     21  C   UNL     1      -1.186  10.977  22.967  0.00  0.00    +0.000 A 
ATOM     22  H   UNL     1       0.544   7.789  22.026  0.00  0.00    +0.000 HD
ENDROOT
BRANCH   1  26
ATOM     23  C   UNL     1      -4.168  15.006  23.188  0.00  0.00    +0.000 C 
ATOM     24  C   UNL     1      -3.322  14.201  24.195  0.00  0.00    +0.000 C 
ATOM     25  C   UNL     1      -1.949  13.801  23.656  0.00  0.00    +0.000 C 
ATOM     26  N   UNL     1      -2.143  13.140  22.365  0.00  0.00    +0.000 N 
ATOM     27  C   UNL     1      -2.792  13.939  21.330  0.00  0.00    +0.000 C 
ATOM     28  C   UNL     1      -4.193  14.290  21.819  0.00  0.00    +0.000 C 
BRANCH  23  29
ATOM     29  C   UNL     1      -3.678  16.455  23.025  0.00  0.00    +0.000 C 
BRANCH  29  31
ATOM     30  C   UNL     1      -3.885  17.786  25.256  0.00  0.00    +0.000 C 
ATOM     31  N   UNL     1      -3.796  17.193  24.260  0.00  0.00    +0.000 NA
ENDBRANCH  29  31
ENDBRANCH  23  29
ENDBRANCH   1  26
BRANCH  17  32
ATOM     32  C   UNL     1       2.947   4.059  19.537  0.00  0.00    +0.000 C 
ATOM     33  C   UNL     1       2.523   3.927  21.009  0.00  0.00    +0.000 C 
ATOM     34  C   UNL     1       1.445   2.860  21.034  0.00  0.00    +0.000 C 
ATOM     35  C   UNL     1       0.812   2.862  19.650  0.00  0.00    +0.000 C 
ATOM     36  C   UNL     1       1.700   3.702  18.734  0.00  0.00    +0.000 C 
ENDBRANCH  17  32
TORSDOF 4
ENDMDL
MODEL 7
REMARK VINA RESULT:      -9.2      1.663      3.492
REMARK  Name = 
REMARK  4 active torsions:
REMARK  status: ('A' for Active; 'I' for Inactive)
REMARK    1  A    between atoms: N_2  and  C_3
REMARK    2  A    between atoms: C_3  and  C_4
REMARK    3  A    between atoms: N_7  and  C_8
REMARK    4  A    between atoms: N_24  and  C_25
REMARK                            x       y       z     vdW  Elec       q    Type
REMARK                         _______ _______ _______ _____ _____    ______ ____
ROOT
ATOM      1  C   UNL     1      -1.247  11.934  21.610  0.00  0.00    +0.000 A 
ATOM      2  C   UNL     1      -0.755  10.791  22.228  0.00  0.00    +0.000 A 
ATOM      3  C   UNL     1       0.145   9.962  21.569  0.00  0.00    +0.000 A 
ATOM      4  C   UNL     1       0.564  10.262  20.280  0.00  0.00    +0.000 A 
ATOM      5  N   UNL     1       1.458   9.478  19.577  0.00  0.00    +0.000 N 
ATOM      6  C   UNL     1       1.741   8.126  19.685  0.00  0.00    +0.000 A 
ATOM      7  N   UNL     1       1.162   7.398  20.667  0.00  0.00    +0.000 NA
ATOM      8  C   UNL     1       1.475   6.097  20.825  0.00  0.00    +0.000 A 
ATOM      9  C   UNL     1       2.370   5.515  19.949  0.00  0.00    +0.000 A 
ATOM     10  C   UNL     1       2.984   4.249  19.785  0.00  0.00    +0.000 A 
ATOM     11  C   UNL     1       3.164   3.092  20.549  0.00  0.00    +0.000 A 
ATOM     12  C   UNL     1       3.592   1.971  19.852  0.00  0.00    +0.000 A 
ATOM     13  N   UNL     1       3.679   1.895  18.507  0.00  0.00    +0.000 NA
ATOM     14  C   UNL     1       3.538   3.025  17.786  0.00  0.00    +0.000 A 
ATOM     15  F   UNL     1       3.463   2.946  16.452  0.00  0.00    +0.000 F 
ATOM     16  C   UNL     1       3.381   4.229  18.450  0.00  0.00    +0.000 A 
ATOM     17  N   UNL     1       3.635   5.550  18.123  0.00  0.00    +0.000 N 
ATOM     18  C   UNL     1       2.825   6.326  18.921  0.00  0.00    +0.000 A 
ATOM     19  N   UNL     1       2.583   7.634  18.767  0.00  0.00    +0.000 NA
ATOM     20  N   UNL     1       0.119  11.364  19.647  0.00  0.00    +0.000 NA
ATOM     21  C   UNL     1      -0.771  12.141  20.310  0.00  0.00    +0.000 A 
ATOM     22  H   UNL     1       1.709   9.855  18.679  0.00  0.00    +0.000 HD
ENDROOT
BRANCH   1  26
ATOM     23  C   UNL     1      -3.712  15.094  22.890  0.00  0.00    +0.000 C 
ATOM     24  C   UNL     1      -4.118  14.108  21.777  0.00  0.00    +0.000 C 
ATOM     25  C   UNL     1      -3.584  12.692  21.993  0.00  0.00    +0.000 C 
ATOM     26  N   UNL     1      -2.143  12.780  22.225  0.00  0.00    +0.000 N 
ATOM     27  C   UNL     1      -1.730  13.572  23.380  0.00  0.00    +0.000 C 
ATOM     28  C   UNL     1      -2.192  15.008  23.152  0.00  0.00    +0.000 C 
BRANCH  23  29
ATOM     29  C   UNL     1      -4.493  14.870  24.196  0.00  0.00    +0.000 C 
BRANCH  29  31
ATOM     30  C   UNL     1      -7.066  14.878  23.779  0.00  0.00    +0.000 C 
ATOM     31  N   UNL     1      -5.918  14.879  23.965  0.00  0.00    +0.000 NA
ENDBRANCH  29  31
ENDBRANCH  23  29
ENDBRANCH   1  26
BRANCH  17  32
ATOM     32  C   UNL     1       4.912   6.049  17.609  0.00  0.00    +0.000 C 
ATOM     33  C   UNL     1       6.103   5.495  18.410  0.00  0.00    +0.000 C 
ATOM     34  C   UNL     1       7.300   5.581  17.482  0.00  0.00    +0.000 C 
ATOM     35  C   UNL     1       6.745   5.536  16.065  0.00  0.00    +0.000 C 
ATOM     36  C   UNL     1       5.232   5.726  16.152  0.00  0.00    +0.000 C 
ENDBRANCH  17  32
TORSDOF 4
ENDMDL
MODEL 8
REMARK VINA RESULT:      -9.0      1.461      1.919
REMARK  Name = 
REMARK  4 active torsions:
REMARK  status: ('A' for Active; 'I' for Inactive)
REMARK    1  A    between atoms: N_2  and  C_3
REMARK    2  A    between atoms: C_3  and  C_4
REMARK    3  A    between atoms: N_7  and  C_8
REMARK    4  A    between atoms: N_24  and  C_25
REMARK                            x       y       z     vdW  Elec       q    Type
REMARK                         _______ _______ _______ _____ _____    ______ ____
ROOT
ATOM      1  C   UNL     1      -1.445  12.344  21.204  0.00  0.00    +0.000 A 
ATOM      2  C   UNL     1      -0.967  11.955  19.959  0.00  0.00    +0.000 A 
ATOM      3  C   UNL     1      -0.307  10.742  19.801  0.00  0.00    +0.000 A 
ATOM      4  C   UNL     1      -0.113   9.900  20.888  0.00  0.00    +0.000 A 
ATOM      5  N   UNL     1       0.532   8.682  20.791  0.00  0.00    +0.000 N 
ATOM      6  C   UNL     1       1.488   8.245  19.889  0.00  0.00    +0.000 A 
ATOM      7  N   UNL     1       1.840   9.038  18.850  0.00  0.00    +0.000 NA
ATOM      8  C   UNL     1       2.722   8.601  17.929  0.00  0.00    +0.000 A 
ATOM      9  C   UNL     1       3.280   7.347  18.081  0.00  0.00    +0.000 A 
ATOM     10  C   UNL     1       4.173   6.516  17.360  0.00  0.00    +0.000 A 
ATOM     11  C   UNL     1       4.707   6.466  16.069  0.00  0.00    +0.000 A 
ATOM     12  C   UNL     1       5.788   5.614  15.898  0.00  0.00    +0.000 A 
ATOM     13  N   UNL     1       6.433   4.986  16.904  0.00  0.00    +0.000 NA
ATOM     14  C   UNL     1       5.887   5.015  18.137  0.00  0.00    +0.000 A 
ATOM     15  F   UNL     1       6.586   4.537  19.174  0.00  0.00    +0.000 F 
ATOM     16  C   UNL     1       4.657   5.622  18.312  0.00  0.00    +0.000 A 
ATOM     17  N   UNL     1       3.637   5.484  19.238  0.00  0.00    +0.000 N 
ATOM     18  C   UNL     1       2.925   6.662  19.233  0.00  0.00    +0.000 A 
ATOM     19  N   UNL     1       2.011   7.037  20.138  0.00  0.00    +0.000 NA
ATOM     20  N   UNL     1      -0.568  10.233  22.111  0.00  0.00    +0.000 NA
ATOM     21  C   UNL     1      -1.190  11.430  22.234  0.00  0.00    +0.000 A 
ATOM     22  H   UNL     1       0.545   8.161  21.651  0.00  0.00    +0.000 HD
ENDROOT
BRANCH   1  26
ATOM     23  C   UNL     1      -3.299  15.827  22.663  0.00  0.00    +0.000 C 
ATOM     24  C   UNL     1      -1.788  15.739  22.366  0.00  0.00    +0.000 C 
ATOM     25  C   UNL     1      -1.452  14.830  21.184  0.00  0.00    +0.000 C 
ATOM     26  N   UNL     1      -2.101  13.538  21.405  0.00  0.00    +0.000 N 
ATOM     27  C   UNL     1      -3.556  13.565  21.522  0.00  0.00    +0.000 C 
ATOM     28  C   UNL     1      -3.912  14.411  22.740  0.00  0.00    +0.000 C 
BRANCH  23  29
ATOM     29  C   UNL     1      -4.057  16.683  21.636  0.00  0.00    +0.000 C 
BRANCH  29  31
ATOM     30  C   UNL     1      -6.538  17.052  22.343  0.00  0.00    +0.000 C 
ATOM     31  N   UNL     1      -5.431  16.888  22.031  0.00  0.00    +0.000 NA
ENDBRANCH  29  31
ENDBRANCH  23  29
ENDBRANCH   1  26
BRANCH  17  32
ATOM     32  C   UNL     1       3.012   4.211  19.603  0.00  0.00    +0.000 C 
ATOM     33  C   UNL     1       2.491   4.226  21.050  0.00  0.00    +0.000 C 
ATOM     34  C   UNL     1       1.409   3.165  21.110  0.00  0.00    +0.000 C 
ATOM     35  C   UNL     1       0.868   3.028  19.694  0.00  0.00    +0.000 C 
ATOM     36  C   UNL     1       1.818   3.773  18.759  0.00  0.00    +0.000 C 
ENDBRANCH  17  32
TORSDOF 4
ENDMDL
