MODEL 1
REMARK VINA RESULT:      -9.4      0.000      0.000
REMARK  Name = 
REMARK  3 active torsions:
REMARK  status: ('A' for Active; 'I' for Inactive)
REMARK    1  A    between atoms: C_15  and  C_16
REMARK    2  A    between atoms: C_19  and  C_20
REMARK    3  A    between atoms: C_23  and  N_24
REMARK                            x       y       z     vdW  Elec       q    Type
REMARK                         _______ _______ _______ _____ _____    ______ ____
ROOT
ATOM      1  O   UNL     1       7.463   5.815  15.468  0.00  0.00    +0.000 OA
ATOM      2  C   UNL     1       6.542   5.562  16.243  0.00  0.00    +0.000 A 
ATOM      3  O   UNL     1       5.591   4.600  15.941  0.00  0.00    +0.000 OA
ATOM      4  C   UNL     1       4.503   4.333  16.796  0.00  0.00    +0.000 A 
ATOM      5  C   UNL     1       3.620   3.348  16.374  0.00  0.00    +0.000 A 
ATOM      6  C   UNL     1       2.518   3.046  17.165  0.00  0.00    +0.000 A 
ATOM      7  C   UNL     1       2.292   3.723  18.373  0.00  0.00    +0.000 A 
ATOM      8  C   UNL     1       1.166   3.398  19.149  0.00  0.00    +0.000 A 
ATOM      9  C   UNL     1       0.908   4.049  20.352  0.00  0.00    +0.000 A 
ATOM     10  C   UNL     1       1.774   5.037  20.798  0.00  0.00    +0.000 A 
ATOM     11  C   UNL     1       2.900   5.372  20.040  0.00  0.00    +0.000 A 
ATOM     12  C   UNL     1       3.196   4.731  18.811  0.00  0.00    +0.000 A 
ATOM     13  C   UNL     1       4.327   5.026  17.995  0.00  0.00    +0.000 A 
ATOM     14  C   UNL     1       5.351   6.011  18.341  0.00  0.00    +0.000 A 
ATOM     15  C   UNL     1       6.400   6.265  17.543  0.00  0.00    +0.000 A 
ENDROOT
BRANCH  15  16
ATOM     16  C   UNL     1       7.364   7.217  17.981  0.00  0.00    +0.000 A 
ATOM     17  N   UNL     1       8.318   7.125  18.886  0.00  0.00    +0.000 NA
ATOM     18  N   UNL     1       8.970   8.330  18.950  0.00  0.00    +0.000 NA
ATOM     19  C   UNL     1       8.409   9.161  18.092  0.00  0.00    +0.000 A 
ATOM     20  N   UNL     1       7.410   8.482  17.445  0.00  0.00    +0.000 N 
ATOM     21  H   UNL     1       6.796   8.831  16.722  0.00  0.00    +0.000 HD
BRANCH  19  22
ATOM     22  C   UNL     1       8.760  10.567  17.894  0.00  0.00    +0.000 A 
ATOM     23  C   UNL     1      10.090  10.971  18.114  0.00  0.00    +0.000 A 
ATOM     24  C   UNL     1      10.468  12.313  18.009  0.00  0.00    +0.000 A 
ATOM     25  C   UNL     1       9.506  13.271  17.678  0.00  0.00    +0.000 A 
ATOM     26  C   UNL     1       8.181  12.889  17.431  0.00  0.00    +0.000 A 
ATOM     27  C   UNL     1       7.814  11.541  17.537  0.00  0.00    +0.000 A 
BRANCH  25  28
ATOM     28  N   UNL     1       9.883  14.688  17.605  0.00  0.00    +0.000 N 
ATOM     29  O   UNL     1       9.082  15.523  18.049  0.00  0.00    +0.000 OA
ATOM     30  O   UNL     1      10.981  14.965  17.099  0.00  0.00    +0.000 OA
ENDBRANCH  25  28
ENDBRANCH  19  22
ENDBRANCH  15  16
TORSDOF 3
ENDMDL
MODEL 2
REMARK VINA RESULT:      -9.0      7.750      9.453
REMARK  Name = 
REMARK  3 active torsions:
REMARK  status: ('A' for Active; 'I' for Inactive)
REMARK    1  A    between atoms: C_15  and  C_16
REMARK    2  A    between atoms: C_19  and  C_20
REMARK    3  A    between atoms: C_23  and  N_24
REMARK                            x       y       z     vdW  Elec       q    Type
REMARK                         _______ _______ _______ _____ _____    ______ ____
ROOT
ATOM      1  O   UNL     1       1.232  10.618  18.958  0.00  0.00    +0.000 OA
ATOM      2  C   UNL     1       1.525   9.457  19.237  0.00  0.00    +0.000 A 
ATOM      3  O   UNL     1       2.237   8.662  18.353  0.00  0.00    +0.000 OA
ATOM      4  C   UNL     1       2.537   7.315  18.636  0.00  0.00    +0.000 A 
ATOM      5  C   UNL     1       3.253   6.629  17.663  0.00  0.00    +0.000 A 
ATOM      6  C   UNL     1       3.570   5.292  17.876  0.00  0.00    +0.000 A 
ATOM      7  C   UNL     1       3.175   4.637  19.052  0.00  0.00    +0.000 A 
ATOM      8  C   UNL     1       3.507   3.284  19.236  0.00  0.00    +0.000 A 
ATOM      9  C   UNL     1       3.131   2.600  20.389  0.00  0.00    +0.000 A 
ATOM     10  C   UNL     1       2.416   3.261  21.378  0.00  0.00    +0.000 A 
ATOM     11  C   UNL     1       2.079   4.608  21.212  0.00  0.00    +0.000 A 
ATOM     12  C   UNL     1       2.445   5.337  20.053  0.00  0.00    +0.000 A 
ATOM     13  C   UNL     1       2.133   6.709  19.827  0.00  0.00    +0.000 A 
ATOM     14  C   UNL     1       1.420   7.555  20.785  0.00  0.00    +0.000 A 
ATOM     15  C   UNL     1       1.140   8.844  20.533  0.00  0.00    +0.000 A 
ENDROOT
BRANCH  15  16
ATOM     16  C   UNL     1       0.472   9.596  21.540  0.00  0.00    +0.000 A 
ATOM     17  N   UNL     1       0.599   9.584  22.853  0.00  0.00    +0.000 NA
ATOM     18  N   UNL     1      -0.287  10.489  23.380  0.00  0.00    +0.000 NA
ATOM     19  C   UNL     1      -0.962  11.046  22.393  0.00  0.00    +0.000 A 
ATOM     20  N   UNL     1      -0.488  10.524  21.217  0.00  0.00    +0.000 N 
ATOM     21  H   UNL     1      -0.789  10.750  20.278  0.00  0.00    +0.000 HD
BRANCH  19  22
ATOM     22  C   UNL     1      -2.049  12.016  22.527  0.00  0.00    +0.000 A 
ATOM     23  C   UNL     1      -2.197  13.010  21.542  0.00  0.00    +0.000 A 
ATOM     24  C   UNL     1      -3.172  14.005  21.655  0.00  0.00    +0.000 A 
ATOM     25  C   UNL     1      -4.018  14.010  22.767  0.00  0.00    +0.000 A 
ATOM     26  C   UNL     1      -3.906  13.016  23.748  0.00  0.00    +0.000 A 
ATOM     27  C   UNL     1      -2.926  12.023  23.623  0.00  0.00    +0.000 A 
BRANCH  25  28
ATOM     28  N   UNL     1      -5.019  15.074  22.916  0.00  0.00    +0.000 N 
ATOM     29  O   UNL     1      -5.607  15.461  21.897  0.00  0.00    +0.000 OA
ATOM     30  O   UNL     1      -5.213  15.525  24.055  0.00  0.00    +0.000 OA
ENDBRANCH  25  28
ENDBRANCH  19  22
ENDBRANCH  15  16
TORSDOF 3
ENDMDL
MODEL 3
REMARK VINA RESULT:      -8.6      6.268      7.990
REMARK  Name = 
REMARK  3 active torsions:
REMARK  status: ('A' for Active; 'I' for Inactive)
REMARK    1  A    between atoms: C_15  and  C_16
REMARK    2  A    between atoms: C_19  and  C_20
REMARK    3  A    between atoms: C_23  and  N_24
REMARK                            x       y       z     vdW  Elec       q    Type
REMARK                         _______ _______ _______ _____ _____    ______ ____
ROOT
ATOM      1  O   UNL     1       1.135   6.785  21.170  0.00  0.00    +0.000 OA
ATOM      2  C   UNL     1       1.843   6.501  20.206  0.00  0.00    +0.000 A 
ATOM      3  O   UNL     1       2.329   5.216  20.023  0.00  0.00    +0.000 OA
ATOM      4  C   UNL     1       3.182   4.887  18.951  0.00  0.00    +0.000 A 
ATOM      5  C   UNL     1       3.601   3.564  18.886  0.00  0.00    +0.000 A 
ATOM      6  C   UNL     1       4.454   3.176  17.859  0.00  0.00    +0.000 A 
ATOM      7  C   UNL     1       4.893   4.101  16.901  0.00  0.00    +0.000 A 
ATOM      8  C   UNL     1       5.759   3.680  15.878  0.00  0.00    +0.000 A 
ATOM      9  C   UNL     1       6.217   4.570  14.909  0.00  0.00    +0.000 A 
ATOM     10  C   UNL     1       5.814   5.897  14.950  0.00  0.00    +0.000 A 
ATOM     11  C   UNL     1       4.951   6.333  15.959  0.00  0.00    +0.000 A 
ATOM     12  C   UNL     1       4.464   5.457  16.962  0.00  0.00    +0.000 A 
ATOM     13  C   UNL     1       3.582   5.840  18.014  0.00  0.00    +0.000 A 
ATOM     14  C   UNL     1       3.037   7.189  18.175  0.00  0.00    +0.000 A 
ATOM     15  C   UNL     1       2.212   7.512  19.184  0.00  0.00    +0.000 A 
ENDROOT
BRANCH  15  16
ATOM     16  C   UNL     1       1.706   8.841  19.237  0.00  0.00    +0.000 A 
ATOM     17  N   UNL     1       1.727   9.810  18.343  0.00  0.00    +0.000 NA
ATOM     18  N   UNL     1       1.117  10.912  18.886  0.00  0.00    +0.000 NA
ATOM     19  C   UNL     1       0.731  10.622  20.114  0.00  0.00    +0.000 A 
ATOM     20  N   UNL     1       1.063   9.314  20.356  0.00  0.00    +0.000 N 
ATOM     21  H   UNL     1       0.896   8.783  21.201  0.00  0.00    +0.000 HD
BRANCH  19  22
ATOM     22  C   UNL     1       0.100  11.539  21.062  0.00  0.00    +0.000 A 
ATOM     23  C   UNL     1       0.470  12.896  21.041  0.00  0.00    +0.000 A 
ATOM     24  C   UNL     1      -0.047  13.804  21.970  0.00  0.00    +0.000 A 
ATOM     25  C   UNL     1      -0.951  13.354  22.936  0.00  0.00    +0.000 A 
ATOM     26  C   UNL     1      -1.353  12.013  22.960  0.00  0.00    +0.000 A 
ATOM     27  C   UNL     1      -0.830  11.112  22.023  0.00  0.00    +0.000 A 
BRANCH  25  28
ATOM     28  N   UNL     1      -1.469  14.290  23.941  0.00  0.00    +0.000 N 
ATOM     29  O   UNL     1      -0.659  15.038  24.506  0.00  0.00    +0.000 OA
ATOM     30  O   UNL     1      -2.689  14.273  24.168  0.00  0.00    +0.000 OA
ENDBRANCH  25  28
ENDBRANCH  19  22
ENDBRANCH  15  16
TORSDOF 3
ENDMDL
MODEL 4
REMARK VINA RESULT:      -8.6      6.257      7.974
REMARK  Name = 
REMARK  3 active torsions:
REMARK  status: ('A' for Active; 'I' for Inactive)
REMARK    1  A    between atoms: C_15  and  C_16
REMARK    2  A    between atoms: C_19  and  C_20
REMARK    3  A    between atoms: C_23  and  N_24
REMARK                            x       y       z     vdW  Elec       q    Type
REMARK                         _______ _______ _______ _____ _____    ______ ____
ROOT
ATOM      1  O   UNL     1       1.150   6.721  21.130  0.00  0.00    +0.000 OA
ATOM      2  C   UNL     1       1.862   6.444  20.166  0.00  0.00    +0.000 A 
ATOM      3  O   UNL     1       2.358   5.164  19.982  0.00  0.00    +0.000 OA
ATOM      4  C   UNL     1       3.214   4.843  18.910  0.00  0.00    +0.000 A 
ATOM      5  C   UNL     1       3.643   3.523  18.843  0.00  0.00    +0.000 A 
ATOM      6  C   UNL     1       4.501   3.144  17.816  0.00  0.00    +0.000 A 
ATOM      7  C   UNL     1       4.934   4.074  16.861  0.00  0.00    +0.000 A 
ATOM      8  C   UNL     1       5.805   3.662  15.838  0.00  0.00    +0.000 A 
ATOM      9  C   UNL     1       6.258   4.557  14.872  0.00  0.00    +0.000 A 
ATOM     10  C   UNL     1       5.845   5.881  14.915  0.00  0.00    +0.000 A 
ATOM     11  C   UNL     1       4.978   6.309  15.924  0.00  0.00    +0.000 A 
ATOM     12  C   UNL     1       4.495   5.427  16.924  0.00  0.00    +0.000 A 
ATOM     13  C   UNL     1       3.609   5.801  17.976  0.00  0.00    +0.000 A 
ATOM     14  C   UNL     1       3.054   7.145  18.139  0.00  0.00    +0.000 A 
ATOM     15  C   UNL     1       2.225   7.461  19.147  0.00  0.00    +0.000 A 
ENDROOT
BRANCH  15  16
ATOM     16  C   UNL     1       1.709   8.786  19.203  0.00  0.00    +0.000 A 
ATOM     17  N   UNL     1       1.624   9.719  18.275  0.00  0.00    +0.000 NA
ATOM     18  N   UNL     1       1.059  10.836  18.837  0.00  0.00    +0.000 NA
ATOM     19  C   UNL     1       0.808  10.590  20.109  0.00  0.00    +0.000 A 
ATOM     20  N   UNL     1       1.182   9.297  20.365  0.00  0.00    +0.000 N 
ATOM     21  H   UNL     1       1.112   8.798  21.242  0.00  0.00    +0.000 HD
BRANCH  19  22
ATOM     22  C   UNL     1       0.268  11.538  21.082  0.00  0.00    +0.000 A 
ATOM     23  C   UNL     1      -0.664  11.078  22.031  0.00  0.00    +0.000 A 
ATOM     24  C   UNL     1      -1.267  11.953  22.940  0.00  0.00    +0.000 A 
ATOM     25  C   UNL     1      -0.935  13.311  22.906  0.00  0.00    +0.000 A 
ATOM     26  C   UNL     1       0.008  13.787  21.987  0.00  0.00    +0.000 A 
ATOM     27  C   UNL     1       0.607  12.900  21.082  0.00  0.00    +0.000 A 
BRANCH  25  28
ATOM     28  N   UNL     1      -1.593  14.245  23.828  0.00  0.00    +0.000 N 
ATOM     29  O   UNL     1      -2.828  14.331  23.780  0.00  0.00    +0.000 OA
ATOM     30  O   UNL     1      -0.871  14.895  24.598  0.00  0.00    +0.000 OA
ENDBRANCH  25  28
ENDBRANCH  19  22
ENDBRANCH  15  16
TORSDOF 3
ENDMDL
MODEL 5
REMARK VINA RESULT:      -8.6      7.062     10.175
REMARK  Name = 
REMARK  3 active torsions:
REMARK  status: ('A' for Active; 'I' for Inactive)
REMARK    1  A    between atoms: C_15  and  C_16
REMARK    2  A    between atoms: C_19  and  C_20
REMARK    3  A    between atoms: C_23  and  N_24
REMARK                            x       y       z     vdW  Elec       q    Type
REMARK                         _______ _______ _______ _____ _____    ______ ____
ROOT
ATOM      1  O   UNL     1       1.488  11.063  21.481  0.00  0.00    +0.000 OA
ATOM      2  C   UNL     1       0.426  11.241  20.886  0.00  0.00    +0.000 A 
ATOM      3  O   UNL     1      -0.522  12.135  21.357  0.00  0.00    +0.000 OA
ATOM      4  C   UNL     1      -1.763  12.314  20.714  0.00  0.00    +0.000 A 
ATOM      5  C   UNL     1      -2.625  13.237  21.292  0.00  0.00    +0.000 A 
ATOM      6  C   UNL     1      -3.871  13.451  20.714  0.00  0.00    +0.000 A 
ATOM      7  C   UNL     1      -4.261  12.747  19.565  0.00  0.00    +0.000 A 
ATOM      8  C   UNL     1      -5.529  12.981  19.006  0.00  0.00    +0.000 A 
ATOM      9  C   UNL     1      -5.952  12.301  17.868  0.00  0.00    +0.000 A 
ATOM     10  C   UNL     1      -5.111  11.373  17.269  0.00  0.00    +0.000 A 
ATOM     11  C   UNL     1      -3.846  11.128  17.811  0.00  0.00    +0.000 A 
ATOM     12  C   UNL     1      -3.380  11.802  18.968  0.00  0.00    +0.000 A 
ATOM     13  C   UNL     1      -2.102  11.598  19.565  0.00  0.00    +0.000 A 
ATOM     14  C   UNL     1      -1.088  10.685  19.036  0.00  0.00    +0.000 A 
ATOM     15  C   UNL     1       0.104  10.516  19.631  0.00  0.00    +0.000 A 
ENDROOT
BRANCH  15  16
ATOM     16  C   UNL     1       1.039   9.632  19.023  0.00  0.00    +0.000 A 
ATOM     17  N   UNL     1       1.751   9.754  17.920  0.00  0.00    +0.000 NA
ATOM     18  N   UNL     1       2.495   8.613  17.758  0.00  0.00    +0.000 NA
ATOM     19  C   UNL     1       2.232   7.790  18.756  0.00  0.00    +0.000 A 
ATOM     20  N   UNL     1       1.338   8.415  19.587  0.00  0.00    +0.000 N 
ATOM     21  H   UNL     1       0.943   8.057  20.446  0.00  0.00    +0.000 HD
BRANCH  19  22
ATOM     22  C   UNL     1       2.766   6.439  18.927  0.00  0.00    +0.000 A 
ATOM     23  C   UNL     1       3.391   5.814  17.832  0.00  0.00    +0.000 A 
ATOM     24  C   UNL     1       3.856   4.498  17.916  0.00  0.00    +0.000 A 
ATOM     25  C   UNL     1       3.697   3.791  19.111  0.00  0.00    +0.000 A 
ATOM     26  C   UNL     1       3.101   4.402  20.221  0.00  0.00    +0.000 A 
ATOM     27  C   UNL     1       2.640   5.722  20.127  0.00  0.00    +0.000 A 
BRANCH  25  28
ATOM     28  N   UNL     1       4.145   2.396  19.197  0.00  0.00    +0.000 N 
ATOM     29  O   UNL     1       4.909   2.090  20.123  0.00  0.00    +0.000 OA
ATOM     30  O   UNL     1       3.732   1.606  18.334  0.00  0.00    +0.000 OA
ENDBRANCH  25  28
ENDBRANCH  19  22
ENDBRANCH  15  16
TORSDOF 3
ENDMDL
MODEL 6
REMARK VINA RESULT:      -8.5      6.365      8.480
REMARK  Name = 
REMARK  3 active torsions:
REMARK  status: ('A' for Active; 'I' for Inactive)
REMARK    1  A    between atoms: C_15  and  C_16
REMARK    2  A    between atoms: C_19  and  C_20
REMARK    3  A    between atoms: C_23  and  N_24
REMARK                            x       y       z     vdW  Elec       q    Type
REMARK                         _______ _______ _______ _____ _____    ______ ____
ROOT
ATOM      1  O   UNL     1       1.339   6.388  21.114  0.00  0.00    +0.000 OA
ATOM      2  C   UNL     1       2.035   6.173  20.123  0.00  0.00    +0.000 A 
ATOM      3  O   UNL     1       2.588   4.924  19.889  0.00  0.00    +0.000 OA
ATOM      4  C   UNL     1       3.427   4.675  18.785  0.00  0.00    +0.000 A 
ATOM      5  C   UNL     1       3.918   3.380  18.669  0.00  0.00    +0.000 A 
ATOM      6  C   UNL     1       4.763   3.072  17.609  0.00  0.00    +0.000 A 
ATOM      7  C   UNL     1       5.121   4.048  16.667  0.00  0.00    +0.000 A 
ATOM      8  C   UNL     1       5.980   3.707  15.609  0.00  0.00    +0.000 A 
ATOM      9  C   UNL     1       6.360   4.648  14.656  0.00  0.00    +0.000 A 
ATOM     10  C   UNL     1       5.883   5.948  14.748  0.00  0.00    +0.000 A 
ATOM     11  C   UNL     1       5.026   6.305  15.793  0.00  0.00    +0.000 A 
ATOM     12  C   UNL     1       4.617   5.374  16.781  0.00  0.00    +0.000 A 
ATOM     13  C   UNL     1       3.746   5.676  17.867  0.00  0.00    +0.000 A 
ATOM     14  C   UNL     1       3.130   6.986  18.083  0.00  0.00    +0.000 A 
ATOM     15  C   UNL     1       2.317   7.232  19.123  0.00  0.00    +0.000 A 
ENDROOT
BRANCH  15  16
ATOM     16  C   UNL     1       1.738   8.528  19.230  0.00  0.00    +0.000 A 
ATOM     17  N   UNL     1       1.937   9.624  18.524  0.00  0.00    +0.000 NA
ATOM     18  N   UNL     1       1.143  10.618  19.037  0.00  0.00    +0.000 NA
ATOM     19  C   UNL     1       0.465  10.134  20.060  0.00  0.00    +0.000 A 
ATOM     20  N   UNL     1       0.797   8.811  20.191  0.00  0.00    +0.000 N 
ATOM     21  H   UNL     1       0.445   8.152  20.874  0.00  0.00    +0.000 HD
BRANCH  19  22
ATOM     22  C   UNL     1      -0.445  10.882  20.926  0.00  0.00    +0.000 A 
ATOM     23  C   UNL     1      -0.519  10.541  22.289  0.00  0.00    +0.000 A 
ATOM     24  C   UNL     1      -1.422  11.173  23.149  0.00  0.00    +0.000 A 
ATOM     25  C   UNL     1      -2.267  12.165  22.643  0.00  0.00    +0.000 A 
ATOM     26  C   UNL     1      -2.195  12.539  21.296  0.00  0.00    +0.000 A 
ATOM     27  C   UNL     1      -1.284  11.900  20.444  0.00  0.00    +0.000 A 
BRANCH  25  28
ATOM     28  N   UNL     1      -3.248  12.807  23.528  0.00  0.00    +0.000 N 
ATOM     29  O   UNL     1      -3.288  14.045  23.544  0.00  0.00    +0.000 OA
ATOM     30  O   UNL     1      -3.975  12.070  24.209  0.00  0.00    +0.000 OA
ENDBRANCH  25  28
ENDBRANCH  19  22
ENDBRANCH  15  16
TORSDOF 3
ENDMDL
MODEL 7
REMARK VINA RESULT:      -8.5      5.980      8.715
REMARK  Name = 
REMARK  3 active torsions:
REMARK  status: ('A' for Active; 'I' for Inactive)
REMARK    1  A    between atoms: C_15  and  C_16
REMARK    2  A    between atoms: C_19  and  C_20
REMARK    3  A    between atoms: C_23  and  N_24
REMARK                            x       y       z     vdW  Elec       q    Type
REMARK                         _______ _______ _______ _____ _____    ______ ____
ROOT
ATOM      1  O   UNL     1       1.881   9.409  22.408  0.00  0.00    +0.000 OA
ATOM      2  C   UNL     1       1.035   9.692  21.561  0.00  0.00    +0.000 A 
ATOM      3  O   UNL     1       0.227  10.810  21.696  0.00  0.00    +0.000 OA
ATOM      4  C   UNL     1      -0.778  11.120  20.760  0.00  0.00    +0.000 A 
ATOM      5  C   UNL     1      -1.520  12.267  21.015  0.00  0.00    +0.000 A 
ATOM      6  C   UNL     1      -2.537  12.622  20.136  0.00  0.00    +0.000 A 
ATOM      7  C   UNL     1      -2.818  11.839  19.007  0.00  0.00    +0.000 A 
ATOM      8  C   UNL     1      -3.855  12.222  18.140  0.00  0.00    +0.000 A 
ATOM      9  C   UNL     1      -4.165  11.469  17.010  0.00  0.00    +0.000 A 
ATOM     10  C   UNL     1      -3.440  10.320  16.730  0.00  0.00    +0.000 A 
ATOM     11  C   UNL     1      -2.403   9.925  17.581  0.00  0.00    +0.000 A 
ATOM     12  C   UNL     1      -2.059  10.666  18.740  0.00  0.00    +0.000 A 
ATOM     13  C   UNL     1      -1.013  10.316  19.643  0.00  0.00    +0.000 A 
ATOM     14  C   UNL     1      -0.134   9.159  19.471  0.00  0.00    +0.000 A 
ATOM     15  C   UNL     1       0.837   8.860  20.348  0.00  0.00    +0.000 A 
ENDROOT
BRANCH  15  16
ATOM     16  C   UNL     1       1.664   7.734  20.077  0.00  0.00    +0.000 A 
ATOM     17  N   UNL     1       1.937   6.669  20.805  0.00  0.00    +0.000 NA
ATOM     18  N   UNL     1       2.806   5.875  20.099  0.00  0.00    +0.000 NA
ATOM     19  C   UNL     1       3.070   6.458  18.945  0.00  0.00    +0.000 A 
ATOM     20  N   UNL     1       2.344   7.619  18.888  0.00  0.00    +0.000 N 
ATOM     21  H   UNL     1       2.316   8.292  18.133  0.00  0.00    +0.000 HD
BRANCH  19  22
ATOM     22  C   UNL     1       4.001   5.975  17.925  0.00  0.00    +0.000 A 
ATOM     23  C   UNL     1       4.698   6.915  17.144  0.00  0.00    +0.000 A 
ATOM     24  C   UNL     1       5.546   6.513  16.107  0.00  0.00    +0.000 A 
ATOM     25  C   UNL     1       5.705   5.149  15.845  0.00  0.00    +0.000 A 
ATOM     26  C   UNL     1       5.042   4.195  16.626  0.00  0.00    +0.000 A 
ATOM     27  C   UNL     1       4.196   4.610  17.663  0.00  0.00    +0.000 A 
BRANCH  25  28
ATOM     28  N   UNL     1       6.562   4.716  14.734  0.00  0.00    +0.000 N 
ATOM     29  O   UNL     1       6.191   3.742  14.064  0.00  0.00    +0.000 OA
ATOM     30  O   UNL     1       7.608   5.351  14.535  0.00  0.00    +0.000 OA
ENDBRANCH  25  28
ENDBRANCH  19  22
ENDBRANCH  15  16
TORSDOF 3
ENDMDL
MODEL 8
REMARK VINA RESULT:      -8.4      7.534     10.252
REMARK  Name = 
REMARK  3 active torsions:
REMARK  status: ('A' for Active; 'I' for Inactive)
REMARK    1  A    between atoms: C_15  and  C_16
REMARK    2  A    between atoms: C_19  and  C_20
REMARK    3  A    between atoms: C_23  and  N_24
REMARK                            x       y       z     vdW  Elec       q    Type
REMARK                         _______ _______ _______ _____ _____    ______ ____
ROOT
ATOM      1  O   UNL     1       0.760  11.467  21.685  0.00  0.00    +0.000 OA
ATOM      2  C   UNL     1      -0.301  11.653  21.090  0.00  0.00    +0.000 A 
ATOM      3  O   UNL     1      -1.326  12.391  21.660  0.00  0.00    +0.000 OA
ATOM      4  C   UNL     1      -2.564  12.572  21.013  0.00  0.00    +0.000 A 
ATOM      5  C   UNL     1      -3.507  13.330  21.695  0.00  0.00    +0.000 A 
ATOM      6  C   UNL     1      -4.754  13.535  21.117  0.00  0.00    +0.000 A 
ATOM      7  C   UNL     1      -5.066  12.985  19.865  0.00  0.00    +0.000 A 
ATOM      8  C   UNL     1      -6.337  13.207  19.308  0.00  0.00    +0.000 A 
ATOM      9  C   UNL     1      -6.683  12.676  18.068  0.00  0.00    +0.000 A 
ATOM     10  C   UNL     1      -5.761  11.915  17.365  0.00  0.00    +0.000 A 
ATOM     11  C   UNL     1      -4.491  11.686  17.902  0.00  0.00    +0.000 A 
ATOM     12  C   UNL     1      -4.102  12.211  19.161  0.00  0.00    +0.000 A 
ATOM     13  C   UNL     1      -2.823  12.015  19.760  0.00  0.00    +0.000 A 
ATOM     14  C   UNL     1      -1.730  11.271  19.132  0.00  0.00    +0.000 A 
ATOM     15  C   UNL     1      -0.541  11.104  19.732  0.00  0.00    +0.000 A 
ENDROOT
BRANCH  15  16
ATOM     16  C   UNL     1       0.472  10.394  19.028  0.00  0.00    +0.000 A 
ATOM     17  N   UNL     1       1.090  10.668  17.896  0.00  0.00    +0.000 NA
ATOM     18  N   UNL     1       1.979   9.657  17.634  0.00  0.00    +0.000 NA
ATOM     19  C   UNL     1       1.899   8.760  18.599  0.00  0.00    +0.000 A 
ATOM     20  N   UNL     1       0.977   9.209  19.509  0.00  0.00    +0.000 N 
ATOM     21  H   UNL     1       0.690   8.759  20.368  0.00  0.00    +0.000 HD
BRANCH  19  22
ATOM     22  C   UNL     1       2.630   7.496  18.668  0.00  0.00    +0.000 A 
ATOM     23  C   UNL     1       2.366   6.617  19.735  0.00  0.00    +0.000 A 
ATOM     24  C   UNL     1       3.084   5.428  19.892  0.00  0.00    +0.000 A 
ATOM     25  C   UNL     1       4.082   5.105  18.968  0.00  0.00    +0.000 A 
ATOM     26  C   UNL     1       4.345   5.952  17.884  0.00  0.00    +0.000 A 
ATOM     27  C   UNL     1       3.618   7.140  17.736  0.00  0.00    +0.000 A 
BRANCH  25  28
ATOM     28  N   UNL     1       4.870   3.879  19.146  0.00  0.00    +0.000 N 
ATOM     29  O   UNL     1       4.259   2.831  19.394  0.00  0.00    +0.000 OA
ATOM     30  O   UNL     1       6.102   3.968  19.040  0.00  0.00    +0.000 OA
ENDBRANCH  25  28
ENDBRANCH  19  22
ENDBRANCH  15  16
TORSDOF 3
ENDMDL
MODEL 9
REMARK VINA RESULT:      -8.4      8.299      9.970
REMARK  Name = 
REMARK  3 active torsions:
REMARK  status: ('A' for Active; 'I' for Inactive)
REMARK    1  A    between atoms: C_15  and  C_16
REMARK    2  A    between atoms: C_19  and  C_20
REMARK    3  A    between atoms: C_23  and  N_24
REMARK                            x       y       z     vdW  Elec       q    Type
REMARK                         _______ _______ _______ _____ _____    ______ ____
ROOT
ATOM      1  O   UNL     1       0.839  11.560  19.132  0.00  0.00    +0.000 OA
ATOM      2  C   UNL     1       1.179  10.393  19.318  0.00  0.00    +0.000 A 
ATOM      3  O   UNL     1       1.929   9.703  18.379  0.00  0.00    +0.000 OA
ATOM      4  C   UNL     1       2.284   8.351  18.556  0.00  0.00    +0.000 A 
ATOM      5  C   UNL     1       3.034   7.777  17.537  0.00  0.00    +0.000 A 
ATOM      6  C   UNL     1       3.406   6.441  17.643  0.00  0.00    +0.000 A 
ATOM      7  C   UNL     1       3.032   5.677  18.758  0.00  0.00    +0.000 A 
ATOM      8  C   UNL     1       3.420   4.329  18.835  0.00  0.00    +0.000 A 
ATOM      9  C   UNL     1       3.066   3.538  19.926  0.00  0.00    +0.000 A 
ATOM     10  C   UNL     1       2.318   4.086  20.958  0.00  0.00    +0.000 A 
ATOM     11  C   UNL     1       1.925   5.427  20.899  0.00  0.00    +0.000 A 
ATOM     12  C   UNL     1       2.267   6.263  19.806  0.00  0.00    +0.000 A 
ATOM     13  C   UNL     1       1.898   7.635  19.690  0.00  0.00    +0.000 A 
ATOM     14  C   UNL     1       1.145   8.369  20.706  0.00  0.00    +0.000 A 
ATOM     15  C   UNL     1       0.812   9.662  20.557  0.00  0.00    +0.000 A 
ENDROOT
BRANCH  15  16
ATOM     16  C   UNL     1       0.108  10.300  21.615  0.00  0.00    +0.000 A 
ATOM     17  N   UNL     1       0.180  10.138  22.922  0.00  0.00    +0.000 NA
ATOM     18  N   UNL     1      -0.722  10.986  23.513  0.00  0.00    +0.000 NA
ATOM     19  C   UNL     1      -1.352  11.659  22.569  0.00  0.00    +0.000 A 
ATOM     20  N   UNL     1      -0.833  11.270  21.362  0.00  0.00    +0.000 N 
ATOM     21  H   UNL     1      -1.093  11.604  20.443  0.00  0.00    +0.000 HD
BRANCH  19  22
ATOM     22  C   UNL     1      -2.438  12.618  22.769  0.00  0.00    +0.000 A 
ATOM     23  C   UNL     1      -3.612  12.483  22.006  0.00  0.00    +0.000 A 
ATOM     24  C   UNL     1      -4.653  13.411  22.103  0.00  0.00    +0.000 A 
ATOM     25  C   UNL     1      -4.525  14.493  22.978  0.00  0.00    +0.000 A 
ATOM     26  C   UNL     1      -3.376  14.635  23.766  0.00  0.00    +0.000 A 
ATOM     27  C   UNL     1      -2.340  13.698  23.662  0.00  0.00    +0.000 A 
BRANCH  25  28
ATOM     28  N   UNL     1      -5.594  15.496  23.058  0.00  0.00    +0.000 N 
ATOM     29  O   UNL     1      -6.107  15.880  21.998  0.00  0.00    +0.000 OA
ATOM     30  O   UNL     1      -5.918  15.901  24.184  0.00  0.00    +0.000 OA
ENDBRANCH  25  28
ENDBRANCH  19  22
ENDBRANCH  15  16
TORSDOF 3
ENDMDL
