MODEL 1
REMARK VINA RESULT:      -8.1      0.000      0.000
REMARK  Name = 
REMARK  7 active torsions:
REMARK  status: ('A' for Active; 'I' for Inactive)
REMARK    1  A    between atoms: C_2  and  C_13
REMARK    2  A    between atoms: N_3  and  C_4
REMARK    3  A    between atoms: C_9  and  C_10
REMARK    4  A    between atoms: C_10  and  O_12
REMARK    5  A    between atoms: C_13  and  N_23
REMARK    6  A    between atoms: C_14  and  C_15
REMARK    7  A    between atoms: C_24  and  C_26
REMARK                            x       y       z     vdW  Elec       q    Type
REMARK                         _______ _______ _______ _____ _____    ______ ____
ROOT
ATOM      1  C   UNL     1       2.706   6.975  18.621  0.00  0.00    +0.000 C 
ATOM      2  C   UNL     1       2.074   8.159  18.619  0.00  0.00    +0.000 C 
ENDROOT
BRANCH   2   3
ATOM      3  C   UNL     1       1.209   8.727  19.659  0.00  0.00    +0.000 A 
ATOM      4  C   UNL     1       1.564   8.458  20.992  0.00  0.00    +0.000 A 
ATOM      5  C   UNL     1       0.943   9.141  22.041  0.00  0.00    +0.000 A 
ATOM      6  C   UNL     1      -0.037  10.088  21.761  0.00  0.00    +0.000 A 
ATOM      7 CL   UNL     1      -0.745  10.984  23.048  0.00  0.00    +0.000 Cl
ATOM      8  C   UNL     1      -0.431  10.334  20.447  0.00  0.00    +0.000 A 
ATOM      9  C   UNL     1       0.188   9.651  19.397  0.00  0.00    +0.000 A 
ATOM     10 CL   UNL     1      -0.310  10.004  17.781  0.00  0.00    +0.000 Cl
ENDBRANCH   2   3
BRANCH   1  12
ATOM     11  O   UNL     1       4.124   7.775  16.874  0.00  0.00    +0.000 OA
ATOM     12  C   UNL     1       3.784   6.821  17.573  0.00  0.00    +0.000 C 
ATOM     13  N   UNL     1       4.233   5.530  17.360  0.00  0.00    +0.000 N 
ATOM     14  H   UNL     1       3.670   4.764  17.726  0.00  0.00    +0.000 HD
BRANCH  13  15
ATOM     15  C   UNL     1       5.284   5.247  16.452  0.00  0.00    +0.000 A 
ATOM     16  C   UNL     1       4.971   4.899  15.128  0.00  0.00    +0.000 A 
ATOM     17  C   UNL     1       5.972   4.625  14.192  0.00  0.00    +0.000 A 
ATOM     18  C   UNL     1       7.311   4.690  14.574  0.00  0.00    +0.000 A 
ATOM     19  C   UNL     1       7.643   5.042  15.883  0.00  0.00    +0.000 A 
ATOM     20  C   UNL     1       6.636   5.326  16.822  0.00  0.00    +0.000 A 
BRANCH  20  21
ATOM     21  C   UNL     1       7.082   5.599  18.212  0.00  0.00    +0.000 C 
ATOM     22  O   UNL     1       6.750   4.918  19.167  0.00  0.00    +0.000 OA
BRANCH  21  23
ATOM     23  O   UNL     1       7.846   6.709  18.318  0.00  0.00    +0.000 OA
ATOM     24  H   UNL     1       8.079   6.932  19.242  0.00  0.00    +0.000 HD
ENDBRANCH  21  23
ENDBRANCH  20  21
ENDBRANCH  13  15
ENDBRANCH   1  12
BRANCH   1  25
ATOM     25  N   UNL     1       2.463   5.972  19.532  0.00  0.00    +0.000 N 
ATOM     26  C   UNL     1       1.907   4.759  19.129  0.00  0.00    +0.000 C 
ATOM     27  O   UNL     1       1.526   4.548  17.979  0.00  0.00    +0.000 OA
ATOM     28  H   UNL     1       3.138   5.847  20.281  0.00  0.00    +0.000 HD
BRANCH  26  29
ATOM     29  C   UNL     1       1.880   3.757  20.175  0.00  0.00    +0.000 A 
ATOM     30  C   UNL     1       0.831   3.187  20.869  0.00  0.00    +0.000 A 
ATOM     31  C   UNL     1       1.403   2.312  21.826  0.00  0.00    +0.000 A 
ATOM     32  C   UNL     1       2.762   2.383  21.643  0.00  0.00    +0.000 A 
ATOM     33  O   UNL     1       3.063   3.241  20.638  0.00  0.00    +0.000 OA
ENDBRANCH  26  29
ENDBRANCH   1  25
TORSDOF 7
ENDMDL
MODEL 2
REMARK VINA RESULT:      -7.9      3.296      6.124
REMARK  Name = 
REMARK  7 active torsions:
REMARK  status: ('A' for Active; 'I' for Inactive)
REMARK    1  A    between atoms: C_2  and  C_13
REMARK    2  A    between atoms: N_3  and  C_4
REMARK    3  A    between atoms: C_9  and  C_10
REMARK    4  A    between atoms: C_10  and  O_12
REMARK    5  A    between atoms: C_13  and  N_23
REMARK    6  A    between atoms: C_14  and  C_15
REMARK    7  A    between atoms: C_24  and  C_26
REMARK                            x       y       z     vdW  Elec       q    Type
REMARK                         _______ _______ _______ _____ _____    ______ ____
ROOT
ATOM      1  C   UNL     1       0.509  10.159  19.242  0.00  0.00    +0.000 C 
ATOM      2  C   UNL     1       0.959  10.716  20.377  0.00  0.00    +0.000 C 
ENDROOT
BRANCH   2   3
ATOM      3  C   UNL     1       0.181  11.357  21.443  0.00  0.00    +0.000 A 
ATOM      4  C   UNL     1       0.119  12.761  21.423  0.00  0.00    +0.000 A 
ATOM      5  C   UNL     1      -0.778  13.441  22.249  0.00  0.00    +0.000 A 
ATOM      6  C   UNL     1      -1.609  12.721  23.102  0.00  0.00    +0.000 A 
ATOM      7 CL   UNL     1      -2.768  13.555  24.063  0.00  0.00    +0.000 Cl
ATOM      8  C   UNL     1      -1.528  11.331  23.166  0.00  0.00    +0.000 A 
ATOM      9  C   UNL     1      -0.630  10.650  22.340  0.00  0.00    +0.000 A 
ATOM     10 CL   UNL     1      -0.578   8.926  22.430  0.00  0.00    +0.000 Cl
ENDBRANCH   2   3
BRANCH   1  12
ATOM     11  O   UNL     1       1.925   9.601  17.402  0.00  0.00    +0.000 OA
ATOM     12  C   UNL     1       1.507   9.287  18.515  0.00  0.00    +0.000 C 
ATOM     13  N   UNL     1       1.785   8.069  19.111  0.00  0.00    +0.000 N 
ATOM     14  H   UNL     1       1.151   7.740  19.838  0.00  0.00    +0.000 HD
BRANCH  13  15
ATOM     15  C   UNL     1       2.746   7.178  18.572  0.00  0.00    +0.000 A 
ATOM     16  C   UNL     1       3.598   7.625  17.550  0.00  0.00    +0.000 A 
ATOM     17  C   UNL     1       4.572   6.788  16.996  0.00  0.00    +0.000 A 
ATOM     18  C   UNL     1       4.702   5.481  17.460  0.00  0.00    +0.000 A 
ATOM     19  C   UNL     1       3.871   5.019  18.481  0.00  0.00    +0.000 A 
ATOM     20  C   UNL     1       2.898   5.865  19.044  0.00  0.00    +0.000 A 
BRANCH  20  21
ATOM     21  C   UNL     1       1.999   5.258  20.059  0.00  0.00    +0.000 C 
ATOM     22  O   UNL     1       1.283   4.298  19.830  0.00  0.00    +0.000 OA
BRANCH  21  23
ATOM     23  O   UNL     1       2.014   5.910  21.242  0.00  0.00    +0.000 OA
ATOM     24  H   UNL     1       2.856   5.809  21.730  0.00  0.00    +0.000 HD
ENDBRANCH  21  23
ENDBRANCH  20  21
ENDBRANCH  13  15
ENDBRANCH   1  12
BRANCH   1  25
ATOM     25  N   UNL     1      -0.778  10.295  18.772  0.00  0.00    +0.000 N 
ATOM     26  C   UNL     1      -1.192  11.472  18.150  0.00  0.00    +0.000 C 
ATOM     27  O   UNL     1      -0.476  12.469  18.065  0.00  0.00    +0.000 OA
ATOM     28  H   UNL     1      -1.214   9.477  18.358  0.00  0.00    +0.000 HD
BRANCH  26  29
ATOM     29  C   UNL     1      -2.513  11.385  17.565  0.00  0.00    +0.000 A 
ATOM     30  C   UNL     1      -3.771  11.539  18.116  0.00  0.00    +0.000 A 
ATOM     31  C   UNL     1      -4.704  11.274  17.083  0.00  0.00    +0.000 A 
ATOM     32  C   UNL     1      -3.962  11.000  15.960  0.00  0.00    +0.000 A 
ATOM     33  O   UNL     1      -2.637  11.078  16.234  0.00  0.00    +0.000 OA
ENDBRANCH  26  29
ENDBRANCH   1  25
TORSDOF 7
ENDMDL
MODEL 3
REMARK VINA RESULT:      -7.8      0.834      1.014
REMARK  Name = 
REMARK  7 active torsions:
REMARK  status: ('A' for Active; 'I' for Inactive)
REMARK    1  A    between atoms: C_2  and  C_13
REMARK    2  A    between atoms: N_3  and  C_4
REMARK    3  A    between atoms: C_9  and  C_10
REMARK    4  A    between atoms: C_10  and  O_12
REMARK    5  A    between atoms: C_13  and  N_23
REMARK    6  A    between atoms: C_14  and  C_15
REMARK    7  A    between atoms: C_24  and  C_26
REMARK                            x       y       z     vdW  Elec       q    Type
REMARK                         _______ _______ _______ _____ _____    ______ ____
ROOT
ATOM      1  C   UNL     1       2.749   6.758  18.203  0.00  0.00    +0.000 C 
ATOM      2  C   UNL     1       2.280   8.000  18.399  0.00  0.00    +0.000 C 
ENDROOT
BRANCH   2   3
ATOM      3  C   UNL     1       1.428   8.486  19.490  0.00  0.00    +0.000 A 
ATOM      4  C   UNL     1       1.789   8.102  20.793  0.00  0.00    +0.000 A 
ATOM      5  C   UNL     1       1.182   8.699  21.900  0.00  0.00    +0.000 A 
ATOM      6  C   UNL     1       0.209   9.675  21.708  0.00  0.00    +0.000 A 
ATOM      7 CL   UNL     1      -0.482  10.466  23.072  0.00  0.00    +0.000 Cl
ATOM      8  C   UNL     1      -0.192  10.035  20.423  0.00  0.00    +0.000 A 
ATOM      9  C   UNL     1       0.414   9.437  19.315  0.00  0.00    +0.000 A 
ATOM     10 CL   UNL     1      -0.091   9.930  17.738  0.00  0.00    +0.000 Cl
ENDBRANCH   2   3
BRANCH   1  12
ATOM     11  O   UNL     1       4.292   7.643  16.610  0.00  0.00    +0.000 OA
ATOM     12  C   UNL     1       3.867   6.646  17.193  0.00  0.00    +0.000 C 
ATOM     13  N   UNL     1       4.256   5.358  16.869  0.00  0.00    +0.000 N 
ATOM     14  H   UNL     1       3.636   4.594  17.131  0.00  0.00    +0.000 HD
BRANCH  13  15
ATOM     15  C   UNL     1       5.333   5.105  15.983  0.00  0.00    +0.000 A 
ATOM     16  C   UNL     1       5.059   4.675  14.676  0.00  0.00    +0.000 A 
ATOM     17  C   UNL     1       6.087   4.427  13.760  0.00  0.00    +0.000 A 
ATOM     18  C   UNL     1       7.413   4.602  14.149  0.00  0.00    +0.000 A 
ATOM     19  C   UNL     1       7.707   5.037  15.442  0.00  0.00    +0.000 A 
ATOM     20  C   UNL     1       6.673   5.296  16.358  0.00  0.00    +0.000 A 
BRANCH  20  21
ATOM     21  C   UNL     1       7.085   5.664  17.737  0.00  0.00    +0.000 C 
ATOM     22  O   UNL     1       7.617   6.726  18.015  0.00  0.00    +0.000 OA
BRANCH  21  23
ATOM     23  O   UNL     1       6.863   4.683  18.640  0.00  0.00    +0.000 OA
ATOM     24  H   UNL     1       6.553   3.848  18.237  0.00  0.00    +0.000 HD
ENDBRANCH  21  23
ENDBRANCH  20  21
ENDBRANCH  13  15
ENDBRANCH   1  12
BRANCH   1  25
ATOM     25  N   UNL     1       2.315   5.650  18.896  0.00  0.00    +0.000 N 
ATOM     26  C   UNL     1       3.175   4.956  19.746  0.00  0.00    +0.000 C 
ATOM     27  O   UNL     1       4.368   5.231  19.857  0.00  0.00    +0.000 OA
ATOM     28  H   UNL     1       1.363   5.663  19.252  0.00  0.00    +0.000 HD
BRANCH  26  29
ATOM     29  C   UNL     1       2.516   3.928  20.525  0.00  0.00    +0.000 A 
ATOM     30  C   UNL     1       1.198   3.778  20.915  0.00  0.00    +0.000 A 
ATOM     31  C   UNL     1       1.142   2.616  21.723  0.00  0.00    +0.000 A 
ATOM     32  C   UNL     1       2.420   2.114  21.758  0.00  0.00    +0.000 A 
ATOM     33  O   UNL     1       3.257   2.890  21.026  0.00  0.00    +0.000 OA
ENDBRANCH  26  29
ENDBRANCH   1  25
TORSDOF 7
ENDMDL
MODEL 4
REMARK VINA RESULT:      -7.5      3.261      7.505
REMARK  Name = 
REMARK  7 active torsions:
REMARK  status: ('A' for Active; 'I' for Inactive)
REMARK    1  A    between atoms: C_2  and  C_13
REMARK    2  A    between atoms: N_3  and  C_4
REMARK    3  A    between atoms: C_9  and  C_10
REMARK    4  A    between atoms: C_10  and  O_12
REMARK    5  A    between atoms: C_13  and  N_23
REMARK    6  A    between atoms: C_14  and  C_15
REMARK    7  A    between atoms: C_24  and  C_26
REMARK                            x       y       z     vdW  Elec       q    Type
REMARK                         _______ _______ _______ _____ _____    ______ ____
ROOT
ATOM      1  C   UNL     1       2.551   7.301  18.054  0.00  0.00    +0.000 C 
ATOM      2  C   UNL     1       1.763   6.221  17.934  0.00  0.00    +0.000 C 
ENDROOT
BRANCH   2   3
ATOM      3  C   UNL     1       2.089   4.823  18.239  0.00  0.00    +0.000 A 
ATOM      4  C   UNL     1       2.436   4.004  17.151  0.00  0.00    +0.000 A 
ATOM      5  C   UNL     1       2.981   2.736  17.366  0.00  0.00    +0.000 A 
ATOM      6  C   UNL     1       3.173   2.281  18.667  0.00  0.00    +0.000 A 
ATOM      7 CL   UNL     1       3.916   0.752  18.932  0.00  0.00    +0.000 Cl
ATOM      8  C   UNL     1       2.793   3.064  19.756  0.00  0.00    +0.000 A 
ATOM      9  C   UNL     1       2.246   4.332  19.541  0.00  0.00    +0.000 A 
ATOM     10 CL   UNL     1       1.813   5.282  20.917  0.00  0.00    +0.000 Cl
ENDBRANCH   2   3
BRANCH   1  12
ATOM     11  O   UNL     1       2.291   9.562  17.332  0.00  0.00    +0.000 OA
ATOM     12  C   UNL     1       1.833   8.629  17.990  0.00  0.00    +0.000 C 
ATOM     13  N   UNL     1       0.739   8.761  18.828  0.00  0.00    +0.000 N 
ATOM     14  H   UNL     1       0.631   8.081  19.578  0.00  0.00    +0.000 HD
BRANCH  13  15
ATOM     15  C   UNL     1      -0.064   9.928  18.827  0.00  0.00    +0.000 A 
ATOM     16  C   UNL     1      -0.959  10.144  17.768  0.00  0.00    +0.000 A 
ATOM     17  C   UNL     1      -1.783  11.274  17.729  0.00  0.00    +0.000 A 
ATOM     18  C   UNL     1      -1.715  12.211  18.757  0.00  0.00    +0.000 A 
ATOM     19  C   UNL     1      -0.838  12.012  19.824  0.00  0.00    +0.000 A 
ATOM     20  C   UNL     1      -0.017  10.871  19.866  0.00  0.00    +0.000 A 
BRANCH  20  21
ATOM     21  C   UNL     1       0.950  10.791  20.991  0.00  0.00    +0.000 C 
ATOM     22  O   UNL     1       1.179   9.763  21.604  0.00  0.00    +0.000 OA
BRANCH  21  23
ATOM     23  O   UNL     1       1.505  11.983  21.302  0.00  0.00    +0.000 OA
ATOM     24  H   UNL     1       2.054  12.355  20.583  0.00  0.00    +0.000 HD
ENDBRANCH  21  23
ENDBRANCH  20  21
ENDBRANCH  13  15
ENDBRANCH   1  12
BRANCH   1  25
ATOM     25  N   UNL     1       3.907   7.246  18.282  0.00  0.00    +0.000 N 
ATOM     26  C   UNL     1       4.800   7.015  17.236  0.00  0.00    +0.000 C 
ATOM     27  O   UNL     1       4.433   6.765  16.089  0.00  0.00    +0.000 OA
ATOM     28  H   UNL     1       4.293   7.885  18.972  0.00  0.00    +0.000 HD
BRANCH  26  29
ATOM     29  C   UNL     1       6.189   7.161  17.616  0.00  0.00    +0.000 A 
ATOM     30  C   UNL     1       7.027   6.346  18.354  0.00  0.00    +0.000 A 
ATOM     31  C   UNL     1       8.264   7.027  18.465  0.00  0.00    +0.000 A 
ATOM     32  C   UNL     1       8.116   8.202  17.770  0.00  0.00    +0.000 A 
ATOM     33  O   UNL     1       6.872   8.289  17.240  0.00  0.00    +0.000 OA
ENDBRANCH  26  29
ENDBRANCH   1  25
TORSDOF 7
ENDMDL
MODEL 5
REMARK VINA RESULT:      -7.4      5.675     10.277
REMARK  Name = 
REMARK  7 active torsions:
REMARK  status: ('A' for Active; 'I' for Inactive)
REMARK    1  A    between atoms: C_2  and  C_13
REMARK    2  A    between atoms: N_3  and  C_4
REMARK    3  A    between atoms: C_9  and  C_10
REMARK    4  A    between atoms: C_10  and  O_12
REMARK    5  A    between atoms: C_13  and  N_23
REMARK    6  A    between atoms: C_14  and  C_15
REMARK    7  A    between atoms: C_24  and  C_26
REMARK                            x       y       z     vdW  Elec       q    Type
REMARK                         _______ _______ _______ _____ _____    ______ ____
ROOT
ATOM      1  C   UNL     1      -1.484  11.715  20.420  0.00  0.00    +0.000 C 
ATOM      2  C   UNL     1      -2.362  12.349  19.627  0.00  0.00    +0.000 C 
ENDROOT
BRANCH   2   3
ATOM      3  C   UNL     1      -2.889  11.914  18.328  0.00  0.00    +0.000 A 
ATOM      4  C   UNL     1      -1.947  11.671  17.314  0.00  0.00    +0.000 A 
ATOM      5  C   UNL     1      -2.330  11.038  16.129  0.00  0.00    +0.000 A 
ATOM      6  C   UNL     1      -3.656  10.654  15.952  0.00  0.00    +0.000 A 
ATOM      7 CL   UNL     1      -4.111   9.805  14.526  0.00  0.00    +0.000 Cl
ATOM      8  C   UNL     1      -4.611  10.928  16.930  0.00  0.00    +0.000 A 
ATOM      9  C   UNL     1      -4.228  11.563  18.115  0.00  0.00    +0.000 A 
ATOM     10 CL   UNL     1      -5.436  11.860  19.313  0.00  0.00    +0.000 Cl
ENDBRANCH   2   3
BRANCH   1  12
ATOM     11  O   UNL     1      -0.764  11.635  22.695  0.00  0.00    +0.000 OA
ATOM     12  C   UNL     1      -1.400  12.242  21.833  0.00  0.00    +0.000 C 
ATOM     13  N   UNL     1      -2.195  13.339  22.113  0.00  0.00    +0.000 N 
ATOM     14  H   UNL     1      -2.938  13.568  21.455  0.00  0.00    +0.000 HD
BRANCH  13  15
ATOM     15  C   UNL     1      -2.169  13.975  23.380  0.00  0.00    +0.000 A 
ATOM     16  C   UNL     1      -1.146  14.892  23.666  0.00  0.00    +0.000 A 
ATOM     17  C   UNL     1      -1.085  15.555  24.895  0.00  0.00    +0.000 A 
ATOM     18  C   UNL     1      -2.055  15.301  25.864  0.00  0.00    +0.000 A 
ATOM     19  C   UNL     1      -3.085  14.399  25.597  0.00  0.00    +0.000 A 
ATOM     20  C   UNL     1      -3.150  13.740  24.356  0.00  0.00    +0.000 A 
BRANCH  20  21
ATOM     21  C   UNL     1      -4.228  12.730  24.198  0.00  0.00    +0.000 C 
ATOM     22  O   UNL     1      -4.693  12.412  23.117  0.00  0.00    +0.000 OA
BRANCH  21  23
ATOM     23  O   UNL     1      -4.679  12.242  25.375  0.00  0.00    +0.000 OA
ATOM     24  H   UNL     1      -4.125  11.519  25.732  0.00  0.00    +0.000 HD
ENDBRANCH  21  23
ENDBRANCH  20  21
ENDBRANCH  13  15
ENDBRANCH   1  12
BRANCH   1  25
ATOM     25  N   UNL     1      -0.743  10.621  20.032  0.00  0.00    +0.000 N 
ATOM     26  C   UNL     1       0.544  10.776  19.518  0.00  0.00    +0.000 C 
ATOM     27  O   UNL     1       1.049  11.876  19.302  0.00  0.00    +0.000 OA
ATOM     28  H   UNL     1      -0.827   9.777  20.590  0.00  0.00    +0.000 HD
BRANCH  26  29
ATOM     29  C   UNL     1       1.245   9.523  19.324  0.00  0.00    +0.000 A 
ATOM     30  C   UNL     1       1.850   8.976  18.209  0.00  0.00    +0.000 A 
ATOM     31  C   UNL     1       2.320   7.694  18.588  0.00  0.00    +0.000 A 
ATOM     32  C   UNL     1       1.996   7.546  19.914  0.00  0.00    +0.000 A 
ATOM     33  O   UNL     1       1.359   8.650  20.375  0.00  0.00    +0.000 OA
ENDBRANCH  26  29
ENDBRANCH   1  25
TORSDOF 7
ENDMDL
MODEL 6
REMARK VINA RESULT:      -7.4      3.310      7.634
REMARK  Name = 
REMARK  7 active torsions:
REMARK  status: ('A' for Active; 'I' for Inactive)
REMARK    1  A    between atoms: C_2  and  C_13
REMARK    2  A    between atoms: N_3  and  C_4
REMARK    3  A    between atoms: C_9  and  C_10
REMARK    4  A    between atoms: C_10  and  O_12
REMARK    5  A    between atoms: C_13  and  N_23
REMARK    6  A    between atoms: C_14  and  C_15
REMARK    7  A    between atoms: C_24  and  C_26
REMARK                            x       y       z     vdW  Elec       q    Type
REMARK                         _______ _______ _______ _____ _____    ______ ____
ROOT
ATOM      1  C   UNL     1       2.590   7.079  18.319  0.00  0.00    +0.000 C 
ATOM      2  C   UNL     1       1.811   5.995  18.179  0.00  0.00    +0.000 C 
ENDROOT
BRANCH   2   3
ATOM      3  C   UNL     1       2.171   4.587  18.384  0.00  0.00    +0.000 A 
ATOM      4  C   UNL     1       2.505   3.848  17.236  0.00  0.00    +0.000 A 
ATOM      5  C   UNL     1       3.079   2.580  17.354  0.00  0.00    +0.000 A 
ATOM      6  C   UNL     1       3.315   2.046  18.618  0.00  0.00    +0.000 A 
ATOM      7 CL   UNL     1       4.094   0.518  18.763  0.00  0.00    +0.000 Cl
ATOM      8  C   UNL     1       2.949   2.749  19.764  0.00  0.00    +0.000 A 
ATOM      9  C   UNL     1       2.372   4.017  19.647  0.00  0.00    +0.000 A 
ATOM     10 CL   UNL     1       1.958   4.866  21.093  0.00  0.00    +0.000 Cl
ENDBRANCH   2   3
BRANCH   1  12
ATOM     11  O   UNL     1       1.959   9.216  17.461  0.00  0.00    +0.000 OA
ATOM     12  C   UNL     1       1.852   8.397  18.372  0.00  0.00    +0.000 C 
ATOM     13  N   UNL     1       1.193   8.668  19.559  0.00  0.00    +0.000 N 
ATOM     14  H   UNL     1       1.432   8.107  20.374  0.00  0.00    +0.000 HD
BRANCH  13  15
ATOM     15  C   UNL     1       0.410   9.838  19.726  0.00  0.00    +0.000 A 
ATOM     16  C   UNL     1       0.009  10.562  18.592  0.00  0.00    +0.000 A 
ATOM     17  C   UNL     1      -0.776  11.714  18.704  0.00  0.00    +0.000 A 
ATOM     18  C   UNL     1      -1.166  12.162  19.965  0.00  0.00    +0.000 A 
ATOM     19  C   UNL     1      -0.784  11.453  21.104  0.00  0.00    +0.000 A 
ATOM     20  C   UNL     1      -0.003  10.289  20.989  0.00  0.00    +0.000 A 
BRANCH  20  21
ATOM     21  C   UNL     1       0.432   9.655  22.260  0.00  0.00    +0.000 C 
ATOM     22  O   UNL     1       1.602   9.475  22.551  0.00  0.00    +0.000 OA
BRANCH  21  23
ATOM     23  O   UNL     1      -0.599   9.247  23.032  0.00  0.00    +0.000 OA
ATOM     24  H   UNL     1      -0.441   9.376  23.989  0.00  0.00    +0.000 HD
ENDBRANCH  21  23
ENDBRANCH  20  21
ENDBRANCH  13  15
ENDBRANCH   1  12
BRANCH   1  25
ATOM     25  N   UNL     1       3.957   7.033  18.470  0.00  0.00    +0.000 N 
ATOM     26  C   UNL     1       4.797   6.959  17.360  0.00  0.00    +0.000 C 
ATOM     27  O   UNL     1       4.375   6.843  16.210  0.00  0.00    +0.000 OA
ATOM     28  H   UNL     1       4.365   7.591  19.215  0.00  0.00    +0.000 HD
BRANCH  26  29
ATOM     29  C   UNL     1       6.202   7.094  17.685  0.00  0.00    +0.000 A 
ATOM     30  C   UNL     1       7.053   6.291  18.422  0.00  0.00    +0.000 A 
ATOM     31  C   UNL     1       8.304   6.954  18.464  0.00  0.00    +0.000 A 
ATOM     32  C   UNL     1       8.150   8.107  17.733  0.00  0.00    +0.000 A 
ATOM     33  O   UNL     1       6.888   8.196  17.245  0.00  0.00    +0.000 OA
ENDBRANCH  26  29
ENDBRANCH   1  25
TORSDOF 7
ENDMDL
MODEL 7
REMARK VINA RESULT:      -7.1      3.853      6.857
REMARK  Name = 
REMARK  7 active torsions:
REMARK  status: ('A' for Active; 'I' for Inactive)
REMARK    1  A    between atoms: C_2  and  C_13
REMARK    2  A    between atoms: N_3  and  C_4
REMARK    3  A    between atoms: C_9  and  C_10
REMARK    4  A    between atoms: C_10  and  O_12
REMARK    5  A    between atoms: C_13  and  N_23
REMARK    6  A    between atoms: C_14  and  C_15
REMARK    7  A    between atoms: C_24  and  C_26
REMARK                            x       y       z     vdW  Elec       q    Type
REMARK                         _______ _______ _______ _____ _____    ______ ____
ROOT
ATOM      1  C   UNL     1       1.072  10.394  18.074  0.00  0.00    +0.000 C 
ATOM      2  C   UNL     1      -0.158   9.863  18.157  0.00  0.00    +0.000 C 
ENDROOT
BRANCH   2   3
ATOM      3  C   UNL     1      -1.448  10.523  17.927  0.00  0.00    +0.000 A 
ATOM      4  C   UNL     1      -2.079  10.267  16.698  0.00  0.00    +0.000 A 
ATOM      5  C   UNL     1      -3.402  10.660  16.487  0.00  0.00    +0.000 A 
ATOM      6  C   UNL     1      -4.096  11.315  17.500  0.00  0.00    +0.000 A 
ATOM      7 CL   UNL     1      -5.750  11.729  17.268  0.00  0.00    +0.000 Cl
ATOM      8  C   UNL     1      -3.470  11.615  18.709  0.00  0.00    +0.000 A 
ATOM      9  C   UNL     1      -2.145  11.224  18.920  0.00  0.00    +0.000 A 
ATOM     10 CL   UNL     1      -1.414  11.591  20.441  0.00  0.00    +0.000 Cl
ENDBRANCH   2   3
BRANCH   1  12
ATOM     11  O   UNL     1       3.321   9.721  17.639  0.00  0.00    +0.000 OA
ATOM     12  C   UNL     1       2.202   9.392  18.030  0.00  0.00    +0.000 C 
ATOM     13  N   UNL     1       1.853   8.082  18.306  0.00  0.00    +0.000 N 
ATOM     14  H   UNL     1       0.864   7.838  18.283  0.00  0.00    +0.000 HD
BRANCH  13  15
ATOM     15  C   UNL     1       2.822   7.048  18.361  0.00  0.00    +0.000 A 
ATOM     16  C   UNL     1       3.772   6.944  17.333  0.00  0.00    +0.000 A 
ATOM     17  C   UNL     1       4.756   5.951  17.350  0.00  0.00    +0.000 A 
ATOM     18  C   UNL     1       4.797   5.039  18.402  0.00  0.00    +0.000 A 
ATOM     19  C   UNL     1       3.867   5.130  19.438  0.00  0.00    +0.000 A 
ATOM     20  C   UNL     1       2.883   6.135  19.425  0.00  0.00    +0.000 A 
BRANCH  20  21
ATOM     21  C   UNL     1       1.881   6.095  20.520  0.00  0.00    +0.000 C 
ATOM     22  O   UNL     1       1.216   5.108  20.783  0.00  0.00    +0.000 OA
BRANCH  21  23
ATOM     23  O   UNL     1       1.740   7.279  21.157  0.00  0.00    +0.000 OA
ATOM     24  H   UNL     1       1.879   7.219  22.123  0.00  0.00    +0.000 HD
ENDBRANCH  21  23
ENDBRANCH  20  21
ENDBRANCH  13  15
ENDBRANCH   1  12
BRANCH   1  25
ATOM     25  N   UNL     1       1.325  11.744  17.970  0.00  0.00    +0.000 N 
ATOM     26  C   UNL     1       1.715  12.485  19.084  0.00  0.00    +0.000 C 
ATOM     27  O   UNL     1       1.770  12.010  20.217  0.00  0.00    +0.000 OA
ATOM     28  H   UNL     1       1.777  12.071  17.122  0.00  0.00    +0.000 HD
BRANCH  26  29
ATOM     29  C   UNL     1       2.108  13.843  18.768  0.00  0.00    +0.000 A 
ATOM     30  C   UNL     1       1.448  15.047  18.927  0.00  0.00    +0.000 A 
ATOM     31  C   UNL     1       2.288  16.048  18.378  0.00  0.00    +0.000 A 
ATOM     32  C   UNL     1       3.417  15.400  17.940  0.00  0.00    +0.000 A 
ATOM     33  O   UNL     1       3.327  14.069  18.183  0.00  0.00    +0.000 OA
ENDBRANCH  26  29
ENDBRANCH   1  25
TORSDOF 7
ENDMDL
MODEL 8
REMARK VINA RESULT:      -7.1      5.497      9.018
REMARK  Name = 
REMARK  7 active torsions:
REMARK  status: ('A' for Active; 'I' for Inactive)
REMARK    1  A    between atoms: C_2  and  C_13
REMARK    2  A    between atoms: N_3  and  C_4
REMARK    3  A    between atoms: C_9  and  C_10
REMARK    4  A    between atoms: C_10  and  O_12
REMARK    5  A    between atoms: C_13  and  N_23
REMARK    6  A    between atoms: C_14  and  C_15
REMARK    7  A    between atoms: C_24  and  C_26
REMARK                            x       y       z     vdW  Elec       q    Type
REMARK                         _______ _______ _______ _____ _____    ______ ____
ROOT
ATOM      1  C   UNL     1       0.645  11.816  18.898  0.00  0.00    +0.000 C 
ATOM      2  C   UNL     1       1.449  10.947  19.530  0.00  0.00    +0.000 C 
ENDROOT
BRANCH   2   3
ATOM      3  C   UNL     1       1.604   9.509  19.281  0.00  0.00    +0.000 A 
ATOM      4  C   UNL     1       2.075   9.135  18.011  0.00  0.00    +0.000 A 
ATOM      5  C   UNL     1       2.471   7.819  17.763  0.00  0.00    +0.000 A 
ATOM      6  C   UNL     1       2.391   6.873  18.781  0.00  0.00    +0.000 A 
ATOM      7 CL   UNL     1       2.953   5.271  18.498  0.00  0.00    +0.000 Cl
ATOM      8  C   UNL     1       1.885   7.218  20.033  0.00  0.00    +0.000 A 
ATOM      9  C   UNL     1       1.487   8.535  20.281  0.00  0.00    +0.000 A 
ATOM     10 CL   UNL     1       0.890   8.928  21.853  0.00  0.00    +0.000 Cl
ENDBRANCH   2   3
BRANCH   1  12
ATOM     11  O   UNL     1       0.204  14.157  18.733  0.00  0.00    +0.000 OA
ATOM     12  C   UNL     1       0.955  13.274  19.145  0.00  0.00    +0.000 C 
ATOM     13  N   UNL     1       2.189  13.537  19.716  0.00  0.00    +0.000 N 
ATOM     14  H   UNL     1       2.882  12.791  19.712  0.00  0.00    +0.000 HD
BRANCH  13  15
ATOM     15  C   UNL     1       2.585  14.853  20.060  0.00  0.00    +0.000 A 
ATOM     16  C   UNL     1       2.224  15.373  21.313  0.00  0.00    +0.000 A 
ATOM     17  C   UNL     1       2.603  16.660  21.704  0.00  0.00    +0.000 A 
ATOM     18  C   UNL     1       3.352  17.452  20.836  0.00  0.00    +0.000 A 
ATOM     19  C   UNL     1       3.729  16.952  19.589  0.00  0.00    +0.000 A 
ATOM     20  C   UNL     1       3.354  15.653  19.201  0.00  0.00    +0.000 A 
BRANCH  20  21
ATOM     21  C   UNL     1       3.721  15.242  17.821  0.00  0.00    +0.000 C 
ATOM     22  O   UNL     1       3.426  15.888  16.830  0.00  0.00    +0.000 OA
BRANCH  21  23
ATOM     23  O   UNL     1       4.364  14.054  17.771  0.00  0.00    +0.000 OA
ATOM     24  H   UNL     1       4.634  13.723  18.651  0.00  0.00    +0.000 HD
ENDBRANCH  21  23
ENDBRANCH  20  21
ENDBRANCH  13  15
ENDBRANCH   1  12
BRANCH   1  25
ATOM     25  N   UNL     1      -0.358  11.449  18.029  0.00  0.00    +0.000 N 
ATOM     26  C   UNL     1      -1.679  11.348  18.464  0.00  0.00    +0.000 C 
ATOM     27  O   UNL     1      -2.007  11.490  19.641  0.00  0.00    +0.000 OA
ATOM     28  H   UNL     1      -0.301  11.794  17.075  0.00  0.00    +0.000 HD
BRANCH  26  29
ATOM     29  C   UNL     1      -2.627  11.123  17.393  0.00  0.00    +0.000 A 
ATOM     30  C   UNL     1      -2.492  10.501  16.166  0.00  0.00    +0.000 A 
ATOM     31  C   UNL     1      -3.735  10.636  15.501  0.00  0.00    +0.000 A 
ATOM     32  C   UNL     1      -4.560  11.310  16.369  0.00  0.00    +0.000 A 
ATOM     33  O   UNL     1      -3.907  11.597  17.521  0.00  0.00    +0.000 OA
ENDBRANCH  26  29
ENDBRANCH   1  25
TORSDOF 7
ENDMDL
MODEL 9
REMARK VINA RESULT:      -7.1      5.483      9.302
REMARK  Name = 
REMARK  7 active torsions:
REMARK  status: ('A' for Active; 'I' for Inactive)
REMARK    1  A    between atoms: C_2  and  C_13
REMARK    2  A    between atoms: N_3  and  C_4
REMARK    3  A    between atoms: C_9  and  C_10
REMARK    4  A    between atoms: C_10  and  O_12
REMARK    5  A    between atoms: C_13  and  N_23
REMARK    6  A    between atoms: C_14  and  C_15
REMARK    7  A    between atoms: C_24  and  C_26
REMARK                            x       y       z     vdW  Elec       q    Type
REMARK                         _______ _______ _______ _____ _____    ______ ____
ROOT
ATOM      1  C   UNL     1       0.239  11.658  19.088  0.00  0.00    +0.000 C 
ATOM      2  C   UNL     1       1.062  10.825  19.744  0.00  0.00    +0.000 C 
ENDROOT
BRANCH   2   3
ATOM      3  C   UNL     1       1.432   9.450  19.390  0.00  0.00    +0.000 A 
ATOM      4  C   UNL     1       1.947   9.247  18.098  0.00  0.00    +0.000 A 
ATOM      5  C   UNL     1       2.536   8.028  17.755  0.00  0.00    +0.000 A 
ATOM      6  C   UNL     1       2.606   7.008  18.699  0.00  0.00    +0.000 A 
ATOM      7 CL   UNL     1       3.402   5.535  18.301  0.00  0.00    +0.000 Cl
ATOM      8  C   UNL     1       2.061   7.179  19.970  0.00  0.00    +0.000 A 
ATOM      9  C   UNL     1       1.469   8.398  20.314  0.00  0.00    +0.000 A 
ATOM     10 CL   UNL     1       0.829   8.578  21.907  0.00  0.00    +0.000 Cl
ENDBRANCH   2   3
BRANCH   1  12
ATOM     11  O   UNL     1       0.225  13.428  20.690  0.00  0.00    +0.000 OA
ATOM     12  C   UNL     1       0.324  13.107  19.507  0.00  0.00    +0.000 C 
ATOM     13  N   UNL     1       0.364  14.029  18.475  0.00  0.00    +0.000 N 
ATOM     14  H   UNL     1       0.100  13.711  17.544  0.00  0.00    +0.000 HD
BRANCH  13  15
ATOM     15  C   UNL     1       0.507  15.417  18.720  0.00  0.00    +0.000 A 
ATOM     16  C   UNL     1      -0.628  16.175  19.049  0.00  0.00    +0.000 A 
ATOM     17  C   UNL     1      -0.537  17.545  19.314  0.00  0.00    +0.000 A 
ATOM     18  C   UNL     1       0.702  18.179  19.247  0.00  0.00    +0.000 A 
ATOM     19  C   UNL     1       1.844  17.442  18.930  0.00  0.00    +0.000 A 
ATOM     20  C   UNL     1       1.752  16.063  18.673  0.00  0.00    +0.000 A 
BRANCH  20  21
ATOM     21  C   UNL     1       3.004  15.382  18.253  0.00  0.00    +0.000 C 
ATOM     22  O   UNL     1       3.538  15.570  17.174  0.00  0.00    +0.000 OA
BRANCH  21  23
ATOM     23  O   UNL     1       3.458  14.492  19.163  0.00  0.00    +0.000 OA
ATOM     24  H   UNL     1       3.945  13.743  18.764  0.00  0.00    +0.000 HD
ENDBRANCH  21  23
ENDBRANCH  20  21
ENDBRANCH  13  15
ENDBRANCH   1  12
BRANCH   1  25
ATOM     25  N   UNL     1      -0.592  11.271  18.060  0.00  0.00    +0.000 N 
ATOM     26  C   UNL     1      -1.977  11.280  18.219  0.00  0.00    +0.000 C 
ATOM     27  O   UNL     1      -2.525  11.541  19.289  0.00  0.00    +0.000 OA
ATOM     28  H   UNL     1      -0.320  11.528  17.116  0.00  0.00    +0.000 HD
BRANCH  26  29
ATOM     29  C   UNL     1      -2.703  11.014  16.995  0.00  0.00    +0.000 A 
ATOM     30  C   UNL     1      -3.964  11.395  16.577  0.00  0.00    +0.000 A 
ATOM     31  C   UNL     1      -4.176  10.787  15.315  0.00  0.00    +0.000 A 
ATOM     32  C   UNL     1      -3.027  10.093  15.028  0.00  0.00    +0.000 A 
ATOM     33  O   UNL     1      -2.123  10.234  16.028  0.00  0.00    +0.000 OA
ENDBRANCH  26  29
ENDBRANCH   1  25
TORSDOF 7
ENDMDL
