MODEL 1
REMARK VINA RESULT:      -7.4      0.000      0.000
REMARK  Name = 
REMARK  9 active torsions:
REMARK  status: ('A' for Active; 'I' for Inactive)
REMARK    1  A    between atoms: C_2  and  C_3
REMARK    2  A    between atoms: N_5  and  C_6
REMARK    3  A    between atoms: C_6  and  C_7
REMARK    4  A    between atoms: C_7  and  C_8
REMARK    5  A    between atoms: C_7  and  C_9
REMARK    6  A    between atoms: C_12  and  C_13
REMARK    7  A    between atoms: C_13  and  C_14
REMARK    8  A    between atoms: C_14  and  C_15
REMARK    9  A    between atoms: C_15  and  C_17
REMARK                            x       y       z     vdW  Elec       q    Type
REMARK                         _______ _______ _______ _____ _____    ______ ____
ROOT
ATOM      1  C   UNL     1       2.428   8.938  17.743  0.00  0.00    +0.000 C 
ENDROOT
BRANCH   1   7
ATOM      2  C   UNL     1       3.256   6.506  17.453  0.00  0.00    +0.000 C 
ATOM      3  C   UNL     1       2.967   5.077  17.981  0.00  0.00    +0.000 C 
ATOM      4  N   UNL     1       3.135   4.980  19.449  0.00  0.00    +0.000 NA
ATOM      5  C   UNL     1       2.200   5.907  20.118  0.00  0.00    +0.000 C 
ATOM      6  C   UNL     1       2.409   7.349  19.675  0.00  0.00    +0.000 C 
ATOM      7  C   UNL     1       2.279   7.473  18.162  0.00  0.00    +0.000 C 
BRANCH   2   9
ATOM      8  C   UNL     1       5.767   6.149  17.703  0.00  0.00    +0.000 C 
ATOM      9  C   UNL     1       4.705   6.948  17.589  0.00  0.00    +0.000 C 
ENDBRANCH   2   9
BRANCH   4  10
ATOM     10  C   UNL     1       2.939   3.594  19.920  0.00  0.00    +0.000 C 
BRANCH  10  11
ATOM     11  C   UNL     1       1.476   3.190  20.266  0.00  0.00    +0.000 C 
ATOM     12  C   UNL     1       0.771   2.263  19.266  0.00  0.00    +0.000 C 
ATOM     13  C   UNL     1       1.454   2.495  21.628  0.00  0.00    +0.000 C 
ENDBRANCH  10  11
ENDBRANCH   4  10
ENDBRANCH   1   7
BRANCH   1  14
ATOM     14  C   UNL     1       1.115   9.649  17.999  0.00  0.00    +0.000 C 
BRANCH  14  15
ATOM     15  C   UNL     1       1.313  11.038  18.571  0.00  0.00    +0.000 C 
ATOM     16  O   UNL     1       2.229  11.757  18.254  0.00  0.00    +0.000 OA
BRANCH  15  17
ATOM     17  C   UNL     1       0.290  11.496  19.558  0.00  0.00    +0.000 A 
ATOM     18  C   UNL     1      -0.540  12.538  19.143  0.00  0.00    +0.000 A 
ATOM     19  C   UNL     1      -1.510  12.964  20.006  0.00  0.00    +0.000 A 
ATOM     20  N   UNL     1      -1.704  12.426  21.221  0.00  0.00    +0.000 NA
ATOM     21  C   UNL     1      -0.909  11.419  21.624  0.00  0.00    +0.000 A 
ATOM     22  C   UNL     1      -1.149  10.870  22.879  0.00  0.00    +0.000 A 
ATOM     23  C   UNL     1      -0.410   9.800  23.383  0.00  0.00    +0.000 A 
ATOM     24  C   UNL     1       0.637   9.285  22.640  0.00  0.00    +0.000 A 
ATOM     25  C   UNL     1       0.940   9.858  21.404  0.00  0.00    +0.000 A 
ATOM     26  C   UNL     1       0.142  10.900  20.841  0.00  0.00    +0.000 A 
ENDBRANCH  15  17
ENDBRANCH  14  15
ENDBRANCH   1  14
TORSDOF 7
ENDMDL
MODEL 2
REMARK VINA RESULT:      -7.3      2.052      8.042
REMARK  Name = 
REMARK  9 active torsions:
REMARK  status: ('A' for Active; 'I' for Inactive)
REMARK    1  A    between atoms: C_2  and  C_3
REMARK    2  A    between atoms: N_5  and  C_6
REMARK    3  A    between atoms: C_6  and  C_7
REMARK    4  A    between atoms: C_7  and  C_8
REMARK    5  A    between atoms: C_7  and  C_9
REMARK    6  A    between atoms: C_12  and  C_13
REMARK    7  A    between atoms: C_13  and  C_14
REMARK    8  A    between atoms: C_14  and  C_15
REMARK    9  A    between atoms: C_15  and  C_17
REMARK                            x       y       z     vdW  Elec       q    Type
REMARK                         _______ _______ _______ _____ _____    ______ ____
ROOT
ATOM      1  C   UNL     1       0.736   9.015  17.819  0.00  0.00    +0.000 C 
ENDROOT
BRANCH   1   7
ATOM      2  C   UNL     1      -1.007  10.912  18.040  0.00  0.00    +0.000 C 
ATOM      3  C   UNL     1      -1.361  12.104  18.966  0.00  0.00    +0.000 C 
ATOM      4  N   UNL     1      -1.628  11.669  20.357  0.00  0.00    +0.000 NA
ATOM      5  C   UNL     1      -0.429  11.008  20.909  0.00  0.00    +0.000 C 
ATOM      6  C   UNL     1      -0.001   9.809  20.073  0.00  0.00    +0.000 C 
ATOM      7  C   UNL     1       0.245  10.220  18.627  0.00  0.00    +0.000 C 
BRANCH   2   9
ATOM      8  C   UNL     1      -3.397  10.250  17.454  0.00  0.00    +0.000 C 
ATOM      9  C   UNL     1      -2.149   9.935  17.803  0.00  0.00    +0.000 C 
ENDBRANCH   2   9
BRANCH   4  10
ATOM     10  C   UNL     1      -2.046  12.806  21.202  0.00  0.00    +0.000 C 
BRANCH  10  11
ATOM     11  C   UNL     1      -1.774  12.661  22.727  0.00  0.00    +0.000 C 
ATOM     12  C   UNL     1      -1.236  13.905  23.446  0.00  0.00    +0.000 C 
ATOM     13  C   UNL     1      -3.068  12.249  23.432  0.00  0.00    +0.000 C 
ENDBRANCH  10  11
ENDBRANCH   4  10
ENDBRANCH   1   7
BRANCH   1  14
ATOM     14  C   UNL     1       2.220   8.838  18.070  0.00  0.00    +0.000 C 
BRANCH  14  15
ATOM     15  C   UNL     1       2.530   7.549  18.802  0.00  0.00    +0.000 C 
ATOM     16  O   UNL     1       2.228   7.355  19.954  0.00  0.00    +0.000 OA
BRANCH  15  17
ATOM     17  C   UNL     1       3.233   6.495  18.011  0.00  0.00    +0.000 A 
ATOM     18  C   UNL     1       4.350   6.913  17.287  0.00  0.00    +0.000 A 
ATOM     19  C   UNL     1       5.039   5.971  16.576  0.00  0.00    +0.000 A 
ATOM     20  N   UNL     1       4.698   4.673  16.546  0.00  0.00    +0.000 NA
ATOM     21  C   UNL     1       3.623   4.264  17.245  0.00  0.00    +0.000 A 
ATOM     22  C   UNL     1       3.308   2.911  17.210  0.00  0.00    +0.000 A 
ATOM     23  C   UNL     1       2.238   2.372  17.925  0.00  0.00    +0.000 A 
ATOM     24  C   UNL     1       1.420   3.209  18.661  0.00  0.00    +0.000 A 
ATOM     25  C   UNL     1       1.675   4.581  18.663  0.00  0.00    +0.000 A 
ATOM     26  C   UNL     1       2.814   5.135  18.002  0.00  0.00    +0.000 A 
ENDBRANCH  15  17
ENDBRANCH  14  15
ENDBRANCH   1  14
TORSDOF 7
ENDMDL
MODEL 3
REMARK VINA RESULT:      -7.3      0.991      2.106
REMARK  Name = 
REMARK  9 active torsions:
REMARK  status: ('A' for Active; 'I' for Inactive)
REMARK    1  A    between atoms: C_2  and  C_3
REMARK    2  A    between atoms: N_5  and  C_6
REMARK    3  A    between atoms: C_6  and  C_7
REMARK    4  A    between atoms: C_7  and  C_8
REMARK    5  A    between atoms: C_7  and  C_9
REMARK    6  A    between atoms: C_12  and  C_13
REMARK    7  A    between atoms: C_13  and  C_14
REMARK    8  A    between atoms: C_14  and  C_15
REMARK    9  A    between atoms: C_15  and  C_17
REMARK                            x       y       z     vdW  Elec       q    Type
REMARK                         _______ _______ _______ _____ _____    ______ ____
ROOT
ATOM      1  C   UNL     1       2.104   9.082  17.917  0.00  0.00    +0.000 C 
ENDROOT
BRANCH   1   7
ATOM      2  C   UNL     1       3.010   6.700  17.479  0.00  0.00    +0.000 C 
ATOM      3  C   UNL     1       2.802   5.239  17.955  0.00  0.00    +0.000 C 
ATOM      4  N   UNL     1       3.043   5.086  19.408  0.00  0.00    +0.000 NA
ATOM      5  C   UNL     1       2.108   5.944  20.161  0.00  0.00    +0.000 C 
ATOM      6  C   UNL     1       2.240   7.411  19.774  0.00  0.00    +0.000 C 
ATOM      7  C   UNL     1       2.032   7.595  18.276  0.00  0.00    +0.000 C 
BRANCH   2   9
ATOM      8  C   UNL     1       5.508   6.642  16.979  0.00  0.00    +0.000 C 
ATOM      9  C   UNL     1       4.446   7.194  17.567  0.00  0.00    +0.000 C 
ENDBRANCH   2   9
BRANCH   4  10
ATOM     10  C   UNL     1       2.924   3.674  19.824  0.00  0.00    +0.000 C 
BRANCH  10  11
ATOM     11  C   UNL     1       1.497   3.196  20.221  0.00  0.00    +0.000 C 
ATOM     12  C   UNL     1       0.798   2.245  19.240  0.00  0.00    +0.000 C 
ATOM     13  C   UNL     1       1.560   2.489  21.576  0.00  0.00    +0.000 C 
ENDBRANCH  10  11
ENDBRANCH   4  10
ENDBRANCH   1   7
BRANCH   1  14
ATOM     14  C   UNL     1       0.822   9.750  18.369  0.00  0.00    +0.000 C 
BRANCH  14  15
ATOM     15  C   UNL     1       1.072  10.866  19.362  0.00  0.00    +0.000 C 
ATOM     16  O   UNL     1       1.689  11.866  19.089  0.00  0.00    +0.000 OA
BRANCH  15  17
ATOM     17  C   UNL     1       0.492  10.677  20.726  0.00  0.00    +0.000 A 
ATOM     18  C   UNL     1       1.146   9.759  21.548  0.00  0.00    +0.000 A 
ATOM     19  C   UNL     1       0.665   9.582  22.815  0.00  0.00    +0.000 A 
ATOM     20  N   UNL     1      -0.394  10.248  23.302  0.00  0.00    +0.000 NA
ATOM     21  C   UNL     1      -1.025  11.136  22.514  0.00  0.00    +0.000 A 
ATOM     22  C   UNL     1      -2.106  11.825  23.054  0.00  0.00    +0.000 A 
ATOM     23  C   UNL     1      -2.811  12.793  22.340  0.00  0.00    +0.000 A 
ATOM     24  C   UNL     1      -2.467  13.055  21.026  0.00  0.00    +0.000 A 
ATOM     25  C   UNL     1      -1.428  12.334  20.438  0.00  0.00    +0.000 A 
ATOM     26  C   UNL     1      -0.646  11.398  21.182  0.00  0.00    +0.000 A 
ENDBRANCH  15  17
ENDBRANCH  14  15
ENDBRANCH   1  14
TORSDOF 7
ENDMDL
MODEL 4
REMARK VINA RESULT:      -7.2      2.062      4.333
REMARK  Name = 
REMARK  9 active torsions:
REMARK  status: ('A' for Active; 'I' for Inactive)
REMARK    1  A    between atoms: C_2  and  C_3
REMARK    2  A    between atoms: N_5  and  C_6
REMARK    3  A    between atoms: C_6  and  C_7
REMARK    4  A    between atoms: C_7  and  C_8
REMARK    5  A    between atoms: C_7  and  C_9
REMARK    6  A    between atoms: C_12  and  C_13
REMARK    7  A    between atoms: C_13  and  C_14
REMARK    8  A    between atoms: C_14  and  C_15
REMARK    9  A    between atoms: C_15  and  C_17
REMARK                            x       y       z     vdW  Elec       q    Type
REMARK                         _______ _______ _______ _____ _____    ______ ____
ROOT
ATOM      1  C   UNL     1       1.758   6.715  20.489  0.00  0.00    +0.000 C 
ENDROOT
BRANCH   1   7
ATOM      2  C   UNL     1       2.756   4.495  19.619  0.00  0.00    +0.000 C 
ATOM      3  C   UNL     1       3.947   3.973  18.773  0.00  0.00    +0.000 C 
ATOM      4  N   UNL     1       3.945   4.533  17.403  0.00  0.00    +0.000 NA
ATOM      5  C   UNL     1       4.047   6.004  17.466  0.00  0.00    +0.000 C 
ATOM      6  C   UNL     1       2.910   6.621  18.271  0.00  0.00    +0.000 C 
ATOM      7  C   UNL     1       2.864   6.037  19.677  0.00  0.00    +0.000 C 
BRANCH   2   9
ATOM      8  C   UNL     1       1.050   2.782  18.812  0.00  0.00    +0.000 C 
ATOM      9  C   UNL     1       1.389   4.030  19.139  0.00  0.00    +0.000 C 
ENDBRANCH   2   9
BRANCH   4  10
ATOM     10  C   UNL     1       5.036   3.959  16.589  0.00  0.00    +0.000 C 
BRANCH  10  11
ATOM     11  C   UNL     1       6.297   4.852  16.407  0.00  0.00    +0.000 C 
ATOM     12  C   UNL     1       7.471   4.574  17.356  0.00  0.00    +0.000 C 
ATOM     13  C   UNL     1       6.819   4.703  14.977  0.00  0.00    +0.000 C 
ENDBRANCH  10  11
ENDBRANCH   4  10
ENDBRANCH   1   7
BRANCH   1  14
ATOM     14  C   UNL     1       1.657   8.162  20.052  0.00  0.00    +0.000 C 
BRANCH  14  15
ATOM     15  C   UNL     1       0.642   8.941  20.864  0.00  0.00    +0.000 C 
ATOM     16  O   UNL     1       0.098   8.493  21.844  0.00  0.00    +0.000 OA
BRANCH  15  17
ATOM     17  C   UNL     1       0.348  10.328  20.395  0.00  0.00    +0.000 A 
ATOM     18  C   UNL     1       1.017  11.355  21.061  0.00  0.00    +0.000 A 
ATOM     19  C   UNL     1       0.799  12.638  20.640  0.00  0.00    +0.000 A 
ATOM     20  N   UNL     1      -0.016  12.950  19.621  0.00  0.00    +0.000 NA
ATOM     21  C   UNL     1      -0.661  11.963  18.973  0.00  0.00    +0.000 A 
ATOM     22  C   UNL     1      -1.482  12.318  17.909  0.00  0.00    +0.000 A 
ATOM     23  C   UNL     1      -2.169  11.375  17.145  0.00  0.00    +0.000 A 
ATOM     24  C   UNL     1      -2.081  10.035  17.476  0.00  0.00    +0.000 A 
ATOM     25  C   UNL     1      -1.314   9.656  18.579  0.00  0.00    +0.000 A 
ATOM     26  C   UNL     1      -0.541  10.602  19.319  0.00  0.00    +0.000 A 
ENDBRANCH  15  17
ENDBRANCH  14  15
ENDBRANCH   1  14
TORSDOF 7
ENDMDL
MODEL 5
REMARK VINA RESULT:      -7.1      1.859      8.141
REMARK  Name = 
REMARK  9 active torsions:
REMARK  status: ('A' for Active; 'I' for Inactive)
REMARK    1  A    between atoms: C_2  and  C_3
REMARK    2  A    between atoms: N_5  and  C_6
REMARK    3  A    between atoms: C_6  and  C_7
REMARK    4  A    between atoms: C_7  and  C_8
REMARK    5  A    between atoms: C_7  and  C_9
REMARK    6  A    between atoms: C_12  and  C_13
REMARK    7  A    between atoms: C_13  and  C_14
REMARK    8  A    between atoms: C_14  and  C_15
REMARK    9  A    between atoms: C_15  and  C_17
REMARK                            x       y       z     vdW  Elec       q    Type
REMARK                         _______ _______ _______ _____ _____    ______ ____
ROOT
ATOM      1  C   UNL     1       0.958   7.498  20.761  0.00  0.00    +0.000 C 
ENDROOT
BRANCH   1   7
ATOM      2  C   UNL     1       0.542  10.028  20.428  0.00  0.00    +0.000 C 
ATOM      3  C   UNL     1       0.339  11.322  21.258  0.00  0.00    +0.000 C 
ATOM      4  N   UNL     1      -0.832  11.227  22.160  0.00  0.00    +0.000 NA
ATOM      5  C   UNL     1      -0.643  10.110  23.106  0.00  0.00    +0.000 C 
ATOM      6  C   UNL     1      -0.443   8.781  22.388  0.00  0.00    +0.000 C 
ATOM      7  C   UNL     1       0.734   8.860  21.424  0.00  0.00    +0.000 C 
BRANCH   2   9
ATOM      8  C   UNL     1      -1.193  10.653  18.670  0.00  0.00    +0.000 C 
ATOM      9  C   UNL     1      -0.557   9.748  19.415  0.00  0.00    +0.000 C 
ENDBRANCH   2   9
BRANCH   4  10
ATOM     10  C   UNL     1      -1.059  12.498  22.877  0.00  0.00    +0.000 C 
BRANCH  10  11
ATOM     11  C   UNL     1      -2.464  13.143  22.699  0.00  0.00    +0.000 C 
ATOM     12  C   UNL     1      -3.102  13.014  21.310  0.00  0.00    +0.000 C 
ATOM     13  C   UNL     1      -3.434  12.525  23.708  0.00  0.00    +0.000 C 
ENDBRANCH  10  11
ENDBRANCH   4  10
ENDBRANCH   1   7
BRANCH   1  14
ATOM     14  C   UNL     1       2.338   7.486  20.137  0.00  0.00    +0.000 C 
BRANCH  14  15
ATOM     15  C   UNL     1       2.293   7.242  18.643  0.00  0.00    +0.000 C 
ATOM     16  O   UNL     1       1.976   8.090  17.845  0.00  0.00    +0.000 OA
BRANCH  15  17
ATOM     17  C   UNL     1       2.685   5.874  18.186  0.00  0.00    +0.000 A 
ATOM     18  C   UNL     1       1.802   4.844  18.510  0.00  0.00    +0.000 A 
ATOM     19  C   UNL     1       2.109   3.582  18.082  0.00  0.00    +0.000 A 
ATOM     20  N   UNL     1       3.207   3.293  17.366  0.00  0.00    +0.000 NA
ATOM     21  C   UNL     1       4.059   4.284  17.048  0.00  0.00    +0.000 A 
ATOM     22  C   UNL     1       5.176   3.956  16.288  0.00  0.00    +0.000 A 
ATOM     23  C   UNL     1       6.106   4.909  15.871  0.00  0.00    +0.000 A 
ATOM     24  C   UNL     1       5.953   6.226  16.262  0.00  0.00    +0.000 A 
ATOM     25  C   UNL     1       4.875   6.573  17.079  0.00  0.00    +0.000 A 
ATOM     26  C   UNL     1       3.872   5.624  17.445  0.00  0.00    +0.000 A 
ENDBRANCH  15  17
ENDBRANCH  14  15
ENDBRANCH   1  14
TORSDOF 7
ENDMDL
MODEL 6
REMARK VINA RESULT:      -7.1      1.982      4.140
REMARK  Name = 
REMARK  9 active torsions:
REMARK  status: ('A' for Active; 'I' for Inactive)
REMARK    1  A    between atoms: C_2  and  C_3
REMARK    2  A    between atoms: N_5  and  C_6
REMARK    3  A    between atoms: C_6  and  C_7
REMARK    4  A    between atoms: C_7  and  C_8
REMARK    5  A    between atoms: C_7  and  C_9
REMARK    6  A    between atoms: C_12  and  C_13
REMARK    7  A    between atoms: C_13  and  C_14
REMARK    8  A    between atoms: C_14  and  C_15
REMARK    9  A    between atoms: C_15  and  C_17
REMARK                            x       y       z     vdW  Elec       q    Type
REMARK                         _______ _______ _______ _____ _____    ______ ____
ROOT
ATOM      1  C   UNL     1       0.989   7.590  20.193  0.00  0.00    +0.000 C 
ENDROOT
BRANCH   1   7
ATOM      2  C   UNL     1       2.395   5.433  20.420  0.00  0.00    +0.000 C 
ATOM      3  C   UNL     1       3.722   4.815  19.908  0.00  0.00    +0.000 C 
ATOM      4  N   UNL     1       3.752   4.704  18.432  0.00  0.00    +0.000 NA
ATOM      5  C   UNL     1       3.616   6.045  17.829  0.00  0.00    +0.000 C 
ATOM      6  C   UNL     1       2.331   6.738  18.262  0.00  0.00    +0.000 C 
ATOM      7  C   UNL     1       2.255   6.834  19.781  0.00  0.00    +0.000 C 
BRANCH   2   9
ATOM      8  C   UNL     1       0.988   3.318  20.621  0.00  0.00    +0.000 C 
ATOM      9  C   UNL     1       1.165   4.567  20.189  0.00  0.00    +0.000 C 
ENDBRANCH   2   9
BRANCH   4  10
ATOM     10  C   UNL     1       4.986   4.036  17.971  0.00  0.00    +0.000 C 
BRANCH  10  11
ATOM     11  C   UNL     1       5.786   4.770  16.856  0.00  0.00    +0.000 C 
ATOM     12  C   UNL     1       7.310   4.824  17.032  0.00  0.00    +0.000 C 
ATOM     13  C   UNL     1       5.504   4.101  15.509  0.00  0.00    +0.000 C 
ENDBRANCH  10  11
ENDBRANCH   4  10
ENDBRANCH   1   7
BRANCH   1  14
ATOM     14  C   UNL     1       1.361   9.028  20.493  0.00  0.00    +0.000 C 
BRANCH  14  15
ATOM     15  C   UNL     1       0.990   9.967  19.364  0.00  0.00    +0.000 C 
ATOM     16  O   UNL     1       1.666  10.111  18.375  0.00  0.00    +0.000 OA
BRANCH  15  17
ATOM     17  C   UNL     1      -0.293  10.716  19.526  0.00  0.00    +0.000 A 
ATOM     18  C   UNL     1      -0.395  11.521  20.661  0.00  0.00    +0.000 A 
ATOM     19  C   UNL     1      -1.540  12.247  20.828  0.00  0.00    +0.000 A 
ATOM     20  N   UNL     1      -2.560  12.228  19.956  0.00  0.00    +0.000 NA
ATOM     21  C   UNL     1      -2.465  11.456  18.858  0.00  0.00    +0.000 A 
ATOM     22  C   UNL     1      -3.529  11.473  17.963  0.00  0.00    +0.000 A 
ATOM     23  C   UNL     1      -3.523  10.740  16.776  0.00  0.00    +0.000 A 
ATOM     24  C   UNL     1      -2.447   9.922  16.487  0.00  0.00    +0.000 A 
ATOM     25  C   UNL     1      -1.393   9.836  17.398  0.00  0.00    +0.000 A 
ATOM     26  C   UNL     1      -1.349  10.642  18.576  0.00  0.00    +0.000 A 
ENDBRANCH  15  17
ENDBRANCH  14  15
ENDBRANCH   1  14
TORSDOF 7
ENDMDL
MODEL 7
REMARK VINA RESULT:      -7.1      1.992      4.097
REMARK  Name = 
REMARK  9 active torsions:
REMARK  status: ('A' for Active; 'I' for Inactive)
REMARK    1  A    between atoms: C_2  and  C_3
REMARK    2  A    between atoms: N_5  and  C_6
REMARK    3  A    between atoms: C_6  and  C_7
REMARK    4  A    between atoms: C_7  and  C_8
REMARK    5  A    between atoms: C_7  and  C_9
REMARK    6  A    between atoms: C_12  and  C_13
REMARK    7  A    between atoms: C_13  and  C_14
REMARK    8  A    between atoms: C_14  and  C_15
REMARK    9  A    between atoms: C_15  and  C_17
REMARK                            x       y       z     vdW  Elec       q    Type
REMARK                         _______ _______ _______ _____ _____    ______ ____
ROOT
ATOM      1  C   UNL     1       1.501   7.319  20.712  0.00  0.00    +0.000 C 
ENDROOT
BRANCH   1   7
ATOM      2  C   UNL     1       2.565   4.989  20.357  0.00  0.00    +0.000 C 
ATOM      3  C   UNL     1       3.684   4.302  19.532  0.00  0.00    +0.000 C 
ATOM      4  N   UNL     1       3.473   4.450  18.074  0.00  0.00    +0.000 NA
ATOM      5  C   UNL     1       3.463   5.883  17.716  0.00  0.00    +0.000 C 
ATOM      6  C   UNL     1       2.384   6.652  18.468  0.00  0.00    +0.000 C 
ATOM      7  C   UNL     1       2.554   6.487  19.973  0.00  0.00    +0.000 C 
BRANCH   2   9
ATOM      8  C   UNL     1       0.944   3.086  19.864  0.00  0.00    +0.000 C 
ATOM      9  C   UNL     1       1.192   4.347  20.216  0.00  0.00    +0.000 C 
ENDBRANCH   2   9
BRANCH   4  10
ATOM     10  C   UNL     1       4.502   3.718  17.308  0.00  0.00    +0.000 C 
BRANCH  10  11
ATOM     11  C   UNL     1       5.602   4.588  16.634  0.00  0.00    +0.000 C 
ATOM     12  C   UNL     1       6.967   4.623  17.333  0.00  0.00    +0.000 C 
ATOM     13  C   UNL     1       5.832   4.092  15.205  0.00  0.00    +0.000 C 
ENDBRANCH  10  11
ENDBRANCH   4  10
ENDBRANCH   1   7
BRANCH   1  14
ATOM     14  C   UNL     1       1.423   8.685  20.062  0.00  0.00    +0.000 C 
BRANCH  14  15
ATOM     15  C   UNL     1       0.238   9.491  20.554  0.00  0.00    +0.000 C 
ATOM     16  O   UNL     1      -0.266   9.327  21.638  0.00  0.00    +0.000 OA
BRANCH  15  17
ATOM     17  C   UNL     1      -0.282  10.534  19.620  0.00  0.00    +0.000 A 
ATOM     18  C   UNL     1      -1.272  10.120  18.728  0.00  0.00    +0.000 A 
ATOM     19  C   UNL     1      -1.797  11.053  17.878  0.00  0.00    +0.000 A 
ATOM     20  N   UNL     1      -1.413  12.339  17.868  0.00  0.00    +0.000 NA
ATOM     21  C   UNL     1      -0.462  12.744  18.729  0.00  0.00    +0.000 A 
ATOM     22  C   UNL     1      -0.101  14.087  18.707  0.00  0.00    +0.000 A 
ATOM     23  C   UNL     1       0.847  14.623  19.579  0.00  0.00    +0.000 A 
ATOM     24  C   UNL     1       1.498  13.791  20.472  0.00  0.00    +0.000 A 
ATOM     25  C   UNL     1       1.202  12.427  20.472  0.00  0.00    +0.000 A 
ATOM     26  C   UNL     1       0.176  11.880  19.642  0.00  0.00    +0.000 A 
ENDBRANCH  15  17
ENDBRANCH  14  15
ENDBRANCH   1  14
TORSDOF 7
ENDMDL
MODEL 8
REMARK VINA RESULT:      -7.0      1.856      7.997
REMARK  Name = 
REMARK  9 active torsions:
REMARK  status: ('A' for Active; 'I' for Inactive)
REMARK    1  A    between atoms: C_2  and  C_3
REMARK    2  A    between atoms: N_5  and  C_6
REMARK    3  A    between atoms: C_6  and  C_7
REMARK    4  A    between atoms: C_7  and  C_8
REMARK    5  A    between atoms: C_7  and  C_9
REMARK    6  A    between atoms: C_12  and  C_13
REMARK    7  A    between atoms: C_13  and  C_14
REMARK    8  A    between atoms: C_14  and  C_15
REMARK    9  A    between atoms: C_15  and  C_17
REMARK                            x       y       z     vdW  Elec       q    Type
REMARK                         _______ _______ _______ _____ _____    ______ ____
ROOT
ATOM      1  C   UNL     1       1.554   8.969  18.119  0.00  0.00    +0.000 C 
ENDROOT
BRANCH   1   7
ATOM      2  C   UNL     1       0.052  10.892  18.975  0.00  0.00    +0.000 C 
ATOM      3  C   UNL     1      -0.193  11.736  20.252  0.00  0.00    +0.000 C 
ATOM      4  N   UNL     1      -0.573  10.896  21.411  0.00  0.00    +0.000 NA
ATOM      5  C   UNL     1       0.508   9.934  21.705  0.00  0.00    +0.000 C 
ATOM      6  C   UNL     1       0.821   9.043  20.510  0.00  0.00    +0.000 C 
ATOM      7  C   UNL     1       1.181   9.883  19.290  0.00  0.00    +0.000 C 
BRANCH   2   9
ATOM      8  C   UNL     1      -2.367  10.793  18.180  0.00  0.00    +0.000 C 
ATOM      9  C   UNL     1      -1.190  10.212  18.419  0.00  0.00    +0.000 C 
ENDBRANCH   2   9
BRANCH   4  10
ATOM     10  C   UNL     1      -0.884  11.724  22.593  0.00  0.00    +0.000 C 
BRANCH  10  11
ATOM     11  C   UNL     1      -1.776  12.973  22.338  0.00  0.00    +0.000 C 
ATOM     12  C   UNL     1      -3.276  12.713  22.145  0.00  0.00    +0.000 C 
ATOM     13  C   UNL     1      -1.627  13.947  23.509  0.00  0.00    +0.000 C 
ENDBRANCH  10  11
ENDBRANCH   4  10
ENDBRANCH   1   7
BRANCH   1  14
ATOM     14  C   UNL     1       2.306   7.771  18.663  0.00  0.00    +0.000 C 
BRANCH  14  15
ATOM     15  C   UNL     1       3.301   7.214  17.666  0.00  0.00    +0.000 C 
ATOM     16  O   UNL     1       3.537   7.739  16.605  0.00  0.00    +0.000 OA
BRANCH  15  17
ATOM     17  C   UNL     1       4.008   5.962  18.070  0.00  0.00    +0.000 A 
ATOM     18  C   UNL     1       5.373   6.085  18.331  0.00  0.00    +0.000 A 
ATOM     19  C   UNL     1       6.050   4.968  18.736  0.00  0.00    +0.000 A 
ATOM     20  N   UNL     1       5.465   3.771  18.898  0.00  0.00    +0.000 NA
ATOM     21  C   UNL     1       4.149   3.648  18.652  0.00  0.00    +0.000 A 
ATOM     22  C   UNL     1       3.569   2.400  18.849  0.00  0.00    +0.000 A 
ATOM     23  C   UNL     1       2.207   2.167  18.658  0.00  0.00    +0.000 A 
ATOM     24  C   UNL     1       1.397   3.193  18.208  0.00  0.00    +0.000 A 
ATOM     25  C   UNL     1       1.964   4.440  17.941  0.00  0.00    +0.000 A 
ATOM     26  C   UNL     1       3.340   4.714  18.209  0.00  0.00    +0.000 A 
ENDBRANCH  15  17
ENDBRANCH  14  15
ENDBRANCH   1  14
TORSDOF 7
ENDMDL
MODEL 9
REMARK VINA RESULT:      -7.0      1.853      7.735
REMARK  Name = 
REMARK  9 active torsions:
REMARK  status: ('A' for Active; 'I' for Inactive)
REMARK    1  A    between atoms: C_2  and  C_3
REMARK    2  A    between atoms: N_5  and  C_6
REMARK    3  A    between atoms: C_6  and  C_7
REMARK    4  A    between atoms: C_7  and  C_8
REMARK    5  A    between atoms: C_7  and  C_9
REMARK    6  A    between atoms: C_12  and  C_13
REMARK    7  A    between atoms: C_13  and  C_14
REMARK    8  A    between atoms: C_14  and  C_15
REMARK    9  A    between atoms: C_15  and  C_17
REMARK                            x       y       z     vdW  Elec       q    Type
REMARK                         _______ _______ _______ _____ _____    ______ ____
ROOT
ATOM      1  C   UNL     1       1.615   8.738  18.575  0.00  0.00    +0.000 C 
ENDROOT
BRANCH   1   7
ATOM      2  C   UNL     1       0.099  10.629  19.477  0.00  0.00    +0.000 C 
ATOM      3  C   UNL     1      -0.208  11.384  20.795  0.00  0.00    +0.000 C 
ATOM      4  N   UNL     1      -0.673  10.472  21.865  0.00  0.00    +0.000 NA
ATOM      5  C   UNL     1       0.370   9.468  22.152  0.00  0.00    +0.000 C 
ATOM      6  C   UNL     1       0.739   8.658  20.916  0.00  0.00    +0.000 C 
ATOM      7  C   UNL     1       1.188   9.574  19.785  0.00  0.00    +0.000 C 
BRANCH   2   9
ATOM      8  C   UNL     1      -1.446  10.133  17.512  0.00  0.00    +0.000 C 
ATOM      9  C   UNL     1      -1.119  10.019  18.800  0.00  0.00    +0.000 C 
ENDBRANCH   2   9
BRANCH   4  10
ATOM     10  C   UNL     1      -1.041  11.221  23.084  0.00  0.00    +0.000 C 
BRANCH  10  11
ATOM     11  C   UNL     1      -1.991  12.436  22.880  0.00  0.00    +0.000 C 
ATOM     12  C   UNL     1      -3.378  12.333  23.529  0.00  0.00    +0.000 C 
ATOM     13  C   UNL     1      -1.322  13.698  23.429  0.00  0.00    +0.000 C 
ENDBRANCH  10  11
ENDBRANCH   4  10
ENDBRANCH   1   7
BRANCH   1  14
ATOM     14  C   UNL     1       2.372   7.523  19.071  0.00  0.00    +0.000 C 
BRANCH  14  15
ATOM     15  C   UNL     1       3.296   6.950  18.016  0.00  0.00    +0.000 C 
ATOM     16  O   UNL     1       3.938   7.635  17.258  0.00  0.00    +0.000 OA
BRANCH  15  17
ATOM     17  C   UNL     1       3.392   5.460  17.965  0.00  0.00    +0.000 A 
ATOM     18  C   UNL     1       4.290   4.934  17.035  0.00  0.00    +0.000 A 
ATOM     19  C   UNL     1       4.431   3.576  16.980  0.00  0.00    +0.000 A 
ATOM     20  N   UNL     1       3.756   2.732  17.776  0.00  0.00    +0.000 NA
ATOM     21  C   UNL     1       2.891   3.234  18.676  0.00  0.00    +0.000 A 
ATOM     22  C   UNL     1       2.223   2.335  19.499  0.00  0.00    +0.000 A 
ATOM     23  C   UNL     1       1.332   2.745  20.491  0.00  0.00    +0.000 A 
ATOM     24  C   UNL     1       1.053   4.091  20.641  0.00  0.00    +0.000 A 
ATOM     25  C   UNL     1       1.662   5.012  19.786  0.00  0.00    +0.000 A 
ATOM     26  C   UNL     1       2.637   4.612  18.822  0.00  0.00    +0.000 A 
ENDBRANCH  15  17
ENDBRANCH  14  15
ENDBRANCH   1  14
TORSDOF 7
ENDMDL
