MODEL 1
REMARK VINA RESULT:      -7.8      0.000      0.000
REMARK  Name = 
REMARK  2 active torsions:
REMARK  status: ('A' for Active; 'I' for Inactive)
REMARK    1  A    between atoms: C_8  and  C_9
REMARK    2  A    between atoms: C_10  and  C_11
REMARK                            x       y       z     vdW  Elec       q    Type
REMARK                         _______ _______ _______ _____ _____    ______ ____
ROOT
ATOM      1 CL   UNL     1       4.693   2.660  11.296  0.00  0.00    +0.000 Cl
ATOM      2  C   UNL     1       5.598   3.561  12.454  0.00  0.00    +0.000 A 
ATOM      3  C   UNL     1       6.865   4.022  12.113  0.00  0.00    +0.000 A 
ATOM      4  C   UNL     1       7.626   4.747  13.029  0.00  0.00    +0.000 A 
ATOM      5  C   UNL     1       7.067   4.988  14.289  0.00  0.00    +0.000 A 
ATOM      6  N   UNL     1       7.600   5.660  15.363  0.00  0.00    +0.000 N 
ATOM      7  C   UNL     1       6.714   5.667  16.404  0.00  0.00    +0.000 A 
ATOM      8  C   UNL     1       5.576   4.997  16.011  0.00  0.00    +0.000 A 
ATOM      9  C   UNL     1       5.793   4.548  14.664  0.00  0.00    +0.000 A 
ATOM     10  C   UNL     1       5.044   3.812  13.718  0.00  0.00    +0.000 A 
ATOM     11  H   UNL     1       8.518   6.083  15.376  0.00  0.00    +0.000 HD
ENDROOT
BRANCH   8  12
ATOM     12  C   UNL     1       4.414   4.803  16.831  0.00  0.00    +0.000 C 
ATOM     13  C   UNL     1       4.239   3.773  17.679  0.00  0.00    +0.000 C 
BRANCH  13  14
ATOM     14  C   UNL     1       3.070   3.524  18.533  0.00  0.00    +0.000 A 
ATOM     15  C   UNL     1       1.929   2.847  18.102  0.00  0.00    +0.000 A 
ATOM     16  C   UNL     1       0.893   2.588  19.000  0.00  0.00    +0.000 A 
ATOM     17  C   UNL     1       1.034   3.008  20.313  0.00  0.00    +0.000 A 
ATOM     18  N   UNL     1       2.120   3.659  20.775  0.00  0.00    +0.000 NA
ATOM     19  C   UNL     1       3.108   3.895  19.878  0.00  0.00    +0.000 A 
ENDBRANCH  13  14
ENDBRANCH   8  12
TORSDOF 2
ENDMDL
MODEL 2
REMARK VINA RESULT:      -7.8      0.695      1.139
REMARK  Name = 
REMARK  2 active torsions:
REMARK  status: ('A' for Active; 'I' for Inactive)
REMARK    1  A    between atoms: C_8  and  C_9
REMARK    2  A    between atoms: C_10  and  C_11
REMARK                            x       y       z     vdW  Elec       q    Type
REMARK                         _______ _______ _______ _____ _____    ______ ____
ROOT
ATOM      1 CL   UNL     1       4.944   2.562  11.310  0.00  0.00    +0.000 Cl
ATOM      2  C   UNL     1       5.771   3.523  12.479  0.00  0.00    +0.000 A 
ATOM      3  C   UNL     1       7.018   4.051  12.161  0.00  0.00    +0.000 A 
ATOM      4  C   UNL     1       7.716   4.826  13.086  0.00  0.00    +0.000 A 
ATOM      5  C   UNL     1       7.116   5.045  14.332  0.00  0.00    +0.000 A 
ATOM      6  N   UNL     1       7.586   5.755  15.410  0.00  0.00    +0.000 N 
ATOM      7  C   UNL     1       6.679   5.721  16.431  0.00  0.00    +0.000 A 
ATOM      8  C   UNL     1       5.589   4.984  16.020  0.00  0.00    +0.000 A 
ATOM      9  C   UNL     1       5.861   4.537  14.683  0.00  0.00    +0.000 A 
ATOM     10  C   UNL     1       5.176   3.752  13.728  0.00  0.00    +0.000 A 
ATOM     11  H   UNL     1       8.479   6.230  15.439  0.00  0.00    +0.000 HD
ENDROOT
BRANCH   8  12
ATOM     12  C   UNL     1       4.423   4.731  16.817  0.00  0.00    +0.000 C 
ATOM     13  C   UNL     1       4.331   3.774  17.758  0.00  0.00    +0.000 C 
BRANCH  13  14
ATOM     14  C   UNL     1       3.162   3.469  18.593  0.00  0.00    +0.000 A 
ATOM     15  C   UNL     1       3.022   3.899  19.913  0.00  0.00    +0.000 A 
ATOM     16  C   UNL     1       1.846   3.628  20.612  0.00  0.00    +0.000 A 
ATOM     17  C   UNL     1       0.833   2.940  19.964  0.00  0.00    +0.000 A 
ATOM     18  N   UNL     1       0.920   2.512  18.689  0.00  0.00    +0.000 NA
ATOM     19  C   UNL     1       2.076   2.790  18.037  0.00  0.00    +0.000 A 
ENDBRANCH  13  14
ENDBRANCH   8  12
TORSDOF 2
ENDMDL
MODEL 3
REMARK VINA RESULT:      -7.6      2.860      7.344
REMARK  Name = 
REMARK  2 active torsions:
REMARK  status: ('A' for Active; 'I' for Inactive)
REMARK    1  A    between atoms: C_8  and  C_9
REMARK    2  A    between atoms: C_10  and  C_11
REMARK                            x       y       z     vdW  Elec       q    Type
REMARK                         _______ _______ _______ _____ _____    ______ ____
ROOT
ATOM      1 CL   UNL     1       1.906   7.337  20.603  0.00  0.00    +0.000 Cl
ATOM      2  C   UNL     1       2.046   5.714  20.036  0.00  0.00    +0.000 A 
ATOM      3  C   UNL     1       1.272   4.721  20.629  0.00  0.00    +0.000 A 
ATOM      4  C   UNL     1       1.367   3.398  20.199  0.00  0.00    +0.000 A 
ATOM      5  C   UNL     1       2.262   3.117  19.160  0.00  0.00    +0.000 A 
ATOM      6  N   UNL     1       2.549   1.913  18.562  0.00  0.00    +0.000 N 
ATOM      7  C   UNL     1       3.485   2.084  17.581  0.00  0.00    +0.000 A 
ATOM      8  C   UNL     1       3.817   3.421  17.524  0.00  0.00    +0.000 A 
ATOM      9  C   UNL     1       3.049   4.090  18.536  0.00  0.00    +0.000 A 
ATOM     10  C   UNL     1       2.936   5.423  18.993  0.00  0.00    +0.000 A 
ATOM     11  H   UNL     1       2.128   1.031  18.819  0.00  0.00    +0.000 HD
ENDROOT
BRANCH   8  12
ATOM     12  C   UNL     1       4.762   3.992  16.608  0.00  0.00    +0.000 C 
ATOM     13  C   UNL     1       5.141   3.428  15.447  0.00  0.00    +0.000 C 
BRANCH  13  14
ATOM     14  C   UNL     1       6.107   3.965  14.480  0.00  0.00    +0.000 A 
ATOM     15  C   UNL     1       6.098   3.649  13.122  0.00  0.00    +0.000 A 
ATOM     16  C   UNL     1       7.007   4.262  12.259  0.00  0.00    +0.000 A 
ATOM     17  C   UNL     1       7.898   5.184  12.782  0.00  0.00    +0.000 A 
ATOM     18  N   UNL     1       7.940   5.525  14.085  0.00  0.00    +0.000 NA
ATOM     19  C   UNL     1       7.044   4.912  14.897  0.00  0.00    +0.000 A 
ENDBRANCH  13  14
ENDBRANCH   8  12
TORSDOF 2
ENDMDL
MODEL 4
REMARK VINA RESULT:      -7.1      2.901      7.007
REMARK  Name = 
REMARK  2 active torsions:
REMARK  status: ('A' for Active; 'I' for Inactive)
REMARK    1  A    between atoms: C_8  and  C_9
REMARK    2  A    between atoms: C_10  and  C_11
REMARK                            x       y       z     vdW  Elec       q    Type
REMARK                         _______ _______ _______ _____ _____    ______ ____
ROOT
ATOM      1 CL   UNL     1       1.982   9.158  17.862  0.00  0.00    +0.000 Cl
ATOM      2  C   UNL     1       2.445   7.632  18.520  0.00  0.00    +0.000 A 
ATOM      3  C   UNL     1       1.856   7.199  19.703  0.00  0.00    +0.000 A 
ATOM      4  C   UNL     1       2.213   5.973  20.266  0.00  0.00    +0.000 A 
ATOM      5  C   UNL     1       3.175   5.209  19.596  0.00  0.00    +0.000 A 
ATOM      6  N   UNL     1       3.704   3.987  19.934  0.00  0.00    +0.000 N 
ATOM      7  C   UNL     1       4.619   3.592  18.999  0.00  0.00    +0.000 A 
ATOM      8  C   UNL     1       4.692   4.564  18.024  0.00  0.00    +0.000 A 
ATOM      9  C   UNL     1       3.782   5.609  18.400  0.00  0.00    +0.000 A 
ATOM     10  C   UNL     1       3.404   6.857  17.853  0.00  0.00    +0.000 A 
ATOM     11  H   UNL     1       3.450   3.461  20.759  0.00  0.00    +0.000 HD
ENDROOT
BRANCH   8  12
ATOM     12  C   UNL     1       5.539   4.504  16.868  0.00  0.00    +0.000 C 
ATOM     13  C   UNL     1       5.098   4.420  15.599  0.00  0.00    +0.000 C 
BRANCH  13  14
ATOM     14  C   UNL     1       5.920   4.347  14.384  0.00  0.00    +0.000 A 
ATOM     15  C   UNL     1       5.606   3.545  13.287  0.00  0.00    +0.000 A 
ATOM     16  C   UNL     1       6.402   3.592  12.141  0.00  0.00    +0.000 A 
ATOM     17  C   UNL     1       7.488   4.452  12.123  0.00  0.00    +0.000 A 
ATOM     18  N   UNL     1       7.825   5.250  13.156  0.00  0.00    +0.000 NA
ATOM     19  C   UNL     1       7.032   5.180  14.254  0.00  0.00    +0.000 A 
ENDBRANCH  13  14
ENDBRANCH   8  12
TORSDOF 2
ENDMDL
MODEL 5
REMARK VINA RESULT:      -7.1      5.431      7.094
REMARK  Name = 
REMARK  2 active torsions:
REMARK  status: ('A' for Active; 'I' for Inactive)
REMARK    1  A    between atoms: C_8  and  C_9
REMARK    2  A    between atoms: C_10  and  C_11
REMARK                            x       y       z     vdW  Elec       q    Type
REMARK                         _______ _______ _______ _____ _____    ______ ____
ROOT
ATOM      1 CL   UNL     1       1.421   2.561  21.718  0.00  0.00    +0.000 Cl
ATOM      2  C   UNL     1       2.200   3.449  20.462  0.00  0.00    +0.000 A 
ATOM      3  C   UNL     1       3.047   2.779  19.585  0.00  0.00    +0.000 A 
ATOM      4  C   UNL     1       3.698   3.468  18.562  0.00  0.00    +0.000 A 
ATOM      5  C   UNL     1       3.465   4.845  18.459  0.00  0.00    +0.000 A 
ATOM      6  N   UNL     1       3.979   5.748  17.560  0.00  0.00    +0.000 N 
ATOM      7  C   UNL     1       3.487   6.998  17.811  0.00  0.00    +0.000 A 
ATOM      8  C   UNL     1       2.628   6.919  18.886  0.00  0.00    +0.000 A 
ATOM      9  C   UNL     1       2.614   5.550  19.317  0.00  0.00    +0.000 A 
ATOM     10  C   UNL     1       1.969   4.827  20.346  0.00  0.00    +0.000 A 
ATOM     11  H   UNL     1       4.632   5.516  16.823  0.00  0.00    +0.000 HD
ENDROOT
BRANCH   8  12
ATOM     12  C   UNL     1       1.907   8.028  19.442  0.00  0.00    +0.000 C 
ATOM     13  C   UNL     1       1.462   8.093  20.711  0.00  0.00    +0.000 C 
BRANCH  13  14
ATOM     14  C   UNL     1       0.715   9.198  21.327  0.00  0.00    +0.000 A 
ATOM     15  C   UNL     1       0.028  10.167  20.596  0.00  0.00    +0.000 A 
ATOM     16  C   UNL     1      -0.718  11.140  21.262  0.00  0.00    +0.000 A 
ATOM     17  C   UNL     1      -0.764  11.108  22.646  0.00  0.00    +0.000 A 
ATOM     18  N   UNL     1      -0.123  10.188  23.393  0.00  0.00    +0.000 NA
ATOM     19  C   UNL     1       0.594   9.257  22.716  0.00  0.00    +0.000 A 
ENDBRANCH  13  14
ENDBRANCH   8  12
TORSDOF 2
ENDMDL
MODEL 6
REMARK VINA RESULT:      -7.1      4.959      6.184
REMARK  Name = 
REMARK  2 active torsions:
REMARK  status: ('A' for Active; 'I' for Inactive)
REMARK    1  A    between atoms: C_8  and  C_9
REMARK    2  A    between atoms: C_10  and  C_11
REMARK                            x       y       z     vdW  Elec       q    Type
REMARK                         _______ _______ _______ _____ _____    ______ ____
ROOT
ATOM      1 CL   UNL     1       0.743   2.205  18.770  0.00  0.00    +0.000 Cl
ATOM      2  C   UNL     1       1.897   3.362  18.218  0.00  0.00    +0.000 A 
ATOM      3  C   UNL     1       2.977   2.929  17.456  0.00  0.00    +0.000 A 
ATOM      4  C   UNL     1       3.932   3.837  17.000  0.00  0.00    +0.000 A 
ATOM      5  C   UNL     1       3.758   5.184  17.338  0.00  0.00    +0.000 A 
ATOM      6  N   UNL     1       4.545   6.267  17.027  0.00  0.00    +0.000 N 
ATOM      7  C   UNL     1       4.009   7.408  17.553  0.00  0.00    +0.000 A 
ATOM      8  C   UNL     1       2.846   7.078  18.215  0.00  0.00    +0.000 A 
ATOM      9  C   UNL     1       2.680   5.657  18.094  0.00  0.00    +0.000 A 
ATOM     10  C   UNL     1       1.728   4.714  18.547  0.00  0.00    +0.000 A 
ATOM     11  H   UNL     1       5.400   6.219  16.489  0.00  0.00    +0.000 HD
ENDROOT
BRANCH   8  12
ATOM     12  C   UNL     1       1.992   8.013  18.891  0.00  0.00    +0.000 C 
ATOM     13  C   UNL     1       1.921   8.157  20.227  0.00  0.00    +0.000 C 
BRANCH  13  14
ATOM     14  C   UNL     1       1.062   9.091  20.968  0.00  0.00    +0.000 A 
ATOM     15  C   UNL     1       0.217  10.014  20.354  0.00  0.00    +0.000 A 
ATOM     16  C   UNL     1      -0.622  10.814  21.132  0.00  0.00    +0.000 A 
ATOM     17  C   UNL     1      -0.596  10.658  22.508  0.00  0.00    +0.000 A 
ATOM     18  N   UNL     1       0.199   9.775  23.144  0.00  0.00    +0.000 NA
ATOM     19  C   UNL     1       1.002   9.013  22.360  0.00  0.00    +0.000 A 
ENDBRANCH  13  14
ENDBRANCH   8  12
TORSDOF 2
ENDMDL
MODEL 7
REMARK VINA RESULT:      -7.1      4.841      6.578
REMARK  Name = 
REMARK  2 active torsions:
REMARK  status: ('A' for Active; 'I' for Inactive)
REMARK    1  A    between atoms: C_8  and  C_9
REMARK    2  A    between atoms: C_10  and  C_11
REMARK                            x       y       z     vdW  Elec       q    Type
REMARK                         _______ _______ _______ _____ _____    ______ ____
ROOT
ATOM      1 CL   UNL     1       5.268   6.088  15.537  0.00  0.00    +0.000 Cl
ATOM      2  C   UNL     1       4.517   5.384  16.921  0.00  0.00    +0.000 A 
ATOM      3  C   UNL     1       4.684   4.024  17.162  0.00  0.00    +0.000 A 
ATOM      4  C   UNL     1       4.085   3.422  18.268  0.00  0.00    +0.000 A 
ATOM      5  C   UNL     1       3.320   4.235  19.113  0.00  0.00    +0.000 A 
ATOM      6  N   UNL     1       2.626   3.897  20.250  0.00  0.00    +0.000 N 
ATOM      7  C   UNL     1       2.014   5.000  20.776  0.00  0.00    +0.000 A 
ATOM      8  C   UNL     1       2.312   6.084  19.979  0.00  0.00    +0.000 A 
ATOM      9  C   UNL     1       3.137   5.606  18.906  0.00  0.00    +0.000 A 
ATOM     10  C   UNL     1       3.753   6.191  17.776  0.00  0.00    +0.000 A 
ATOM     11  H   UNL     1       2.577   2.964  20.635  0.00  0.00    +0.000 HD
ENDROOT
BRANCH   8  12
ATOM     12  C   UNL     1       1.855   7.424  20.214  0.00  0.00    +0.000 C 
ATOM     13  C   UNL     1       1.103   7.804  21.264  0.00  0.00    +0.000 C 
BRANCH  13  14
ATOM     14  C   UNL     1       0.604   9.156  21.547  0.00  0.00    +0.000 A 
ATOM     15  C   UNL     1       0.496  10.157  20.582  0.00  0.00    +0.000 A 
ATOM     16  C   UNL     1      -0.058  11.392  20.920  0.00  0.00    +0.000 A 
ATOM     17  C   UNL     1      -0.499  11.587  22.219  0.00  0.00    +0.000 A 
ATOM     18  N   UNL     1      -0.420  10.648  23.182  0.00  0.00    +0.000 NA
ATOM     19  C   UNL     1       0.123   9.459  22.822  0.00  0.00    +0.000 A 
ENDBRANCH  13  14
ENDBRANCH   8  12
TORSDOF 2
ENDMDL
MODEL 8
REMARK VINA RESULT:      -7.0      5.881      7.885
REMARK  Name = 
REMARK  2 active torsions:
REMARK  status: ('A' for Active; 'I' for Inactive)
REMARK    1  A    between atoms: C_8  and  C_9
REMARK    2  A    between atoms: C_10  and  C_11
REMARK                            x       y       z     vdW  Elec       q    Type
REMARK                         _______ _______ _______ _____ _____    ______ ____
ROOT
ATOM      1 CL   UNL     1      -0.593   9.779  23.144  0.00  0.00    +0.000 Cl
ATOM      2  C   UNL     1       0.072   9.918  21.560  0.00  0.00    +0.000 A 
ATOM      3  C   UNL     1      -0.082  11.113  20.864  0.00  0.00    +0.000 A 
ATOM      4  C   UNL     1       0.438  11.255  19.577  0.00  0.00    +0.000 A 
ATOM      5  C   UNL     1       1.113  10.160  19.026  0.00  0.00    +0.000 A 
ATOM      6  N   UNL     1       1.705  10.035  17.792  0.00  0.00    +0.000 N 
ATOM      7  C   UNL     1       2.258   8.793  17.656  0.00  0.00    +0.000 A 
ATOM      8  C   UNL     1       2.035   8.087  18.820  0.00  0.00    +0.000 A 
ATOM      9  C   UNL     1       1.294   8.947  19.699  0.00  0.00    +0.000 A 
ATOM     10  C   UNL     1       0.754   8.828  21.000  0.00  0.00    +0.000 A 
ATOM     11  H   UNL     1       1.722  10.761  17.088  0.00  0.00    +0.000 HD
ENDROOT
BRANCH   8  12
ATOM     12  C   UNL     1       2.476   6.744  19.061  0.00  0.00    +0.000 C 
ATOM     13  C   UNL     1       2.525   5.775  18.128  0.00  0.00    +0.000 C 
BRANCH  13  14
ATOM     14  C   UNL     1       2.959   4.385  18.324  0.00  0.00    +0.000 A 
ATOM     15  C   UNL     1       3.874   3.992  19.300  0.00  0.00    +0.000 A 
ATOM     16  C   UNL     1       4.176   2.640  19.467  0.00  0.00    +0.000 A 
ATOM     17  C   UNL     1       3.544   1.715  18.652  0.00  0.00    +0.000 A 
ATOM     18  N   UNL     1       2.649   2.048  17.700  0.00  0.00    +0.000 NA
ATOM     19  C   UNL     1       2.378   3.369  17.564  0.00  0.00    +0.000 A 
ENDBRANCH  13  14
ENDBRANCH   8  12
TORSDOF 2
ENDMDL
MODEL 9
REMARK VINA RESULT:      -7.0      5.001      6.128
REMARK  Name = 
REMARK  2 active torsions:
REMARK  status: ('A' for Active; 'I' for Inactive)
REMARK    1  A    between atoms: C_8  and  C_9
REMARK    2  A    between atoms: C_10  and  C_11
REMARK                            x       y       z     vdW  Elec       q    Type
REMARK                         _______ _______ _______ _____ _____    ______ ____
ROOT
ATOM      1 CL   UNL     1       0.542   2.337  18.688  0.00  0.00    +0.000 Cl
ATOM      2  C   UNL     1       1.915   3.263  18.206  0.00  0.00    +0.000 A 
ATOM      3  C   UNL     1       3.075   2.600  17.819  0.00  0.00    +0.000 A 
ATOM      4  C   UNL     1       4.206   3.319  17.430  0.00  0.00    +0.000 A 
ATOM      5  C   UNL     1       4.122   4.716  17.446  0.00  0.00    +0.000 A 
ATOM      6  N   UNL     1       5.079   5.648  17.122  0.00  0.00    +0.000 N 
ATOM      7  C   UNL     1       4.580   6.911  17.273  0.00  0.00    +0.000 A 
ATOM      8  C   UNL     1       3.271   6.814  17.697  0.00  0.00    +0.000 A 
ATOM      9  C   UNL     1       2.970   5.416  17.821  0.00  0.00    +0.000 A 
ATOM     10  C   UNL     1       1.840   4.663  18.214  0.00  0.00    +0.000 A 
ATOM     11  H   UNL     1       6.017   5.424  16.820  0.00  0.00    +0.000 HD
ENDROOT
BRANCH   8  12
ATOM     12  C   UNL     1       2.409   7.930  17.956  0.00  0.00    +0.000 C 
ATOM     13  C   UNL     1       1.914   8.251  19.167  0.00  0.00    +0.000 C 
BRANCH  13  14
ATOM     14  C   UNL     1       1.024   9.375  19.485  0.00  0.00    +0.000 A 
ATOM     15  C   UNL     1       0.304  10.086  18.525  0.00  0.00    +0.000 A 
ATOM     16  C   UNL     1      -0.577  11.093  18.921  0.00  0.00    +0.000 A 
ATOM     17  C   UNL     1      -0.720  11.354  20.274  0.00  0.00    +0.000 A 
ATOM     18  N   UNL     1      -0.051  10.688  21.237  0.00  0.00    +0.000 NA
ATOM     19  C   UNL     1       0.797   9.716  20.820  0.00  0.00    +0.000 A 
ENDBRANCH  13  14
ENDBRANCH   8  12
TORSDOF 2
ENDMDL
