MODEL 1
REMARK VINA RESULT:      -6.9      0.000      0.000
REMARK  Name = 
REMARK  17 active torsions:
REMARK  status: ('A' for Active; 'I' for Inactive)
REMARK    1  A    between atoms: C_1  and  C_2
REMARK    2  A    between atoms: C_2  and  N_3
REMARK    3  A    between atoms: C_4  and  C_6
REMARK    4  A    between atoms: N_9  and  C_10
REMARK    5  A    between atoms: C_12  and  C_13
REMARK    6  A    between atoms: C_13  and  C_14
REMARK    7  A    between atoms: C_13  and  C_15
REMARK    8  A    between atoms: C_16  and  O_17
REMARK    9  A    between atoms: C_19  and  O_20
REMARK   10  A    between atoms: C_21  and  C_22
REMARK   11  A    between atoms: C_25  and  C_26
REMARK   12  A    between atoms: C_26  and  N_27
REMARK   13  A    between atoms: N_27  and  C_28
REMARK   14  A    between atoms: N_27  and  C_30
REMARK   15  A    between atoms: C_28  and  C_29
REMARK   16  A    between atoms: C_30  and  C_31
REMARK   17  A    between atoms: C_31  and  O_32
REMARK                            x       y       z     vdW  Elec       q    Type
REMARK                         _______ _______ _______ _____ _____    ______ ____
ROOT
ATOM      1  C   UNL     1      -1.155  11.479  18.047  0.00  0.00    +0.000 A 
ATOM      2  N   UNL     1      -1.552  12.787  18.091  0.00  0.00    +0.000 NA
ATOM      3  N   UNL     1      -0.627  13.477  18.733  0.00  0.00    +0.000 NA
ATOM      4  N   UNL     1       0.451  12.671  18.934  0.00  0.00    +0.000 N 
ATOM      5  C   UNL     1       0.116  11.347  18.608  0.00  0.00    +0.000 A 
ENDROOT
BRANCH   4   6
ATOM      6  C   UNL     1       1.656  13.248  19.429  0.00  0.00    +0.000 A 
ATOM      7  C   UNL     1       2.532  13.863  18.509  0.00  0.00    +0.000 A 
ATOM      8  C   UNL     1       3.707  14.522  18.930  0.00  0.00    +0.000 A 
ATOM      9  C   UNL     1       3.990  14.513  20.305  0.00  0.00    +0.000 A 
ATOM     10  C   UNL     1       3.149  13.874  21.219  0.00  0.00    +0.000 A 
ATOM     11  C   UNL     1       2.001  13.223  20.778  0.00  0.00    +0.000 A 
BRANCH   8  12
ATOM     12  C   UNL     1       4.650  15.150  17.910  0.00  0.00    +0.000 C 
ATOM     13  C   UNL     1       4.813  16.642  18.214  0.00  0.00    +0.000 C 
ATOM     14  C   UNL     1       6.023  14.477  17.795  0.00  0.00    +0.000 C 
ENDBRANCH   8  12
BRANCH   9  15
ATOM     15  O   UNL     1       5.101  15.085  20.860  0.00  0.00    +0.000 OA
ATOM     16  H   UNL     1       5.477  14.505  21.538  0.00  0.00    +0.000 HD
ENDBRANCH   9  15
BRANCH  11  17
ATOM     17  O   UNL     1       1.283  12.486  21.676  0.00  0.00    +0.000 OA
ATOM     18  H   UNL     1       1.271  12.953  22.529  0.00  0.00    +0.000 HD
ENDBRANCH  11  17
ENDBRANCH   4   6
BRANCH   5  19
ATOM     19  C   UNL     1       0.961  10.154  18.784  0.00  0.00    +0.000 A 
ATOM     20  C   UNL     1       1.782   9.654  17.762  0.00  0.00    +0.000 A 
ATOM     21  C   UNL     1       2.391   8.400  17.883  0.00  0.00    +0.000 A 
ATOM     22  C   UNL     1       2.272   7.664  19.069  0.00  0.00    +0.000 A 
ATOM     23  C   UNL     1       1.575   8.224  20.140  0.00  0.00    +0.000 A 
ATOM     24  C   UNL     1       0.909   9.437  19.988  0.00  0.00    +0.000 A 
BRANCH  22  25
ATOM     25  C   UNL     1       2.752   6.237  19.182  0.00  0.00    +0.000 C 
BRANCH  25  26
ATOM     26  N   UNL     1       3.194   5.610  17.927  0.00  0.00    +0.000 NA
BRANCH  26  27
ATOM     27  C   UNL     1       4.650   5.754  17.703  0.00  0.00    +0.000 C 
ATOM     28  C   UNL     1       5.107   6.181  16.308  0.00  0.00    +0.000 C 
ENDBRANCH  26  27
BRANCH  26  29
ATOM     29  C   UNL     1       2.791   4.182  17.888  0.00  0.00    +0.000 C 
BRANCH  29  30
ATOM     30  C   UNL     1       3.790   3.237  18.582  0.00  0.00    +0.000 C 
BRANCH  30  31
ATOM     31  O   UNL     1       4.199   2.200  17.696  0.00  0.00    +0.000 OA
ATOM     32  H   UNL     1       4.600   2.656  16.930  0.00  0.00    +0.000 HD
ENDBRANCH  30  31
ENDBRANCH  29  30
ENDBRANCH  26  29
ENDBRANCH  25  26
ENDBRANCH  22  25
ENDBRANCH   5  19
BRANCH   1  34
ATOM     33  N   UNL     1      -2.253  10.604  16.125  0.00  0.00    +0.000 N 
ATOM     34  C   UNL     1      -2.002  10.444  17.470  0.00  0.00    +0.000 C 
ATOM     35  O   UNL     1      -2.408   9.479  18.113  0.00  0.00    +0.000 OA
ATOM     36  H   UNL     1      -1.935  11.456  15.674  0.00  0.00    +0.000 HD
BRANCH  33  38
ATOM     37  C   UNL     1      -3.325  10.113  13.974  0.00  0.00    +0.000 C 
ATOM     38  C   UNL     1      -2.987   9.613  15.365  0.00  0.00    +0.000 C 
ENDBRANCH  33  38
ENDBRANCH   1  34
TORSDOF 13
ENDMDL
MODEL 2
REMARK VINA RESULT:      -6.7      4.658      8.660
REMARK  Name = 
REMARK  17 active torsions:
REMARK  status: ('A' for Active; 'I' for Inactive)
REMARK    1  A    between atoms: C_1  and  C_2
REMARK    2  A    between atoms: C_2  and  N_3
REMARK    3  A    between atoms: C_4  and  C_6
REMARK    4  A    between atoms: N_9  and  C_10
REMARK    5  A    between atoms: C_12  and  C_13
REMARK    6  A    between atoms: C_13  and  C_14
REMARK    7  A    between atoms: C_13  and  C_15
REMARK    8  A    between atoms: C_16  and  O_17
REMARK    9  A    between atoms: C_19  and  O_20
REMARK   10  A    between atoms: C_21  and  C_22
REMARK   11  A    between atoms: C_25  and  C_26
REMARK   12  A    between atoms: C_26  and  N_27
REMARK   13  A    between atoms: N_27  and  C_28
REMARK   14  A    between atoms: N_27  and  C_30
REMARK   15  A    between atoms: C_28  and  C_29
REMARK   16  A    between atoms: C_30  and  C_31
REMARK   17  A    between atoms: C_31  and  O_32
REMARK                            x       y       z     vdW  Elec       q    Type
REMARK                         _______ _______ _______ _____ _____    ______ ____
ROOT
ATOM      1  C   UNL     1       5.253   4.584  16.232  0.00  0.00    +0.000 A 
ATOM      2  N   UNL     1       4.127   3.808  16.215  0.00  0.00    +0.000 NA
ATOM      3  N   UNL     1       3.347   4.193  17.208  0.00  0.00    +0.000 NA
ATOM      4  N   UNL     1       3.862   5.332  17.746  0.00  0.00    +0.000 N 
ATOM      5  C   UNL     1       5.145   5.561  17.224  0.00  0.00    +0.000 A 
ENDROOT
BRANCH   4   6
ATOM      6  C   UNL     1       3.088   6.050  18.703  0.00  0.00    +0.000 A 
ATOM      7  C   UNL     1       2.691   7.367  18.390  0.00  0.00    +0.000 A 
ATOM      8  C   UNL     1       1.860   8.116  19.252  0.00  0.00    +0.000 A 
ATOM      9  C   UNL     1       1.469   7.508  20.455  0.00  0.00    +0.000 A 
ATOM     10  C   UNL     1       1.889   6.219  20.791  0.00  0.00    +0.000 A 
ATOM     11  C   UNL     1       2.715   5.504  19.929  0.00  0.00    +0.000 A 
BRANCH   8  12
ATOM     12  C   UNL     1       1.474   9.549  18.902  0.00  0.00    +0.000 C 
ATOM     13  C   UNL     1       2.388  10.068  17.789  0.00  0.00    +0.000 C 
ATOM     14  C   UNL     1       0.003   9.749  18.519  0.00  0.00    +0.000 C 
ENDBRANCH   8  12
BRANCH   9  15
ATOM     15  O   UNL     1       0.690   8.116  21.400  0.00  0.00    +0.000 OA
ATOM     16  H   UNL     1      -0.215   7.774  21.363  0.00  0.00    +0.000 HD
ENDBRANCH   9  15
BRANCH  11  17
ATOM     17  O   UNL     1       3.224   4.310  20.353  0.00  0.00    +0.000 OA
ATOM     18  H   UNL     1       2.859   4.106  21.231  0.00  0.00    +0.000 HD
ENDBRANCH  11  17
ENDBRANCH   4   6
BRANCH   5  19
ATOM     19  C   UNL     1       6.084   6.623  17.622  0.00  0.00    +0.000 A 
ATOM     20  C   UNL     1       5.949   7.950  17.189  0.00  0.00    +0.000 A 
ATOM     21  C   UNL     1       6.976   8.879  17.396  0.00  0.00    +0.000 A 
ATOM     22  C   UNL     1       8.116   8.524  18.127  0.00  0.00    +0.000 A 
ATOM     23  C   UNL     1       8.188   7.246  18.683  0.00  0.00    +0.000 A 
ATOM     24  C   UNL     1       7.199   6.305  18.410  0.00  0.00    +0.000 A 
BRANCH  22  25
ATOM     25  C   UNL     1       9.325   9.424  18.220  0.00  0.00    +0.000 C 
BRANCH  25  26
ATOM     26  N   UNL     1       9.090  10.750  18.813  0.00  0.00    +0.000 NA
BRANCH  26  27
ATOM     27  C   UNL     1       9.354  10.775  20.269  0.00  0.00    +0.000 C 
ATOM     28  C   UNL     1       9.147  12.103  20.997  0.00  0.00    +0.000 C 
ENDBRANCH  26  27
BRANCH  26  29
ATOM     29  C   UNL     1       9.891  11.784  18.111  0.00  0.00    +0.000 C 
BRANCH  29  30
ATOM     30  C   UNL     1      11.413  11.567  18.219  0.00  0.00    +0.000 C 
BRANCH  30  31
ATOM     31  O   UNL     1      12.085  12.170  17.118  0.00  0.00    +0.000 OA
ATOM     32  H   UNL     1      12.707  11.490  16.791  0.00  0.00    +0.000 HD
ENDBRANCH  30  31
ENDBRANCH  29  30
ENDBRANCH  26  29
ENDBRANCH  25  26
ENDBRANCH  22  25
ENDBRANCH   5  19
BRANCH   1  34
ATOM     33  N   UNL     1       5.954   4.093  14.010  0.00  0.00    +0.000 N 
ATOM     34  C   UNL     1       6.351   4.355  15.304  0.00  0.00    +0.000 C 
ATOM     35  O   UNL     1       7.532   4.446  15.631  0.00  0.00    +0.000 OA
ATOM     36  H   UNL     1       4.963   3.975  13.827  0.00  0.00    +0.000 HD
BRANCH  33  38
ATOM     37  C   UNL     1       6.417   2.985  11.872  0.00  0.00    +0.000 C 
ATOM     38  C   UNL     1       6.912   3.947  12.935  0.00  0.00    +0.000 C 
ENDBRANCH  33  38
ENDBRANCH   1  34
TORSDOF 13
ENDMDL
MODEL 3
REMARK VINA RESULT:      -6.4      3.950      9.597
REMARK  Name = 
REMARK  17 active torsions:
REMARK  status: ('A' for Active; 'I' for Inactive)
REMARK    1  A    between atoms: C_1  and  C_2
REMARK    2  A    between atoms: C_2  and  N_3
REMARK    3  A    between atoms: C_4  and  C_6
REMARK    4  A    between atoms: N_9  and  C_10
REMARK    5  A    between atoms: C_12  and  C_13
REMARK    6  A    between atoms: C_13  and  C_14
REMARK    7  A    between atoms: C_13  and  C_15
REMARK    8  A    between atoms: C_16  and  O_17
REMARK    9  A    between atoms: C_19  and  O_20
REMARK   10  A    between atoms: C_21  and  C_22
REMARK   11  A    between atoms: C_25  and  C_26
REMARK   12  A    between atoms: C_26  and  N_27
REMARK   13  A    between atoms: N_27  and  C_28
REMARK   14  A    between atoms: N_27  and  C_30
REMARK   15  A    between atoms: C_28  and  C_29
REMARK   16  A    between atoms: C_30  and  C_31
REMARK   17  A    between atoms: C_31  and  O_32
REMARK                            x       y       z     vdW  Elec       q    Type
REMARK                         _______ _______ _______ _____ _____    ______ ____
ROOT
ATOM      1  C   UNL     1       3.102   2.767  18.408  0.00  0.00    +0.000 A 
ATOM      2  N   UNL     1       3.753   1.607  18.087  0.00  0.00    +0.000 NA
ATOM      3  N   UNL     1       4.568   1.858  17.079  0.00  0.00    +0.000 NA
ATOM      4  N   UNL     1       4.596   3.202  16.870  0.00  0.00    +0.000 N 
ATOM      5  C   UNL     1       3.587   3.818  17.627  0.00  0.00    +0.000 A 
ENDROOT
BRANCH   4   6
ATOM      6  C   UNL     1       5.558   3.736  15.965  0.00  0.00    +0.000 A 
ATOM      7  C   UNL     1       5.357   3.542  14.582  0.00  0.00    +0.000 A 
ATOM      8  C   UNL     1       6.225   4.105  13.620  0.00  0.00    +0.000 A 
ATOM      9  C   UNL     1       7.321   4.841  14.097  0.00  0.00    +0.000 A 
ATOM     10  C   UNL     1       7.550   5.006  15.465  0.00  0.00    +0.000 A 
ATOM     11  C   UNL     1       6.685   4.434  16.394  0.00  0.00    +0.000 A 
BRANCH   8  12
ATOM     12  C   UNL     1       6.000   3.851  12.134  0.00  0.00    +0.000 C 
ATOM     13  C   UNL     1       6.971   2.772  11.647  0.00  0.00    +0.000 C 
ATOM     14  C   UNL     1       4.562   3.487  11.748  0.00  0.00    +0.000 C 
ENDBRANCH   8  12
BRANCH   9  15
ATOM     15  O   UNL     1       8.260   5.421  13.290  0.00  0.00    +0.000 OA
ATOM     16  H   UNL     1       8.124   5.157  12.369  0.00  0.00    +0.000 HD
ENDBRANCH   9  15
BRANCH  11  17
ATOM     17  O   UNL     1       7.019   4.490  17.717  0.00  0.00    +0.000 OA
ATOM     18  H   UNL     1       7.986   4.440  17.799  0.00  0.00    +0.000 HD
ENDBRANCH  11  17
ENDBRANCH   4   6
BRANCH   5  19
ATOM     19  C   UNL     1       3.211   5.242  17.607  0.00  0.00    +0.000 A 
ATOM     20  C   UNL     1       4.150   6.266  17.413  0.00  0.00    +0.000 A 
ATOM     21  C   UNL     1       3.801   7.605  17.625  0.00  0.00    +0.000 A 
ATOM     22  C   UNL     1       2.482   7.954  17.940  0.00  0.00    +0.000 A 
ATOM     23  C   UNL     1       1.515   6.949  17.993  0.00  0.00    +0.000 A 
ATOM     24  C   UNL     1       1.882   5.613  17.854  0.00  0.00    +0.000 A 
BRANCH  22  25
ATOM     25  C   UNL     1       2.097   9.353  18.357  0.00  0.00    +0.000 C 
BRANCH  25  26
ATOM     26  N   UNL     1       0.788   9.486  19.016  0.00  0.00    +0.000 NA
BRANCH  26  27
ATOM     27  C   UNL     1       0.905   9.635  20.484  0.00  0.00    +0.000 C 
ATOM     28  C   UNL     1       0.553   8.420  21.343  0.00  0.00    +0.000 C 
ENDBRANCH  26  27
BRANCH  26  29
ATOM     29  C   UNL     1       0.022  10.612  18.429  0.00  0.00    +0.000 C 
BRANCH  29  30
ATOM     30  C   UNL     1      -1.444  10.265  18.107  0.00  0.00    +0.000 C 
BRANCH  30  31
ATOM     31  O   UNL     1      -1.676  10.314  16.703  0.00  0.00    +0.000 OA
ATOM     32  H   UNL     1      -1.774  11.264  16.490  0.00  0.00    +0.000 HD
ENDBRANCH  30  31
ENDBRANCH  29  30
ENDBRANCH  26  29
ENDBRANCH  25  26
ENDBRANCH  22  25
ENDBRANCH   5  19
BRANCH   1  34
ATOM     33  N   UNL     1       2.515   3.241  20.666  0.00  0.00    +0.000 N 
ATOM     34  C   UNL     1       2.072   2.803  19.436  0.00  0.00    +0.000 C 
ATOM     35  O   UNL     1       0.896   2.525  19.213  0.00  0.00    +0.000 OA
ATOM     36  H   UNL     1       3.510   3.396  20.790  0.00  0.00    +0.000 HD
BRANCH  33  38
ATOM     37  C   UNL     1       1.228   2.129  22.433  0.00  0.00    +0.000 C 
ATOM     38  C   UNL     1       1.605   3.442  21.774  0.00  0.00    +0.000 C 
ENDBRANCH  33  38
ENDBRANCH   1  34
TORSDOF 13
ENDMDL
MODEL 4
REMARK VINA RESULT:      -6.2      1.156      1.811
REMARK  Name = 
REMARK  17 active torsions:
REMARK  status: ('A' for Active; 'I' for Inactive)
REMARK    1  A    between atoms: C_1  and  C_2
REMARK    2  A    between atoms: C_2  and  N_3
REMARK    3  A    between atoms: C_4  and  C_6
REMARK    4  A    between atoms: N_9  and  C_10
REMARK    5  A    between atoms: C_12  and  C_13
REMARK    6  A    between atoms: C_13  and  C_14
REMARK    7  A    between atoms: C_13  and  C_15
REMARK    8  A    between atoms: C_16  and  O_17
REMARK    9  A    between atoms: C_19  and  O_20
REMARK   10  A    between atoms: C_21  and  C_22
REMARK   11  A    between atoms: C_25  and  C_26
REMARK   12  A    between atoms: C_26  and  N_27
REMARK   13  A    between atoms: N_27  and  C_28
REMARK   14  A    between atoms: N_27  and  C_30
REMARK   15  A    between atoms: C_28  and  C_29
REMARK   16  A    between atoms: C_30  and  C_31
REMARK   17  A    between atoms: C_31  and  O_32
REMARK                            x       y       z     vdW  Elec       q    Type
REMARK                         _______ _______ _______ _____ _____    ______ ____
ROOT
ATOM      1  C   UNL     1      -1.522  11.370  18.070  0.00  0.00    +0.000 A 
ATOM      2  N   UNL     1      -1.905  12.674  18.220  0.00  0.00    +0.000 NA
ATOM      3  N   UNL     1      -0.976  13.298  18.922  0.00  0.00    +0.000 NA
ATOM      4  N   UNL     1       0.091  12.465  19.062  0.00  0.00    +0.000 N 
ATOM      5  C   UNL     1      -0.256  11.177  18.626  0.00  0.00    +0.000 A 
ENDROOT
BRANCH   4   6
ATOM      6  C   UNL     1       1.300  12.985  19.611  0.00  0.00    +0.000 A 
ATOM      7  C   UNL     1       2.124  13.778  18.784  0.00  0.00    +0.000 A 
ATOM      8  C   UNL     1       3.297  14.391  19.275  0.00  0.00    +0.000 A 
ATOM      9  C   UNL     1       3.632  14.152  20.618  0.00  0.00    +0.000 A 
ATOM     10  C   UNL     1       2.843  13.337  21.433  0.00  0.00    +0.000 A 
ATOM     11  C   UNL     1       1.695  12.737  20.923  0.00  0.00    +0.000 A 
BRANCH   8  12
ATOM     12  C   UNL     1       4.185  15.216  18.350  0.00  0.00    +0.000 C 
ATOM     13  C   UNL     1       5.373  14.367  17.891  0.00  0.00    +0.000 C 
ATOM     14  C   UNL     1       3.469  15.827  17.140  0.00  0.00    +0.000 C 
ENDBRANCH   8  12
BRANCH   9  15
ATOM     15  O   UNL     1       4.749  14.653  21.227  0.00  0.00    +0.000 OA
ATOM     16  H   UNL     1       5.504  14.625  20.623  0.00  0.00    +0.000 HD
ENDBRANCH   9  15
BRANCH  11  17
ATOM     17  O   UNL     1       1.031  11.833  21.701  0.00  0.00    +0.000 OA
ATOM     18  H   UNL     1       0.848  12.237  22.566  0.00  0.00    +0.000 HD
ENDBRANCH  11  17
ENDBRANCH   4   6
BRANCH   5  19
ATOM     19  C   UNL     1       0.575   9.963  18.708  0.00  0.00    +0.000 A 
ATOM     20  C   UNL     1       0.730   9.235  19.896  0.00  0.00    +0.000 A 
ATOM     21  C   UNL     1       1.698   8.229  19.997  0.00  0.00    +0.000 A 
ATOM     22  C   UNL     1       2.462   7.865  18.881  0.00  0.00    +0.000 A 
ATOM     23  C   UNL     1       2.209   8.490  17.659  0.00  0.00    +0.000 A 
ATOM     24  C   UNL     1       1.298   9.540  17.584  0.00  0.00    +0.000 A 
BRANCH  22  25
ATOM     25  C   UNL     1       3.637   6.922  18.983  0.00  0.00    +0.000 C 
BRANCH  25  26
ATOM     26  N   UNL     1       3.304   5.509  19.224  0.00  0.00    +0.000 NA
BRANCH  26  27
ATOM     27  C   UNL     1       2.164   5.047  18.400  0.00  0.00    +0.000 C 
ATOM     28  C   UNL     1       1.477   3.747  18.819  0.00  0.00    +0.000 C 
ENDBRANCH  26  27
BRANCH  26  29
ATOM     29  C   UNL     1       4.494   4.650  19.011  0.00  0.00    +0.000 C 
BRANCH  29  30
ATOM     30  C   UNL     1       5.804   5.439  18.828  0.00  0.00    +0.000 C 
BRANCH  30  31
ATOM     31  O   UNL     1       6.714   5.156  19.887  0.00  0.00    +0.000 OA
ATOM     32  H   UNL     1       7.104   6.018  20.131  0.00  0.00    +0.000 HD
ENDBRANCH  30  31
ENDBRANCH  29  30
ENDBRANCH  26  29
ENDBRANCH  25  26
ENDBRANCH  22  25
ENDBRANCH   5  19
BRANCH   1  34
ATOM     33  N   UNL     1      -2.432  10.536  16.034  0.00  0.00    +0.000 N 
ATOM     34  C   UNL     1      -2.376  10.397  17.404  0.00  0.00    +0.000 C 
ATOM     35  O   UNL     1      -2.951   9.491  18.005  0.00  0.00    +0.000 OA
ATOM     36  H   UNL     1      -1.979  11.342  15.615  0.00  0.00    +0.000 HD
BRANCH  33  38
ATOM     37  C   UNL     1      -3.271  10.086  13.774  0.00  0.00    +0.000 C 
ATOM     38  C   UNL     1      -3.146   9.591  15.202  0.00  0.00    +0.000 C 
ENDBRANCH  33  38
ENDBRANCH   1  34
TORSDOF 13
ENDMDL
MODEL 5
REMARK VINA RESULT:      -6.1      5.310      8.919
REMARK  Name = 
REMARK  17 active torsions:
REMARK  status: ('A' for Active; 'I' for Inactive)
REMARK    1  A    between atoms: C_1  and  C_2
REMARK    2  A    between atoms: C_2  and  N_3
REMARK    3  A    between atoms: C_4  and  C_6
REMARK    4  A    between atoms: N_9  and  C_10
REMARK    5  A    between atoms: C_12  and  C_13
REMARK    6  A    between atoms: C_13  and  C_14
REMARK    7  A    between atoms: C_13  and  C_15
REMARK    8  A    between atoms: C_16  and  O_17
REMARK    9  A    between atoms: C_19  and  O_20
REMARK   10  A    between atoms: C_21  and  C_22
REMARK   11  A    between atoms: C_25  and  C_26
REMARK   12  A    between atoms: C_26  and  N_27
REMARK   13  A    between atoms: N_27  and  C_28
REMARK   14  A    between atoms: N_27  and  C_30
REMARK   15  A    between atoms: C_28  and  C_29
REMARK   16  A    between atoms: C_30  and  C_31
REMARK   17  A    between atoms: C_31  and  O_32
REMARK                            x       y       z     vdW  Elec       q    Type
REMARK                         _______ _______ _______ _____ _____    ______ ____
ROOT
ATOM      1  C   UNL     1      -4.975  15.877  22.434  0.00  0.00    +0.000 A 
ATOM      2  N   UNL     1      -6.314  16.115  22.290  0.00  0.00    +0.000 NA
ATOM      3  N   UNL     1      -6.832  15.138  21.569  0.00  0.00    +0.000 NA
ATOM      4  N   UNL     1      -5.885  14.173  21.407  0.00  0.00    +0.000 N 
ATOM      5  C   UNL     1      -4.643  14.653  21.852  0.00  0.00    +0.000 A 
ENDROOT
BRANCH   4   6
ATOM      6  C   UNL     1      -6.268  12.926  20.834  0.00  0.00    +0.000 A 
ATOM      7  C   UNL     1      -5.687  12.547  19.605  0.00  0.00    +0.000 A 
ATOM      8  C   UNL     1      -5.957  11.295  19.011  0.00  0.00    +0.000 A 
ATOM      9  C   UNL     1      -6.858  10.450  19.678  0.00  0.00    +0.000 A 
ATOM     10  C   UNL     1      -7.468  10.831  20.876  0.00  0.00    +0.000 A 
ATOM     11  C   UNL     1      -7.192  12.075  21.437  0.00  0.00    +0.000 A 
BRANCH   8  12
ATOM     12  C   UNL     1      -5.340  10.927  17.667  0.00  0.00    +0.000 C 
ATOM     13  C   UNL     1      -5.198  12.186  16.807  0.00  0.00    +0.000 C 
ATOM     14  C   UNL     1      -4.000  10.186  17.749  0.00  0.00    +0.000 C 
ENDBRANCH   8  12
BRANCH   9  15
ATOM     15  O   UNL     1      -7.238   9.221  19.215  0.00  0.00    +0.000 OA
ATOM     16  H   UNL     1      -6.467   8.643  19.118  0.00  0.00    +0.000 HD
ENDBRANCH   9  15
BRANCH  11  17
ATOM     17  O   UNL     1      -7.914  12.475  22.524  0.00  0.00    +0.000 OA
ATOM     18  H   UNL     1      -8.163  11.690  23.042  0.00  0.00    +0.000 HD
ENDBRANCH  11  17
ENDBRANCH   4   6
BRANCH   5  19
ATOM     19  C   UNL     1      -3.345  13.965  21.754  0.00  0.00    +0.000 A 
ATOM     20  C   UNL     1      -2.484  14.132  20.660  0.00  0.00    +0.000 A 
ATOM     21  C   UNL     1      -1.373  13.297  20.489  0.00  0.00    +0.000 A 
ATOM     22  C   UNL     1      -1.047  12.343  21.461  0.00  0.00    +0.000 A 
ATOM     23  C   UNL     1      -1.820  12.272  22.620  0.00  0.00    +0.000 A 
ATOM     24  C   UNL     1      -2.965  13.053  22.749  0.00  0.00    +0.000 A 
BRANCH  22  25
ATOM     25  C   UNL     1       0.024  11.302  21.239  0.00  0.00    +0.000 C 
BRANCH  25  26
ATOM     26  N   UNL     1      -0.433  10.030  20.655  0.00  0.00    +0.000 NA
BRANCH  26  27
ATOM     27  C   UNL     1       0.280   9.693  19.403  0.00  0.00    +0.000 C 
ATOM     28  C   UNL     1      -0.337  10.178  18.091  0.00  0.00    +0.000 C 
ENDBRANCH  26  27
BRANCH  26  29
ATOM     29  C   UNL     1      -0.314   8.931  21.645  0.00  0.00    +0.000 C 
BRANCH  29  30
ATOM     30  C   UNL     1       0.687   9.223  22.779  0.00  0.00    +0.000 C 
BRANCH  30  31
ATOM     31  O   UNL     1       0.007   9.382  24.020  0.00  0.00    +0.000 OA
ATOM     32  H   UNL     1       0.105   8.526  24.481  0.00  0.00    +0.000 HD
ENDBRANCH  30  31
ENDBRANCH  29  30
ENDBRANCH  26  29
ENDBRANCH  25  26
ENDBRANCH  22  25
ENDBRANCH   5  19
BRANCH   1  34
ATOM     33  N   UNL     1      -4.196  16.784  24.492  0.00  0.00    +0.000 N 
ATOM     34  C   UNL     1      -4.102  16.821  23.118  0.00  0.00    +0.000 C 
ATOM     35  O   UNL     1      -3.307  17.546  22.524  0.00  0.00    +0.000 OA
ATOM     36  H   UNL     1      -4.916  16.203  24.909  0.00  0.00    +0.000 HD
BRANCH  33  38
ATOM     37  C   UNL     1      -1.981  16.904  25.539  0.00  0.00    +0.000 C 
ATOM     38  C   UNL     1      -3.325  17.576  25.335  0.00  0.00    +0.000 C 
ENDBRANCH  33  38
ENDBRANCH   1  34
TORSDOF 13
ENDMDL
MODEL 6
REMARK VINA RESULT:      -6.1      1.981      2.590
REMARK  Name = 
REMARK  17 active torsions:
REMARK  status: ('A' for Active; 'I' for Inactive)
REMARK    1  A    between atoms: C_1  and  C_2
REMARK    2  A    between atoms: C_2  and  N_3
REMARK    3  A    between atoms: C_4  and  C_6
REMARK    4  A    between atoms: N_9  and  C_10
REMARK    5  A    between atoms: C_12  and  C_13
REMARK    6  A    between atoms: C_13  and  C_14
REMARK    7  A    between atoms: C_13  and  C_15
REMARK    8  A    between atoms: C_16  and  O_17
REMARK    9  A    between atoms: C_19  and  O_20
REMARK   10  A    between atoms: C_21  and  C_22
REMARK   11  A    between atoms: C_25  and  C_26
REMARK   12  A    between atoms: C_26  and  N_27
REMARK   13  A    between atoms: N_27  and  C_28
REMARK   14  A    between atoms: N_27  and  C_30
REMARK   15  A    between atoms: C_28  and  C_29
REMARK   16  A    between atoms: C_30  and  C_31
REMARK   17  A    between atoms: C_31  and  O_32
REMARK                            x       y       z     vdW  Elec       q    Type
REMARK                         _______ _______ _______ _____ _____    ______ ____
ROOT
ATOM      1  C   UNL     1      -2.907  11.192  18.478  0.00  0.00    +0.000 A 
ATOM      2  N   UNL     1      -3.783  12.199  18.772  0.00  0.00    +0.000 NA
ATOM      3  N   UNL     1      -3.264  12.926  19.746  0.00  0.00    +0.000 NA
ATOM      4  N   UNL     1      -1.982  12.518  19.952  0.00  0.00    +0.000 N 
ATOM      5  C   UNL     1      -1.743  11.334  19.237  0.00  0.00    +0.000 A 
ENDROOT
BRANCH   4   6
ATOM      6  C   UNL     1      -1.149  13.286  20.816  0.00  0.00    +0.000 A 
ATOM      7  C   UNL     1       0.043  13.828  20.290  0.00  0.00    +0.000 A 
ATOM      8  C   UNL     1       0.883  14.662  21.060  0.00  0.00    +0.000 A 
ATOM      9  C   UNL     1       0.500  14.905  22.389  0.00  0.00    +0.000 A 
ATOM     10  C   UNL     1      -0.658  14.342  22.931  0.00  0.00    +0.000 A 
ATOM     11  C   UNL     1      -1.464  13.516  22.153  0.00  0.00    +0.000 A 
BRANCH   8  12
ATOM     12  C   UNL     1       2.180  15.206  20.474  0.00  0.00    +0.000 C 
ATOM     13  C   UNL     1       3.293  14.168  20.645  0.00  0.00    +0.000 C 
ATOM     14  C   UNL     1       2.093  15.658  19.012  0.00  0.00    +0.000 C 
ENDBRANCH   8  12
BRANCH   9  15
ATOM     15  O   UNL     1       1.223  15.668  23.263  0.00  0.00    +0.000 OA
ATOM     16  H   UNL     1       1.424  16.530  22.873  0.00  0.00    +0.000 HD
ENDBRANCH   9  15
BRANCH  11  17
ATOM     17  O   UNL     1      -2.504  12.867  22.754  0.00  0.00    +0.000 OA
ATOM     18  H   UNL     1      -2.526  11.947  22.437  0.00  0.00    +0.000 HD
ENDBRANCH  11  17
ENDBRANCH   4   6
BRANCH   5  19
ATOM     19  C   UNL     1      -0.522  10.512  19.272  0.00  0.00    +0.000 A 
ATOM     20  C   UNL     1       0.297  10.330  18.148  0.00  0.00    +0.000 A 
ATOM     21  C   UNL     1       1.314   9.368  18.152  0.00  0.00    +0.000 A 
ATOM     22  C   UNL     1       1.596   8.639  19.313  0.00  0.00    +0.000 A 
ATOM     23  C   UNL     1       0.876   8.919  20.476  0.00  0.00    +0.000 A 
ATOM     24  C   UNL     1      -0.182   9.823  20.445  0.00  0.00    +0.000 A 
BRANCH  22  25
ATOM     25  C   UNL     1       2.552   7.469  19.317  0.00  0.00    +0.000 C 
BRANCH  25  26
ATOM     26  N   UNL     1       2.709   6.769  18.033  0.00  0.00    +0.000 NA
BRANCH  26  27
ATOM     27  C   UNL     1       4.076   6.900  17.480  0.00  0.00    +0.000 C 
ATOM     28  C   UNL     1       4.674   5.674  16.789  0.00  0.00    +0.000 C 
ENDBRANCH  26  27
BRANCH  26  29
ATOM     29  C   UNL     1       2.327   5.341  18.168  0.00  0.00    +0.000 C 
BRANCH  29  30
ATOM     30  C   UNL     1       2.285   4.846  19.626  0.00  0.00    +0.000 C 
BRANCH  30  31
ATOM     31  O   UNL     1       3.391   3.990  19.898  0.00  0.00    +0.000 OA
ATOM     32  H   UNL     1       3.988   4.088  19.131  0.00  0.00    +0.000 HD
ENDBRANCH  30  31
ENDBRANCH  29  30
ENDBRANCH  26  29
ENDBRANCH  25  26
ENDBRANCH  22  25
ENDBRANCH   5  19
BRANCH   1  34
ATOM     33  N   UNL     1      -2.871  10.493  16.202  0.00  0.00    +0.000 N 
ATOM     34  C   UNL     1      -3.225  10.167  17.494  0.00  0.00    +0.000 C 
ATOM     35  O   UNL     1      -3.714   9.081  17.795  0.00  0.00    +0.000 OA
ATOM     36  H   UNL     1      -2.528  11.431  16.021  0.00  0.00    +0.000 HD
BRANCH  33  38
ATOM     37  C   UNL     1      -3.835  10.132  13.976  0.00  0.00    +0.000 C 
ATOM     38  C   UNL     1      -3.016   9.551  15.113  0.00  0.00    +0.000 C 
ENDBRANCH  33  38
ENDBRANCH   1  34
TORSDOF 13
ENDMDL
MODEL 7
REMARK VINA RESULT:      -6.0      2.651      6.463
REMARK  Name = 
REMARK  17 active torsions:
REMARK  status: ('A' for Active; 'I' for Inactive)
REMARK    1  A    between atoms: C_1  and  C_2
REMARK    2  A    between atoms: C_2  and  N_3
REMARK    3  A    between atoms: C_4  and  C_6
REMARK    4  A    between atoms: N_9  and  C_10
REMARK    5  A    between atoms: C_12  and  C_13
REMARK    6  A    between atoms: C_13  and  C_14
REMARK    7  A    between atoms: C_13  and  C_15
REMARK    8  A    between atoms: C_16  and  O_17
REMARK    9  A    between atoms: C_19  and  O_20
REMARK   10  A    between atoms: C_21  and  C_22
REMARK   11  A    between atoms: C_25  and  C_26
REMARK   12  A    between atoms: C_26  and  N_27
REMARK   13  A    between atoms: N_27  and  C_28
REMARK   14  A    between atoms: N_27  and  C_30
REMARK   15  A    between atoms: C_28  and  C_29
REMARK   16  A    between atoms: C_30  and  C_31
REMARK   17  A    between atoms: C_31  and  O_32
REMARK                            x       y       z     vdW  Elec       q    Type
REMARK                         _______ _______ _______ _____ _____    ______ ____
ROOT
ATOM      1  C   UNL     1       0.996  13.562  19.691  0.00  0.00    +0.000 A 
ATOM      2  N   UNL     1       0.311  14.675  19.288  0.00  0.00    +0.000 NA
ATOM      3  N   UNL     1      -0.866  14.291  18.829  0.00  0.00    +0.000 NA
ATOM      4  N   UNL     1      -1.028  12.969  19.107  0.00  0.00    +0.000 N 
ATOM      5  C   UNL     1       0.187  12.431  19.562  0.00  0.00    +0.000 A 
ENDROOT
BRANCH   4   6
ATOM      6  C   UNL     1      -2.303  12.372  18.889  0.00  0.00    +0.000 A 
ATOM      7  C   UNL     1      -3.328  12.619  19.826  0.00  0.00    +0.000 A 
ATOM      8  C   UNL     1      -4.638  12.127  19.641  0.00  0.00    +0.000 A 
ATOM      9  C   UNL     1      -4.875  11.349  18.496  0.00  0.00    +0.000 A 
ATOM     10  C   UNL     1      -3.857  11.067  17.582  0.00  0.00    +0.000 A 
ATOM     11  C   UNL     1      -2.572  11.557  17.792  0.00  0.00    +0.000 A 
BRANCH   8  12
ATOM     12  C   UNL     1      -5.717  12.384  20.687  0.00  0.00    +0.000 C 
ATOM     13  C   UNL     1      -5.058  12.705  22.032  0.00  0.00    +0.000 C 
ATOM     14  C   UNL     1      -6.733  13.471  20.319  0.00  0.00    +0.000 C 
ENDBRANCH   8  12
BRANCH   9  15
ATOM     15  O   UNL     1      -6.082  10.782  18.195  0.00  0.00    +0.000 OA
ATOM     16  H   UNL     1      -5.967   9.855  17.944  0.00  0.00    +0.000 HD
ENDBRANCH   9  15
BRANCH  11  17
ATOM     17  O   UNL     1      -1.572  11.141  16.961  0.00  0.00    +0.000 OA
ATOM     18  H   UNL     1      -0.876  10.716  17.493  0.00  0.00    +0.000 HD
ENDBRANCH  11  17
ENDBRANCH   4   6
BRANCH   5  19
ATOM     19  C   UNL     1       0.468  11.019  19.868  0.00  0.00    +0.000 A 
ATOM     20  C   UNL     1       0.180  10.447  21.116  0.00  0.00    +0.000 A 
ATOM     21  C   UNL     1       0.664   9.176  21.449  0.00  0.00    +0.000 A 
ATOM     22  C   UNL     1       1.362   8.413  20.505  0.00  0.00    +0.000 A 
ATOM     23  C   UNL     1       1.525   8.922  19.216  0.00  0.00    +0.000 A 
ATOM     24  C   UNL     1       1.107  10.215  18.914  0.00  0.00    +0.000 A 
BRANCH  22  25
ATOM     25  C   UNL     1       2.060   7.124  20.869  0.00  0.00    +0.000 C 
BRANCH  25  26
ATOM     26  N   UNL     1       2.068   6.085  19.827  0.00  0.00    +0.000 NA
BRANCH  26  27
ATOM     27  C   UNL     1       3.153   6.282  18.839  0.00  0.00    +0.000 C 
ATOM     28  C   UNL     1       3.279   5.248  17.720  0.00  0.00    +0.000 C 
ENDBRANCH  26  27
BRANCH  26  29
ATOM     29  C   UNL     1       2.146   4.735  20.438  0.00  0.00    +0.000 C 
BRANCH  29  30
ATOM     30  C   UNL     1       0.928   3.844  20.132  0.00  0.00    +0.000 C 
BRANCH  30  31
ATOM     31  O   UNL     1       0.753   2.864  21.150  0.00  0.00    +0.000 OA
ATOM     32  H   UNL     1       0.201   3.294  21.832  0.00  0.00    +0.000 HD
ENDBRANCH  30  31
ENDBRANCH  29  30
ENDBRANCH  26  29
ENDBRANCH  25  26
ENDBRANCH  22  25
ENDBRANCH   5  19
BRANCH   1  34
ATOM     33  N   UNL     1       3.200  14.410  19.392  0.00  0.00    +0.000 N 
ATOM     34  C   UNL     1       2.366  13.644  20.177  0.00  0.00    +0.000 C 
ATOM     35  O   UNL     1       2.732  13.125  21.229  0.00  0.00    +0.000 OA
ATOM     36  H   UNL     1       2.843  14.757  18.508  0.00  0.00    +0.000 HD
BRANCH  33  38
ATOM     37  C   UNL     1       5.427  15.046  18.584  0.00  0.00    +0.000 C 
ATOM     38  C   UNL     1       4.567  14.688  19.781  0.00  0.00    +0.000 C 
ENDBRANCH  33  38
ENDBRANCH   1  34
TORSDOF 13
ENDMDL
MODEL 8
REMARK VINA RESULT:      -6.0      1.241      1.324
REMARK  Name = 
REMARK  17 active torsions:
REMARK  status: ('A' for Active; 'I' for Inactive)
REMARK    1  A    between atoms: C_1  and  C_2
REMARK    2  A    between atoms: C_2  and  N_3
REMARK    3  A    between atoms: C_4  and  C_6
REMARK    4  A    between atoms: N_9  and  C_10
REMARK    5  A    between atoms: C_12  and  C_13
REMARK    6  A    between atoms: C_13  and  C_14
REMARK    7  A    between atoms: C_13  and  C_15
REMARK    8  A    between atoms: C_16  and  O_17
REMARK    9  A    between atoms: C_19  and  O_20
REMARK   10  A    between atoms: C_21  and  C_22
REMARK   11  A    between atoms: C_25  and  C_26
REMARK   12  A    between atoms: C_26  and  N_27
REMARK   13  A    between atoms: N_27  and  C_28
REMARK   14  A    between atoms: N_27  and  C_30
REMARK   15  A    between atoms: C_28  and  C_29
REMARK   16  A    between atoms: C_30  and  C_31
REMARK   17  A    between atoms: C_31  and  O_32
REMARK                            x       y       z     vdW  Elec       q    Type
REMARK                         _______ _______ _______ _____ _____    ______ ____
ROOT
ATOM      1  C   UNL     1      -0.977  12.005  18.247  0.00  0.00    +0.000 A 
ATOM      2  N   UNL     1      -1.237  13.348  18.266  0.00  0.00    +0.000 NA
ATOM      3  N   UNL     1      -0.227  13.955  18.861  0.00  0.00    +0.000 NA
ATOM      4  N   UNL     1       0.769  13.048  19.053  0.00  0.00    +0.000 N 
ATOM      5  C   UNL     1       0.292  11.757  18.775  0.00  0.00    +0.000 A 
ENDROOT
BRANCH   4   6
ATOM      6  C   UNL     1       2.042  13.510  19.497  0.00  0.00    +0.000 A 
ATOM      7  C   UNL     1       2.922  14.066  18.544  0.00  0.00    +0.000 A 
ATOM      8  C   UNL     1       4.169  14.614  18.917  0.00  0.00    +0.000 A 
ATOM      9  C   UNL     1       4.516  14.554  20.276  0.00  0.00    +0.000 A 
ATOM     10  C   UNL     1       3.668  13.971  21.221  0.00  0.00    +0.000 A 
ATOM     11  C   UNL     1       2.448  13.430  20.827  0.00  0.00    +0.000 A 
BRANCH   8  12
ATOM     12  C   UNL     1       5.113  15.179  17.861  0.00  0.00    +0.000 C 
ATOM     13  C   UNL     1       5.391  16.654  18.161  0.00  0.00    +0.000 C 
ATOM     14  C   UNL     1       6.429  14.412  17.691  0.00  0.00    +0.000 C 
ENDBRANCH   8  12
BRANCH   9  15
ATOM     15  O   UNL     1       5.698  15.018  20.783  0.00  0.00    +0.000 OA
ATOM     16  H   UNL     1       5.791  14.761  21.712  0.00  0.00    +0.000 HD
ENDBRANCH   9  15
BRANCH  11  17
ATOM     17  O   UNL     1       1.713  12.739  21.748  0.00  0.00    +0.000 OA
ATOM     18  H   UNL     1       2.254  12.605  22.545  0.00  0.00    +0.000 HD
ENDBRANCH  11  17
ENDBRANCH   4   6
BRANCH   5  19
ATOM     19  C   UNL     1       1.016  10.489  18.959  0.00  0.00    +0.000 A 
ATOM     20  C   UNL     1       1.806   9.919  17.950  0.00  0.00    +0.000 A 
ATOM     21  C   UNL     1       2.292   8.611  18.074  0.00  0.00    +0.000 A 
ATOM     22  C   UNL     1       2.079   7.885  19.252  0.00  0.00    +0.000 A 
ATOM     23  C   UNL     1       1.416   8.502  20.314  0.00  0.00    +0.000 A 
ATOM     24  C   UNL     1       0.872   9.774  20.157  0.00  0.00    +0.000 A 
BRANCH  22  25
ATOM     25  C   UNL     1       2.419   6.418  19.365  0.00  0.00    +0.000 C 
BRANCH  25  26
ATOM     26  N   UNL     1       2.686   5.724  18.095  0.00  0.00    +0.000 NA
BRANCH  26  27
ATOM     27  C   UNL     1       4.120   5.403  17.916  0.00  0.00    +0.000 C 
ATOM     28  C   UNL     1       5.000   5.395  19.167  0.00  0.00    +0.000 C 
ENDBRANCH  26  27
BRANCH  26  29
ATOM     29  C   UNL     1       1.853   4.502  17.984  0.00  0.00    +0.000 C 
BRANCH  29  30
ATOM     30  C   UNL     1       2.594   3.299  17.370  0.00  0.00    +0.000 C 
BRANCH  30  31
ATOM     31  O   UNL     1       1.890   2.089  17.630  0.00  0.00    +0.000 OA
ATOM     32  H   UNL     1       2.484   1.561  18.200  0.00  0.00    +0.000 HD
ENDBRANCH  30  31
ENDBRANCH  29  30
ENDBRANCH  26  29
ENDBRANCH  25  26
ENDBRANCH  22  25
ENDBRANCH   5  19
BRANCH   1  34
ATOM     33  N   UNL     1      -3.203  11.160  18.270  0.00  0.00    +0.000 N 
ATOM     34  C   UNL     1      -1.942  11.049  17.724  0.00  0.00    +0.000 C 
ATOM     35  O   UNL     1      -1.673  10.250  16.830  0.00  0.00    +0.000 OA
ATOM     36  H   UNL     1      -3.335  11.802  19.046  0.00  0.00    +0.000 HD
BRANCH  33  38
ATOM     37  C   UNL     1      -5.515  11.223  17.455  0.00  0.00    +0.000 C 
ATOM     38  C   UNL     1      -4.312  10.362  17.792  0.00  0.00    +0.000 C 
ENDBRANCH  33  38
ENDBRANCH   1  34
TORSDOF 13
ENDMDL
MODEL 9
REMARK VINA RESULT:      -6.0      4.081      8.647
REMARK  Name = 
REMARK  17 active torsions:
REMARK  status: ('A' for Active; 'I' for Inactive)
REMARK    1  A    between atoms: C_1  and  C_2
REMARK    2  A    between atoms: C_2  and  N_3
REMARK    3  A    between atoms: C_4  and  C_6
REMARK    4  A    between atoms: N_9  and  C_10
REMARK    5  A    between atoms: C_12  and  C_13
REMARK    6  A    between atoms: C_13  and  C_14
REMARK    7  A    between atoms: C_13  and  C_15
REMARK    8  A    between atoms: C_16  and  O_17
REMARK    9  A    between atoms: C_19  and  O_20
REMARK   10  A    between atoms: C_21  and  C_22
REMARK   11  A    between atoms: C_25  and  C_26
REMARK   12  A    between atoms: C_26  and  N_27
REMARK   13  A    between atoms: N_27  and  C_28
REMARK   14  A    between atoms: N_27  and  C_30
REMARK   15  A    between atoms: C_28  and  C_29
REMARK   16  A    between atoms: C_30  and  C_31
REMARK   17  A    between atoms: C_31  and  O_32
REMARK                            x       y       z     vdW  Elec       q    Type
REMARK                         _______ _______ _______ _____ _____    ______ ____
ROOT
ATOM      1  C   UNL     1       5.517   4.860  16.332  0.00  0.00    +0.000 A 
ATOM      2  N   UNL     1       4.377   4.105  16.278  0.00  0.00    +0.000 NA
ATOM      3  N   UNL     1       3.530   4.574  17.177  0.00  0.00    +0.000 NA
ATOM      4  N   UNL     1       4.030   5.738  17.675  0.00  0.00    +0.000 N 
ATOM      5  C   UNL     1       5.355   5.905  17.243  0.00  0.00    +0.000 A 
ENDROOT
BRANCH   4   6
ATOM      6  C   UNL     1       3.200   6.536  18.515  0.00  0.00    +0.000 A 
ATOM      7  C   UNL     1       2.709   7.757  18.005  0.00  0.00    +0.000 A 
ATOM      8  C   UNL     1       1.821   8.567  18.747  0.00  0.00    +0.000 A 
ATOM      9  C   UNL     1       1.471   8.124  20.033  0.00  0.00    +0.000 A 
ATOM     10  C   UNL     1       1.983   6.936  20.561  0.00  0.00    +0.000 A 
ATOM     11  C   UNL     1       2.863   6.160  19.813  0.00  0.00    +0.000 A 
BRANCH   8  12
ATOM     12  C   UNL     1       1.332   9.896  18.183  0.00  0.00    +0.000 C 
ATOM     13  C   UNL     1      -0.168   9.805  17.888  0.00  0.00    +0.000 C 
ATOM     14  C   UNL     1       1.629  11.120  19.057  0.00  0.00    +0.000 C 
ENDBRANCH   8  12
BRANCH   9  15
ATOM     15  O   UNL     1       0.645   8.811  20.878  0.00  0.00    +0.000 OA
ATOM     16  H   UNL     1       0.459   8.286  21.670  0.00  0.00    +0.000 HD
ENDBRANCH   9  15
BRANCH  11  17
ATOM     17  O   UNL     1       3.457   5.087  20.412  0.00  0.00    +0.000 OA
ATOM     18  H   UNL     1       4.049   4.656  19.771  0.00  0.00    +0.000 HD
ENDBRANCH  11  17
ENDBRANCH   4   6
BRANCH   5  19
ATOM     19  C   UNL     1       6.285   6.975  17.641  0.00  0.00    +0.000 A 
ATOM     20  C   UNL     1       6.126   8.305  17.226  0.00  0.00    +0.000 A 
ATOM     21  C   UNL     1       7.143   9.245  17.431  0.00  0.00    +0.000 A 
ATOM     22  C   UNL     1       8.298   8.897  18.141  0.00  0.00    +0.000 A 
ATOM     23  C   UNL     1       8.396   7.613  18.679  0.00  0.00    +0.000 A 
ATOM     24  C   UNL     1       7.416   6.662  18.409  0.00  0.00    +0.000 A 
BRANCH  22  25
ATOM     25  C   UNL     1       9.496   9.812  18.228  0.00  0.00    +0.000 C 
BRANCH  25  26
ATOM     26  N   UNL     1       9.258  11.117  18.864  0.00  0.00    +0.000 NA
BRANCH  26  27
ATOM     27  C   UNL     1      10.243  11.416  19.929  0.00  0.00    +0.000 C 
ATOM     28  C   UNL     1      11.701  11.595  19.506  0.00  0.00    +0.000 C 
ENDBRANCH  26  27
BRANCH  26  29
ATOM     29  C   UNL     1       9.235  12.197  17.847  0.00  0.00    +0.000 C 
BRANCH  29  30
ATOM     30  C   UNL     1       8.738  13.550  18.389  0.00  0.00    +0.000 C 
BRANCH  30  31
ATOM     31  O   UNL     1       9.621  14.600  18.006  0.00  0.00    +0.000 OA
ATOM     32  H   UNL     1       9.104  15.423  18.108  0.00  0.00    +0.000 HD
ENDBRANCH  30  31
ENDBRANCH  29  30
ENDBRANCH  26  29
ENDBRANCH  25  26
ENDBRANCH  22  25
ENDBRANCH   5  19
BRANCH   1  34
ATOM     33  N   UNL     1       6.421   4.498  14.159  0.00  0.00    +0.000 N 
ATOM     34  C   UNL     1       6.678   4.545  15.513  0.00  0.00    +0.000 C 
ATOM     35  O   UNL     1       7.804   4.393  15.981  0.00  0.00    +0.000 OA
ATOM     36  H   UNL     1       5.457   4.574  13.851  0.00  0.00    +0.000 HD
BRANCH  33  38
ATOM     37  C   UNL     1       7.998   5.627  12.658  0.00  0.00    +0.000 C 
ATOM     38  C   UNL     1       7.479   4.305  13.190  0.00  0.00    +0.000 C 
ENDBRANCH  33  38
ENDBRANCH   1  34
TORSDOF 13
ENDMDL
