MODEL 1
REMARK VINA RESULT:      -6.6      0.000      0.000
REMARK  Name = 
REMARK  10 active torsions:
REMARK  status: ('A' for Active; 'I' for Inactive)
REMARK    1  A    between atoms: C_1  and  C_2
REMARK    2  A    between atoms: C_2  and  C_3
REMARK    3  A    between atoms: C_3  and  C_4
REMARK    4  A    between atoms: C_4  and  C_5
REMARK    5  A    between atoms: C_5  and  C_24
REMARK    6  A    between atoms: C_6  and  C_7
REMARK    7  A    between atoms: C_6  and  C_13
REMARK    8  A    between atoms: C_16  and  N_17
REMARK    9  A    between atoms: N_17  and  S_18
REMARK   10  A    between atoms: S_18  and  C_19
REMARK                            x       y       z     vdW  Elec       q    Type
REMARK                         _______ _______ _______ _____ _____    ______ ____
ROOT
ATOM      1  C   UNL     1       4.306   4.200  17.887  0.00  0.00    +0.000 C 
ATOM      2  C   UNL     1       4.529   5.471  18.326  0.00  0.00    +0.000 C 
ENDROOT
BRANCH   2   3
ATOM      3  C   UNL     1       5.821   6.166  18.087  0.00  0.00    +0.000 A 
ATOM      4  C   UNL     1       5.875   7.218  17.164  0.00  0.00    +0.000 A 
ATOM      5  C   UNL     1       7.024   8.005  17.058  0.00  0.00    +0.000 A 
ATOM      6  C   UNL     1       8.126   7.744  17.869  0.00  0.00    +0.000 A 
ATOM      7  C   UNL     1       8.092   6.681  18.772  0.00  0.00    +0.000 A 
ATOM      8  C   UNL     1       6.944   5.892  18.879  0.00  0.00    +0.000 A 
ENDBRANCH   2   3
BRANCH   2   9
ATOM      9  C   UNL     1       3.498   6.187  19.131  0.00  0.00    +0.000 A 
ATOM     10  C   UNL     1       2.950   7.376  18.627  0.00  0.00    +0.000 A 
ATOM     11  C   UNL     1       1.942   8.038  19.325  0.00  0.00    +0.000 A 
ATOM     12  C   UNL     1       1.456   7.500  20.515  0.00  0.00    +0.000 A 
ATOM     13  C   UNL     1       2.005   6.332  21.037  0.00  0.00    +0.000 A 
ATOM     14  C   UNL     1       3.028   5.675  20.345  0.00  0.00    +0.000 A 
BRANCH  12  15
ATOM     15  N   UNL     1       0.406   8.163  21.187  0.00  0.00    +0.000 N 
ATOM     16  H   UNL     1      -0.511   7.732  21.272  0.00  0.00    +0.000 HD
BRANCH  15  17
ATOM     17  S   UNL     1       0.673   9.590  22.011  0.00  0.00    +0.000 S 
ATOM     18  C   UNL     1      -0.701   9.662  23.155  0.00  0.00    +0.000 C 
ATOM     19  O   UNL     1       1.897   9.473  22.772  0.00  0.00    +0.000 OA
ATOM     20  O   UNL     1       0.491  10.645  21.041  0.00  0.00    +0.000 OA
ENDBRANCH  15  17
ENDBRANCH  12  15
ENDBRANCH   2   9
BRANCH   1  21
ATOM     21  C   UNL     1       2.987   3.558  18.122  0.00  0.00    +0.000 A 
ATOM     22  C   UNL     1       1.829   4.100  17.545  0.00  0.00    +0.000 A 
ATOM     23  C   UNL     1       0.572   3.573  17.844  0.00  0.00    +0.000 A 
ATOM     24  C   UNL     1       0.459   2.504  18.730  0.00  0.00    +0.000 A 
ATOM     25  C   UNL     1       1.604   1.949  19.301  0.00  0.00    +0.000 A 
ATOM     26  C   UNL     1       2.864   2.468  18.993  0.00  0.00    +0.000 A 
ENDBRANCH   1  21
BRANCH   1  27
ATOM     27  C   UNL     1       5.352   3.294  17.251  0.00  0.00    +0.000 C 
BRANCH  27  28
ATOM     28  C   UNL     1       5.688   3.500  15.765  0.00  0.00    +0.000 C 
BRANCH  28  30
ATOM     29  C   UNL     1       6.914   5.024  14.200  0.00  0.00    +0.000 C 
ATOM     30  C   UNL     1       7.004   4.228  15.496  0.00  0.00    +0.000 C 
ENDBRANCH  28  30
ENDBRANCH  27  28
ENDBRANCH   1  27
TORSDOF 8
ENDMDL
MODEL 2
REMARK VINA RESULT:      -6.2      0.452      1.005
REMARK  Name = 
REMARK  10 active torsions:
REMARK  status: ('A' for Active; 'I' for Inactive)
REMARK    1  A    between atoms: C_1  and  C_2
REMARK    2  A    between atoms: C_2  and  C_3
REMARK    3  A    between atoms: C_3  and  C_4
REMARK    4  A    between atoms: C_4  and  C_5
REMARK    5  A    between atoms: C_5  and  C_24
REMARK    6  A    between atoms: C_6  and  C_7
REMARK    7  A    between atoms: C_6  and  C_13
REMARK    8  A    between atoms: C_16  and  N_17
REMARK    9  A    between atoms: N_17  and  S_18
REMARK   10  A    between atoms: S_18  and  C_19
REMARK                            x       y       z     vdW  Elec       q    Type
REMARK                         _______ _______ _______ _____ _____    ______ ____
ROOT
ATOM      1  C   UNL     1       4.391   4.291  17.935  0.00  0.00    +0.000 C 
ATOM      2  C   UNL     1       4.543   5.602  18.272  0.00  0.00    +0.000 C 
ENDROOT
BRANCH   2   3
ATOM      3  C   UNL     1       5.826   6.322  18.054  0.00  0.00    +0.000 A 
ATOM      4  C   UNL     1       5.854   7.433  17.203  0.00  0.00    +0.000 A 
ATOM      5  C   UNL     1       6.996   8.235  17.126  0.00  0.00    +0.000 A 
ATOM      6  C   UNL     1       8.116   7.929  17.896  0.00  0.00    +0.000 A 
ATOM      7  C   UNL     1       8.106   6.809  18.727  0.00  0.00    +0.000 A 
ATOM      8  C   UNL     1       6.966   6.005  18.804  0.00  0.00    +0.000 A 
ENDBRANCH   2   3
BRANCH   2   9
ATOM      9  C   UNL     1       3.439   6.347  18.942  0.00  0.00    +0.000 A 
ATOM     10  C   UNL     1       2.982   5.903  20.192  0.00  0.00    +0.000 A 
ATOM     11  C   UNL     1       1.992   6.611  20.872  0.00  0.00    +0.000 A 
ATOM     12  C   UNL     1       1.477   7.781  20.321  0.00  0.00    +0.000 A 
ATOM     13  C   UNL     1       1.906   8.222  19.071  0.00  0.00    +0.000 A 
ATOM     14  C   UNL     1       2.887   7.504  18.381  0.00  0.00    +0.000 A 
BRANCH  12  15
ATOM     15  N   UNL     1       0.505   8.507  21.044  0.00  0.00    +0.000 N 
ATOM     16  H   UNL     1      -0.470   8.217  21.042  0.00  0.00    +0.000 HD
BRANCH  15  17
ATOM     17  S   UNL     1       0.941   9.756  22.061  0.00  0.00    +0.000 S 
ATOM     18  C   UNL     1      -0.486   9.933  23.125  0.00  0.00    +0.000 C 
ATOM     19  O   UNL     1       2.064   9.337  22.869  0.00  0.00    +0.000 OA
ATOM     20  O   UNL     1       1.015  10.935  21.229  0.00  0.00    +0.000 OA
ENDBRANCH  15  17
ENDBRANCH  12  15
ENDBRANCH   2   9
BRANCH   1  21
ATOM     21  C   UNL     1       3.079   3.622  18.142  0.00  0.00    +0.000 A 
ATOM     22  C   UNL     1       1.928   4.126  17.520  0.00  0.00    +0.000 A 
ATOM     23  C   UNL     1       0.674   3.575  17.791  0.00  0.00    +0.000 A 
ATOM     24  C   UNL     1       0.559   2.521  18.693  0.00  0.00    +0.000 A 
ATOM     25  C   UNL     1       1.698   2.004  19.310  0.00  0.00    +0.000 A 
ATOM     26  C   UNL     1       2.954   2.547  19.030  0.00  0.00    +0.000 A 
ENDBRANCH   1  21
BRANCH   1  27
ATOM     27  C   UNL     1       5.504   3.372  17.449  0.00  0.00    +0.000 C 
BRANCH  27  28
ATOM     28  C   UNL     1       5.639   3.126  15.938  0.00  0.00    +0.000 C 
BRANCH  28  30
ATOM     29  C   UNL     1       6.183   4.164  13.724  0.00  0.00    +0.000 C 
ATOM     30  C   UNL     1       5.493   4.373  15.066  0.00  0.00    +0.000 C 
ENDBRANCH  28  30
ENDBRANCH  27  28
ENDBRANCH   1  27
TORSDOF 8
ENDMDL
MODEL 3
REMARK VINA RESULT:      -6.2      0.700      1.221
REMARK  Name = 
REMARK  10 active torsions:
REMARK  status: ('A' for Active; 'I' for Inactive)
REMARK    1  A    between atoms: C_1  and  C_2
REMARK    2  A    between atoms: C_2  and  C_3
REMARK    3  A    between atoms: C_3  and  C_4
REMARK    4  A    between atoms: C_4  and  C_5
REMARK    5  A    between atoms: C_5  and  C_24
REMARK    6  A    between atoms: C_6  and  C_7
REMARK    7  A    between atoms: C_6  and  C_13
REMARK    8  A    between atoms: C_16  and  N_17
REMARK    9  A    between atoms: N_17  and  S_18
REMARK   10  A    between atoms: S_18  and  C_19
REMARK                            x       y       z     vdW  Elec       q    Type
REMARK                         _______ _______ _______ _____ _____    ______ ____
ROOT
ATOM      1  C   UNL     1       4.214   4.285  18.042  0.00  0.00    +0.000 C 
ATOM      2  C   UNL     1       4.389   5.555  18.502  0.00  0.00    +0.000 C 
ENDROOT
BRANCH   2   3
ATOM      3  C   UNL     1       5.661   6.295  18.289  0.00  0.00    +0.000 A 
ATOM      4  C   UNL     1       6.785   5.965  19.056  0.00  0.00    +0.000 A 
ATOM      5  C   UNL     1       8.034   6.512  18.750  0.00  0.00    +0.000 A 
ATOM      6  C   UNL     1       8.166   7.394  17.680  0.00  0.00    +0.000 A 
ATOM      7  C   UNL     1       7.047   7.749  16.927  0.00  0.00    +0.000 A 
ATOM      8  C   UNL     1       5.797   7.205  17.232  0.00  0.00    +0.000 A 
ENDBRANCH   2   3
BRANCH   2   9
ATOM      9  C   UNL     1       3.326   6.225  19.303  0.00  0.00    +0.000 A 
ATOM     10  C   UNL     1       2.797   7.441  18.847  0.00  0.00    +0.000 A 
ATOM     11  C   UNL     1       1.760   8.063  19.540  0.00  0.00    +0.000 A 
ATOM     12  C   UNL     1       1.228   7.459  20.677  0.00  0.00    +0.000 A 
ATOM     13  C   UNL     1       1.758   6.262  21.154  0.00  0.00    +0.000 A 
ATOM     14  C   UNL     1       2.808   5.646  20.467  0.00  0.00    +0.000 A 
BRANCH  12  15
ATOM     15  N   UNL     1       0.151   8.084  21.343  0.00  0.00    +0.000 N 
ATOM     16  H   UNL     1      -0.775   7.662  21.344  0.00  0.00    +0.000 HD
BRANCH  15  17
ATOM     17  S   UNL     1       0.389   9.436  22.292  0.00  0.00    +0.000 S 
ATOM     18  C   UNL     1       0.128  10.787  21.149  0.00  0.00    +0.000 C 
ATOM     19  O   UNL     1      -0.641   9.488  23.305  0.00  0.00    +0.000 OA
ATOM     20  O   UNL     1       1.790   9.426  22.647  0.00  0.00    +0.000 OA
ENDBRANCH  15  17
ENDBRANCH  12  15
ENDBRANCH   2   9
BRANCH   1  21
ATOM     21  C   UNL     1       2.913   3.596  18.251  0.00  0.00    +0.000 A 
ATOM     22  C   UNL     1       1.745   4.108  17.668  0.00  0.00    +0.000 A 
ATOM     23  C   UNL     1       0.502   3.535  17.944  0.00  0.00    +0.000 A 
ATOM     24  C   UNL     1       0.414   2.451  18.813  0.00  0.00    +0.000 A 
ATOM     25  C   UNL     1       1.570   1.925  19.390  0.00  0.00    +0.000 A 
ATOM     26  C   UNL     1       2.816   2.490  19.105  0.00  0.00    +0.000 A 
ENDBRANCH   1  21
BRANCH   1  27
ATOM     27  C   UNL     1       5.296   3.422  17.405  0.00  0.00    +0.000 C 
BRANCH  27  28
ATOM     28  C   UNL     1       5.605   3.624  15.913  0.00  0.00    +0.000 C 
BRANCH  28  30
ATOM     29  C   UNL     1       6.964   5.026  14.345  0.00  0.00    +0.000 C 
ATOM     30  C   UNL     1       6.996   4.181  15.612  0.00  0.00    +0.000 C 
ENDBRANCH  28  30
ENDBRANCH  27  28
ENDBRANCH   1  27
TORSDOF 8
ENDMDL
MODEL 4
REMARK VINA RESULT:      -6.0      7.667     10.859
REMARK  Name = 
REMARK  10 active torsions:
REMARK  status: ('A' for Active; 'I' for Inactive)
REMARK    1  A    between atoms: C_1  and  C_2
REMARK    2  A    between atoms: C_2  and  C_3
REMARK    3  A    between atoms: C_3  and  C_4
REMARK    4  A    between atoms: C_4  and  C_5
REMARK    5  A    between atoms: C_5  and  C_24
REMARK    6  A    between atoms: C_6  and  C_7
REMARK    7  A    between atoms: C_6  and  C_13
REMARK    8  A    between atoms: C_16  and  N_17
REMARK    9  A    between atoms: N_17  and  S_18
REMARK   10  A    between atoms: S_18  and  C_19
REMARK                            x       y       z     vdW  Elec       q    Type
REMARK                         _______ _______ _______ _____ _____    ______ ____
ROOT
ATOM      1  C   UNL     1      -3.683  12.527  20.228  0.00  0.00    +0.000 C 
ATOM      2  C   UNL     1      -2.673  12.178  19.382  0.00  0.00    +0.000 C 
ENDROOT
BRANCH   2   3
ATOM      3  C   UNL     1      -2.912  11.326  18.188  0.00  0.00    +0.000 A 
ATOM      4  C   UNL     1      -3.833  11.744  17.219  0.00  0.00    +0.000 A 
ATOM      5  C   UNL     1      -3.939  11.060  16.005  0.00  0.00    +0.000 A 
ATOM      6  C   UNL     1      -3.131   9.954  15.754  0.00  0.00    +0.000 A 
ATOM      7  C   UNL     1      -2.230   9.514  16.724  0.00  0.00    +0.000 A 
ATOM      8  C   UNL     1      -2.123  10.195  17.939  0.00  0.00    +0.000 A 
ENDBRANCH   2   3
BRANCH   2   9
ATOM      9  C   UNL     1      -1.268  12.586  19.669  0.00  0.00    +0.000 A 
ATOM     10  C   UNL     1      -0.507  11.819  20.563  0.00  0.00    +0.000 A 
ATOM     11  C   UNL     1       0.827  12.139  20.807  0.00  0.00    +0.000 A 
ATOM     12  C   UNL     1       1.416  13.208  20.136  0.00  0.00    +0.000 A 
ATOM     13  C   UNL     1       0.667  13.991  19.261  0.00  0.00    +0.000 A 
ATOM     14  C   UNL     1      -0.676  13.681  19.029  0.00  0.00    +0.000 A 
BRANCH  12  15
ATOM     15  N   UNL     1       2.780  13.491  20.365  0.00  0.00    +0.000 N 
ATOM     16  H   UNL     1       3.492  13.186  19.705  0.00  0.00    +0.000 HD
BRANCH  15  17
ATOM     17  S   UNL     1       3.259  14.478  21.623  0.00  0.00    +0.000 S 
ATOM     18  C   UNL     1       3.903  15.922  20.786  0.00  0.00    +0.000 C 
ATOM     19  O   UNL     1       2.093  14.873  22.383  0.00  0.00    +0.000 OA
ATOM     20  O   UNL     1       4.371  13.804  22.252  0.00  0.00    +0.000 OA
ENDBRANCH  15  17
ENDBRANCH  12  15
ENDBRANCH   2   9
BRANCH   1  21
ATOM     21  C   UNL     1      -3.401  13.407  21.392  0.00  0.00    +0.000 A 
ATOM     22  C   UNL     1      -3.243  12.852  22.670  0.00  0.00    +0.000 A 
ATOM     23  C   UNL     1      -3.087  13.674  23.788  0.00  0.00    +0.000 A 
ATOM     24  C   UNL     1      -3.097  15.058  23.640  0.00  0.00    +0.000 A 
ATOM     25  C   UNL     1      -3.241  15.622  22.372  0.00  0.00    +0.000 A 
ATOM     26  C   UNL     1      -3.386  14.800  21.251  0.00  0.00    +0.000 A 
ENDBRANCH   1  21
BRANCH   1  27
ATOM     27  C   UNL     1      -5.108  11.995  20.162  0.00  0.00    +0.000 C 
BRANCH  27  28
ATOM     28  C   UNL     1      -6.198  12.901  19.566  0.00  0.00    +0.000 C 
BRANCH  28  30
ATOM     29  C   UNL     1      -6.921  10.691  18.634  0.00  0.00    +0.000 C 
ATOM     30  C   UNL     1      -7.228  12.183  18.694  0.00  0.00    +0.000 C 
ENDBRANCH  28  30
ENDBRANCH  27  28
ENDBRANCH   1  27
TORSDOF 8
ENDMDL
MODEL 5
REMARK VINA RESULT:      -5.9      5.205      9.517
REMARK  Name = 
REMARK  10 active torsions:
REMARK  status: ('A' for Active; 'I' for Inactive)
REMARK    1  A    between atoms: C_1  and  C_2
REMARK    2  A    between atoms: C_2  and  C_3
REMARK    3  A    between atoms: C_3  and  C_4
REMARK    4  A    between atoms: C_4  and  C_5
REMARK    5  A    between atoms: C_5  and  C_24
REMARK    6  A    between atoms: C_6  and  C_7
REMARK    7  A    between atoms: C_6  and  C_13
REMARK    8  A    between atoms: C_16  and  N_17
REMARK    9  A    between atoms: N_17  and  S_18
REMARK   10  A    between atoms: S_18  and  C_19
REMARK                            x       y       z     vdW  Elec       q    Type
REMARK                         _______ _______ _______ _____ _____    ______ ____
ROOT
ATOM      1  C   UNL     1      -0.182  12.784  18.899  0.00  0.00    +0.000 C 
ATOM      2  C   UNL     1      -0.566  11.487  18.737  0.00  0.00    +0.000 C 
ENDROOT
BRANCH   2   3
ATOM      3  C   UNL     1      -1.959  11.124  18.368  0.00  0.00    +0.000 A 
ATOM      4  C   UNL     1      -3.028  11.794  18.976  0.00  0.00    +0.000 A 
ATOM      5  C   UNL     1      -4.333  11.605  18.514  0.00  0.00    +0.000 A 
ATOM      6  C   UNL     1      -4.579  10.744  17.447  0.00  0.00    +0.000 A 
ATOM      7  C   UNL     1      -3.523  10.052  16.853  0.00  0.00    +0.000 A 
ATOM      8  C   UNL     1      -2.218  10.238  17.314  0.00  0.00    +0.000 A 
ENDBRANCH   2   3
BRANCH   2   9
ATOM      9  C   UNL     1       0.392  10.374  18.997  0.00  0.00    +0.000 A 
ATOM     10  C   UNL     1       0.379   9.747  20.251  0.00  0.00    +0.000 A 
ATOM     11  C   UNL     1       1.219   8.665  20.507  0.00  0.00    +0.000 A 
ATOM     12  C   UNL     1       2.056   8.186  19.501  0.00  0.00    +0.000 A 
ATOM     13  C   UNL     1       2.094   8.813  18.258  0.00  0.00    +0.000 A 
ATOM     14  C   UNL     1       1.263   9.908  18.006  0.00  0.00    +0.000 A 
BRANCH  12  15
ATOM     15  N   UNL     1       2.869   7.063  19.765  0.00  0.00    +0.000 N 
ATOM     16  H   UNL     1       3.772   7.171  20.223  0.00  0.00    +0.000 HD
BRANCH  15  17
ATOM     17  S   UNL     1       2.314   5.512  19.499  0.00  0.00    +0.000 S 
ATOM     18  C   UNL     1       3.790   4.516  19.667  0.00  0.00    +0.000 C 
ATOM     19  O   UNL     1       1.396   5.152  20.557  0.00  0.00    +0.000 OA
ATOM     20  O   UNL     1       1.912   5.470  18.112  0.00  0.00    +0.000 OA
ENDBRANCH  15  17
ENDBRANCH  12  15
ENDBRANCH   2   9
BRANCH   1  21
ATOM     21  C   UNL     1       1.230  13.101  19.238  0.00  0.00    +0.000 A 
ATOM     22  C   UNL     1       1.628  13.188  20.579  0.00  0.00    +0.000 A 
ATOM     23  C   UNL     1       2.922  13.590  20.913  0.00  0.00    +0.000 A 
ATOM     24  C   UNL     1       3.829  13.918  19.909  0.00  0.00    +0.000 A 
ATOM     25  C   UNL     1       3.449  13.825  18.570  0.00  0.00    +0.000 A 
ATOM     26  C   UNL     1       2.157  13.410  18.235  0.00  0.00    +0.000 A 
ENDBRANCH   1  21
BRANCH   1  27
ATOM     27  C   UNL     1      -1.116  13.987  18.875  0.00  0.00    +0.000 C 
BRANCH  27  28
ATOM     28  C   UNL     1      -0.637  15.294  19.527  0.00  0.00    +0.000 C 
BRANCH  28  30
ATOM     29  C   UNL     1       1.170  16.929  18.945  0.00  0.00    +0.000 C 
ATOM     30  C   UNL     1      -0.195  16.380  18.546  0.00  0.00    +0.000 C 
ENDBRANCH  28  30
ENDBRANCH  27  28
ENDBRANCH   1  27
TORSDOF 8
ENDMDL
MODEL 6
REMARK VINA RESULT:      -5.9      7.670     10.875
REMARK  Name = 
REMARK  10 active torsions:
REMARK  status: ('A' for Active; 'I' for Inactive)
REMARK    1  A    between atoms: C_1  and  C_2
REMARK    2  A    between atoms: C_2  and  C_3
REMARK    3  A    between atoms: C_3  and  C_4
REMARK    4  A    between atoms: C_4  and  C_5
REMARK    5  A    between atoms: C_5  and  C_24
REMARK    6  A    between atoms: C_6  and  C_7
REMARK    7  A    between atoms: C_6  and  C_13
REMARK    8  A    between atoms: C_16  and  N_17
REMARK    9  A    between atoms: N_17  and  S_18
REMARK   10  A    between atoms: S_18  and  C_19
REMARK                            x       y       z     vdW  Elec       q    Type
REMARK                         _______ _______ _______ _____ _____    ______ ____
ROOT
ATOM      1  C   UNL     1      -3.912  12.330  19.777  0.00  0.00    +0.000 C 
ATOM      2  C   UNL     1      -2.835  11.937  19.041  0.00  0.00    +0.000 C 
ENDROOT
BRANCH   2   3
ATOM      3  C   UNL     1      -2.985  11.103  17.820  0.00  0.00    +0.000 A 
ATOM      4  C   UNL     1      -3.873  11.507  16.816  0.00  0.00    +0.000 A 
ATOM      5  C   UNL     1      -3.896  10.846  15.585  0.00  0.00    +0.000 A 
ATOM      6  C   UNL     1      -3.034   9.777  15.352  0.00  0.00    +0.000 A 
ATOM      7  C   UNL     1      -2.164   9.350  16.355  0.00  0.00    +0.000 A 
ATOM      8  C   UNL     1      -2.141  10.008  17.588  0.00  0.00    +0.000 A 
ENDBRANCH   2   3
BRANCH   2   9
ATOM      9  C   UNL     1      -1.451  12.277  19.480  0.00  0.00    +0.000 A 
ATOM     10  C   UNL     1      -0.783  13.341  18.856  0.00  0.00    +0.000 A 
ATOM     11  C   UNL     1       0.488  13.722  19.283  0.00  0.00    +0.000 A 
ATOM     12  C   UNL     1       1.084  13.062  20.355  0.00  0.00    +0.000 A 
ATOM     13  C   UNL     1       0.441  11.991  20.970  0.00  0.00    +0.000 A 
ATOM     14  C   UNL     1      -0.827  11.597  20.532  0.00  0.00    +0.000 A 
BRANCH  12  15
ATOM     15  N   UNL     1       2.354  13.490  20.800  0.00  0.00    +0.000 N 
ATOM     16  H   UNL     1       3.204  13.074  20.426  0.00  0.00    +0.000 HD
BRANCH  15  17
ATOM     17  S   UNL     1       2.515  14.802  21.819  0.00  0.00    +0.000 S 
ATOM     18  C   UNL     1       2.920  16.138  20.701  0.00  0.00    +0.000 C 
ATOM     19  O   UNL     1       1.234  15.087  22.427  0.00  0.00    +0.000 OA
ATOM     20  O   UNL     1       3.684  14.535  22.624  0.00  0.00    +0.000 OA
ENDBRANCH  15  17
ENDBRANCH  12  15
ENDBRANCH   2   9
BRANCH   1  21
ATOM     21  C   UNL     1      -3.716  13.191  20.973  0.00  0.00    +0.000 A 
ATOM     22  C   UNL     1      -3.547  14.575  20.822  0.00  0.00    +0.000 A 
ATOM     23  C   UNL     1      -3.254  15.380  21.924  0.00  0.00    +0.000 A 
ATOM     24  C   UNL     1      -3.118  14.809  23.186  0.00  0.00    +0.000 A 
ATOM     25  C   UNL     1      -3.295  13.435  23.350  0.00  0.00    +0.000 A 
ATOM     26  C   UNL     1      -3.600  12.630  22.251  0.00  0.00    +0.000 A 
ENDBRANCH   1  21
BRANCH   1  27
ATOM     27  C   UNL     1      -5.346  11.867  19.554  0.00  0.00    +0.000 C 
BRANCH  27  28
ATOM     28  C   UNL     1      -6.486  12.726  20.125  0.00  0.00    +0.000 C 
BRANCH  28  30
ATOM     29  C   UNL     1      -7.200  12.774  22.525  0.00  0.00    +0.000 C 
ATOM     30  C   UNL     1      -7.335  12.041  21.196  0.00  0.00    +0.000 C 
ENDBRANCH  28  30
ENDBRANCH  27  28
ENDBRANCH   1  27
TORSDOF 8
ENDMDL
MODEL 7
REMARK VINA RESULT:      -5.8      4.909      9.528
REMARK  Name = 
REMARK  10 active torsions:
REMARK  status: ('A' for Active; 'I' for Inactive)
REMARK    1  A    between atoms: C_1  and  C_2
REMARK    2  A    between atoms: C_2  and  C_3
REMARK    3  A    between atoms: C_3  and  C_4
REMARK    4  A    between atoms: C_4  and  C_5
REMARK    5  A    between atoms: C_5  and  C_24
REMARK    6  A    between atoms: C_6  and  C_7
REMARK    7  A    between atoms: C_6  and  C_13
REMARK    8  A    between atoms: C_16  and  N_17
REMARK    9  A    between atoms: N_17  and  S_18
REMARK   10  A    between atoms: S_18  and  C_19
REMARK                            x       y       z     vdW  Elec       q    Type
REMARK                         _______ _______ _______ _____ _____    ______ ____
ROOT
ATOM      1  C   UNL     1      -0.111  12.739  18.745  0.00  0.00    +0.000 C 
ATOM      2  C   UNL     1      -0.496  11.444  18.569  0.00  0.00    +0.000 C 
ENDROOT
BRANCH   2   3
ATOM      3  C   UNL     1      -1.875  11.089  18.142  0.00  0.00    +0.000 A 
ATOM      4  C   UNL     1      -2.968  11.614  18.843  0.00  0.00    +0.000 A 
ATOM      5  C   UNL     1      -4.266  11.448  18.352  0.00  0.00    +0.000 A 
ATOM      6  C   UNL     1      -4.479  10.755  17.163  0.00  0.00    +0.000 A 
ATOM      7  C   UNL     1      -3.399  10.206  16.472  0.00  0.00    +0.000 A 
ATOM      8  C   UNL     1      -2.100  10.369  16.961  0.00  0.00    +0.000 A 
ENDBRANCH   2   3
BRANCH   2   9
ATOM      9  C   UNL     1       0.443  10.326  18.871  0.00  0.00    +0.000 A 
ATOM     10  C   UNL     1       0.373   9.700  20.123  0.00  0.00    +0.000 A 
ATOM     11  C   UNL     1       1.196   8.613  20.415  0.00  0.00    +0.000 A 
ATOM     12  C   UNL     1       2.071   8.129  19.446  0.00  0.00    +0.000 A 
ATOM     13  C   UNL     1       2.166   8.754  18.205  0.00  0.00    +0.000 A 
ATOM     14  C   UNL     1       1.353   9.854  17.917  0.00  0.00    +0.000 A 
BRANCH  12  15
ATOM     15  N   UNL     1       2.867   7.001  19.745  0.00  0.00    +0.000 N 
ATOM     16  H   UNL     1       3.746   7.103  20.246  0.00  0.00    +0.000 HD
BRANCH  15  17
ATOM     17  S   UNL     1       2.318   5.454  19.447  0.00  0.00    +0.000 S 
ATOM     18  C   UNL     1       3.777   4.449  19.693  0.00  0.00    +0.000 C 
ATOM     19  O   UNL     1       1.342   5.097  20.454  0.00  0.00    +0.000 OA
ATOM     20  O   UNL     1       1.991   5.415  18.040  0.00  0.00    +0.000 OA
ENDBRANCH  15  17
ENDBRANCH  12  15
ENDBRANCH   2   9
BRANCH   1  21
ATOM     21  C   UNL     1       1.287  13.048  19.143  0.00  0.00    +0.000 A 
ATOM     22  C   UNL     1       1.637  13.095  20.500  0.00  0.00    +0.000 A 
ATOM     23  C   UNL     1       2.918  13.490  20.891  0.00  0.00    +0.000 A 
ATOM     24  C   UNL     1       3.859  13.849  19.929  0.00  0.00    +0.000 A 
ATOM     25  C   UNL     1       3.526  13.794  18.576  0.00  0.00    +0.000 A 
ATOM     26  C   UNL     1       2.248  13.388  18.183  0.00  0.00    +0.000 A 
ENDBRANCH   1  21
BRANCH   1  27
ATOM     27  C   UNL     1      -1.036  13.948  18.681  0.00  0.00    +0.000 C 
BRANCH  27  28
ATOM     28  C   UNL     1      -0.990  14.963  19.834  0.00  0.00    +0.000 C 
BRANCH  28  30
ATOM     29  C   UNL     1      -1.895  13.666  21.777  0.00  0.00    +0.000 C 
ATOM     30  C   UNL     1      -2.133  14.846  20.842  0.00  0.00    +0.000 C 
ENDBRANCH  28  30
ENDBRANCH  27  28
ENDBRANCH   1  27
TORSDOF 8
ENDMDL
MODEL 8
REMARK VINA RESULT:      -5.8      8.559     10.546
REMARK  Name = 
REMARK  10 active torsions:
REMARK  status: ('A' for Active; 'I' for Inactive)
REMARK    1  A    between atoms: C_1  and  C_2
REMARK    2  A    between atoms: C_2  and  C_3
REMARK    3  A    between atoms: C_3  and  C_4
REMARK    4  A    between atoms: C_4  and  C_5
REMARK    5  A    between atoms: C_5  and  C_24
REMARK    6  A    between atoms: C_6  and  C_7
REMARK    7  A    between atoms: C_6  and  C_13
REMARK    8  A    between atoms: C_16  and  N_17
REMARK    9  A    between atoms: N_17  and  S_18
REMARK   10  A    between atoms: S_18  and  C_19
REMARK                            x       y       z     vdW  Elec       q    Type
REMARK                         _______ _______ _______ _____ _____    ______ ____
ROOT
ATOM      1  C   UNL     1       8.526  15.186  20.331  0.00  0.00    +0.000 C 
ATOM      2  C   UNL     1       9.042  13.997  20.752  0.00  0.00    +0.000 C 
ENDROOT
BRANCH   2   3
ATOM      3  C   UNL     1      10.010  13.228  19.927  0.00  0.00    +0.000 A 
ATOM      4  C   UNL     1      11.366  13.227  20.281  0.00  0.00    +0.000 A 
ATOM      5  C   UNL     1      12.262  12.369  19.638  0.00  0.00    +0.000 A 
ATOM      6  C   UNL     1      11.811  11.511  18.637  0.00  0.00    +0.000 A 
ATOM      7  C   UNL     1      10.468  11.525  18.260  0.00  0.00    +0.000 A 
ATOM      8  C   UNL     1       9.570  12.383  18.900  0.00  0.00    +0.000 A 
ENDBRANCH   2   3
BRANCH   2   9
ATOM      9  C   UNL     1       8.593  13.387  22.037  0.00  0.00    +0.000 A 
ATOM     10  C   UNL     1       8.926  14.022  23.242  0.00  0.00    +0.000 A 
ATOM     11  C   UNL     1       8.471  13.511  24.457  0.00  0.00    +0.000 A 
ATOM     12  C   UNL     1       7.657  12.381  24.470  0.00  0.00    +0.000 A 
ATOM     13  C   UNL     1       7.335  11.729  23.283  0.00  0.00    +0.000 A 
ATOM     14  C   UNL     1       7.804  12.231  22.065  0.00  0.00    +0.000 A 
BRANCH  12  15
ATOM     15  N   UNL     1       7.172  11.903  25.707  0.00  0.00    +0.000 N 
ATOM     16  H   UNL     1       7.812  11.558  26.418  0.00  0.00    +0.000 HD
BRANCH  15  17
ATOM     17  S   UNL     1       5.560  12.045  26.115  0.00  0.00    +0.000 S 
ATOM     18  C   UNL     1       5.592  12.053  27.904  0.00  0.00    +0.000 C 
ATOM     19  O   UNL     1       5.070  13.327  25.661  0.00  0.00    +0.000 OA
ATOM     20  O   UNL     1       4.936  10.812  25.694  0.00  0.00    +0.000 OA
ENDBRANCH  15  17
ENDBRANCH  12  15
ENDBRANCH   2   9
BRANCH   1  21
ATOM     21  C   UNL     1       7.585  15.934  21.205  0.00  0.00    +0.000 A 
ATOM     22  C   UNL     1       6.259  15.501  21.341  0.00  0.00    +0.000 A 
ATOM     23  C   UNL     1       5.336  16.254  22.070  0.00  0.00    +0.000 A 
ATOM     24  C   UNL     1       5.729  17.451  22.662  0.00  0.00    +0.000 A 
ATOM     25  C   UNL     1       7.049  17.887  22.543  0.00  0.00    +0.000 A 
ATOM     26  C   UNL     1       7.975  17.128  21.824  0.00  0.00    +0.000 A 
ENDBRANCH   1  21
BRANCH   1  27
ATOM     27  C   UNL     1       8.739  15.798  18.953  0.00  0.00    +0.000 C 
BRANCH  27  28
ATOM     28  C   UNL     1       7.552  15.828  17.978  0.00  0.00    +0.000 C 
BRANCH  28  30
ATOM     29  C   UNL     1       5.326  14.680  17.917  0.00  0.00    +0.000 C 
ATOM     30  C   UNL     1       6.833  14.491  17.795  0.00  0.00    +0.000 C 
ENDBRANCH  28  30
ENDBRANCH  27  28
ENDBRANCH   1  27
TORSDOF 8
ENDMDL
MODEL 9
REMARK VINA RESULT:      -5.8      8.532     11.017
REMARK  Name = 
REMARK  10 active torsions:
REMARK  status: ('A' for Active; 'I' for Inactive)
REMARK    1  A    between atoms: C_1  and  C_2
REMARK    2  A    between atoms: C_2  and  C_3
REMARK    3  A    between atoms: C_3  and  C_4
REMARK    4  A    between atoms: C_4  and  C_5
REMARK    5  A    between atoms: C_5  and  C_24
REMARK    6  A    between atoms: C_6  and  C_7
REMARK    7  A    between atoms: C_6  and  C_13
REMARK    8  A    between atoms: C_16  and  N_17
REMARK    9  A    between atoms: N_17  and  S_18
REMARK   10  A    between atoms: S_18  and  C_19
REMARK                            x       y       z     vdW  Elec       q    Type
REMARK                         _______ _______ _______ _____ _____    ______ ____
ROOT
ATOM      1  C   UNL     1       9.889  15.001  21.532  0.00  0.00    +0.000 C 
ATOM      2  C   UNL     1       9.506  13.701  21.394  0.00  0.00    +0.000 C 
ENDROOT
BRANCH   2   3
ATOM      3  C   UNL     1       9.984  12.860  20.265  0.00  0.00    +0.000 A 
ATOM      4  C   UNL     1       9.179  12.711  19.129  0.00  0.00    +0.000 A 
ATOM      5  C   UNL     1       9.680  12.083  17.986  0.00  0.00    +0.000 A 
ATOM      6  C   UNL     1      10.986  11.599  17.972  0.00  0.00    +0.000 A 
ATOM      7  C   UNL     1      11.787  11.719  19.108  0.00  0.00    +0.000 A 
ATOM      8  C   UNL     1      11.287  12.344  20.253  0.00  0.00    +0.000 A 
ENDBRANCH   2   3
BRANCH   2   9
ATOM      9  C   UNL     1       8.528  13.093  22.341  0.00  0.00    +0.000 A 
ATOM     10  C   UNL     1       7.163  13.376  22.182  0.00  0.00    +0.000 A 
ATOM     11  C   UNL     1       6.218  12.777  23.014  0.00  0.00    +0.000 A 
ATOM     12  C   UNL     1       6.630  11.871  23.988  0.00  0.00    +0.000 A 
ATOM     13  C   UNL     1       7.983  11.597  24.171  0.00  0.00    +0.000 A 
ATOM     14  C   UNL     1       8.933  12.210  23.348  0.00  0.00    +0.000 A 
BRANCH  12  15
ATOM     15  N   UNL     1       5.654  11.243  24.793  0.00  0.00    +0.000 N 
ATOM     16  H   UNL     1       5.129  10.444  24.446  0.00  0.00    +0.000 HD
BRANCH  15  17
ATOM     17  S   UNL     1       5.450  11.670  26.393  0.00  0.00    +0.000 S 
ATOM     18  C   UNL     1       5.500  13.457  26.348  0.00  0.00    +0.000 C 
ATOM     19  O   UNL     1       4.132  11.260  26.826  0.00  0.00    +0.000 OA
ATOM     20  O   UNL     1       6.639  11.215  27.078  0.00  0.00    +0.000 OA
ENDBRANCH  15  17
ENDBRANCH  12  15
ENDBRANCH   2   9
BRANCH   1  21
ATOM     21  C   UNL     1       9.409  15.794  22.694  0.00  0.00    +0.000 A 
ATOM     22  C   UNL     1       8.264  16.594  22.574  0.00  0.00    +0.000 A 
ATOM     23  C   UNL     1       7.865  17.427  23.621  0.00  0.00    +0.000 A 
ATOM     24  C   UNL     1       8.612  17.474  24.795  0.00  0.00    +0.000 A 
ATOM     25  C   UNL     1       9.746  16.674  24.930  0.00  0.00    +0.000 A 
ATOM     26  C   UNL     1      10.140  15.832  23.888  0.00  0.00    +0.000 A 
ENDBRANCH   1  21
BRANCH   1  27
ATOM     27  C   UNL     1      10.703  15.791  20.515  0.00  0.00    +0.000 C 
BRANCH  27  28
ATOM     28  C   UNL     1       9.966  16.789  19.608  0.00  0.00    +0.000 C 
BRANCH  28  30
ATOM     29  C   UNL     1       7.784  16.144  18.561  0.00  0.00    +0.000 C 
ATOM     30  C   UNL     1       9.297  16.171  18.380  0.00  0.00    +0.000 C 
ENDBRANCH  28  30
ENDBRANCH  27  28
ENDBRANCH   1  27
TORSDOF 8
ENDMDL
