MODEL 1
REMARK VINA RESULT:      -7.2      0.000      0.000
REMARK  Name = 
REMARK  12 active torsions:
REMARK  status: ('A' for Active; 'I' for Inactive)
REMARK    1  A    between atoms: C_1  and  O_2
REMARK    2  A    between atoms: O_2  and  C_3
REMARK    3  A    between atoms: C_3  and  C_5
REMARK    4  A    between atoms: C_5  and  C_6
REMARK    5  A    between atoms: C_6  and  C_7
REMARK    6  A    between atoms: C_7  and  N_8
REMARK    7  A    between atoms: C_9  and  C_11
REMARK    8  A    between atoms: C_11  and  C_13
REMARK    9  A    between atoms: C_13  and  C_14
REMARK   10  A    between atoms: C_14  and  C_15
REMARK   11  A    between atoms: C_15  and  C_16
REMARK   12  A    between atoms: C_16  and  C_17
REMARK                            x       y       z     vdW  Elec       q    Type
REMARK                         _______ _______ _______ _____ _____    ______ ____
ROOT
ATOM      1  C   UNL     1       7.036   5.098  18.358  0.00  0.00    +0.000 C 
ATOM      2  O   UNL     1       7.996   5.152  19.114  0.00  0.00    +0.000 OA
ENDROOT
BRANCH   1   4
ATOM      3  N   UNL     1       6.902   4.486  15.996  0.00  0.00    +0.000 N 
ATOM      4  C   UNL     1       7.224   5.480  16.894  0.00  0.00    +0.000 C 
ATOM      5  O   UNL     1       7.606   6.608  16.612  0.00  0.00    +0.000 OA
ATOM      6  H   UNL     1       6.645   3.576  16.364  0.00  0.00    +0.000 HD
BRANCH   3   7
ATOM      7  C   UNL     1       7.065   4.664  14.568  0.00  0.00    +0.000 C 
BRANCH   7   8
ATOM      8  C   UNL     1       5.922   4.059  13.757  0.00  0.00    +0.000 C 
BRANCH   8   9
ATOM      9  C   UNL     1       6.385   3.506  12.408  0.00  0.00    +0.000 C 
BRANCH   9  10
ATOM     10  C   UNL     1       5.274   2.763  11.708  0.00  0.00    +0.000 C 
ATOM     11  O   UNL     1       4.111   3.143  11.627  0.00  0.00    +0.000 OA
BRANCH  10  13
ATOM     12  C   UNL     1       7.173   1.559  11.076  0.00  0.00    +0.000 C 
ATOM     13  O   UNL     1       5.747   1.596  11.190  0.00  0.00    +0.000 OA
ENDBRANCH  10  13
ENDBRANCH   9  10
ENDBRANCH   8   9
ENDBRANCH   7   8
ENDBRANCH   3   7
ENDBRANCH   1   4
BRANCH   1  14
ATOM     14  C   UNL     1       5.669   4.556  18.719  0.00  0.00    +0.000 C 
BRANCH  14  15
ATOM     15  C   UNL     1       4.740   5.658  19.222  0.00  0.00    +0.000 C 
BRANCH  15  16
ATOM     16  C   UNL     1       3.959   6.313  18.079  0.00  0.00    +0.000 C 
BRANCH  16  17
ATOM     17  C   UNL     1       2.466   6.397  18.418  0.00  0.00    +0.000 C 
BRANCH  17  18
ATOM     18  C   UNL     1       1.918   5.085  18.926  0.00  0.00    +0.000 A 
ATOM     19  C   UNL     1       1.633   4.909  20.286  0.00  0.00    +0.000 A 
ATOM     20  C   UNL     1       1.157   3.683  20.758  0.00  0.00    +0.000 A 
ATOM     21  C   UNL     1       0.959   2.625  19.873  0.00  0.00    +0.000 A 
ATOM     22  C   UNL     1       1.230   2.792  18.517  0.00  0.00    +0.000 A 
ATOM     23  C   UNL     1       1.708   4.016  18.045  0.00  0.00    +0.000 A 
ENDBRANCH  17  18
ENDBRANCH  16  17
ENDBRANCH  15  16
ENDBRANCH  14  15
ENDBRANCH   1  14
TORSDOF 11
ENDMDL
MODEL 2
REMARK VINA RESULT:      -7.1      1.217      1.804
REMARK  Name = 
REMARK  12 active torsions:
REMARK  status: ('A' for Active; 'I' for Inactive)
REMARK    1  A    between atoms: C_1  and  O_2
REMARK    2  A    between atoms: O_2  and  C_3
REMARK    3  A    between atoms: C_3  and  C_5
REMARK    4  A    between atoms: C_5  and  C_6
REMARK    5  A    between atoms: C_6  and  C_7
REMARK    6  A    between atoms: C_7  and  N_8
REMARK    7  A    between atoms: C_9  and  C_11
REMARK    8  A    between atoms: C_11  and  C_13
REMARK    9  A    between atoms: C_13  and  C_14
REMARK   10  A    between atoms: C_14  and  C_15
REMARK   11  A    between atoms: C_15  and  C_16
REMARK   12  A    between atoms: C_16  and  C_17
REMARK                            x       y       z     vdW  Elec       q    Type
REMARK                         _______ _______ _______ _____ _____    ______ ____
ROOT
ATOM      1  C   UNL     1       7.018   5.622  18.351  0.00  0.00    +0.000 C 
ATOM      2  O   UNL     1       7.985   5.880  19.056  0.00  0.00    +0.000 OA
ENDROOT
BRANCH   1   4
ATOM      3  N   UNL     1       7.145   4.798  16.055  0.00  0.00    +0.000 N 
ATOM      4  C   UNL     1       7.090   5.916  16.858  0.00  0.00    +0.000 C 
ATOM      5  O   UNL     1       7.068   7.077  16.472  0.00  0.00    +0.000 OA
ATOM      6  H   UNL     1       7.209   3.890  16.504  0.00  0.00    +0.000 HD
BRANCH   3   7
ATOM      7  C   UNL     1       7.262   4.896  14.615  0.00  0.00    +0.000 C 
BRANCH   7   8
ATOM      8  C   UNL     1       6.150   4.159  13.874  0.00  0.00    +0.000 C 
BRANCH   8   9
ATOM      9  C   UNL     1       6.595   3.645  12.503  0.00  0.00    +0.000 C 
BRANCH   9  10
ATOM     10  C   UNL     1       5.520   2.808  11.855  0.00  0.00    +0.000 C 
ATOM     11  O   UNL     1       5.679   1.680  11.401  0.00  0.00    +0.000 OA
BRANCH  10  13
ATOM     12  C   UNL     1       3.481   3.115  10.757  0.00  0.00    +0.000 C 
ATOM     13  O   UNL     1       4.344   3.494  11.834  0.00  0.00    +0.000 OA
ENDBRANCH  10  13
ENDBRANCH   9  10
ENDBRANCH   8   9
ENDBRANCH   7   8
ENDBRANCH   3   7
ENDBRANCH   1   4
BRANCH   1  14
ATOM     14  C   UNL     1       5.768   4.905  18.814  0.00  0.00    +0.000 C 
BRANCH  14  15
ATOM     15  C   UNL     1       4.508   5.521  18.213  0.00  0.00    +0.000 C 
BRANCH  15  16
ATOM     16  C   UNL     1       3.770   4.539  17.299  0.00  0.00    +0.000 C 
BRANCH  16  17
ATOM     17  C   UNL     1       3.750   3.134  17.914  0.00  0.00    +0.000 C 
BRANCH  17  18
ATOM     18  C   UNL     1       2.891   3.061  19.152  0.00  0.00    +0.000 A 
ATOM     19  C   UNL     1       3.429   2.622  20.369  0.00  0.00    +0.000 A 
ATOM     20  C   UNL     1       2.623   2.523  21.506  0.00  0.00    +0.000 A 
ATOM     21  C   UNL     1       1.274   2.865  21.437  0.00  0.00    +0.000 A 
ATOM     22  C   UNL     1       0.731   3.313  20.235  0.00  0.00    +0.000 A 
ATOM     23  C   UNL     1       1.535   3.409  19.097  0.00  0.00    +0.000 A 
ENDBRANCH  17  18
ENDBRANCH  16  17
ENDBRANCH  15  16
ENDBRANCH  14  15
ENDBRANCH   1  14
TORSDOF 11
ENDMDL
MODEL 3
REMARK VINA RESULT:      -6.9      4.742      8.052
REMARK  Name = 
REMARK  12 active torsions:
REMARK  status: ('A' for Active; 'I' for Inactive)
REMARK    1  A    between atoms: C_1  and  O_2
REMARK    2  A    between atoms: O_2  and  C_3
REMARK    3  A    between atoms: C_3  and  C_5
REMARK    4  A    between atoms: C_5  and  C_6
REMARK    5  A    between atoms: C_6  and  C_7
REMARK    6  A    between atoms: C_7  and  N_8
REMARK    7  A    between atoms: C_9  and  C_11
REMARK    8  A    between atoms: C_11  and  C_13
REMARK    9  A    between atoms: C_13  and  C_14
REMARK   10  A    between atoms: C_14  and  C_15
REMARK   11  A    between atoms: C_15  and  C_16
REMARK   12  A    between atoms: C_16  and  C_17
REMARK                            x       y       z     vdW  Elec       q    Type
REMARK                         _______ _______ _______ _____ _____    ______ ____
ROOT
ATOM      1  C   UNL     1       6.918   5.534  19.259  0.00  0.00    +0.000 C 
ATOM      2  O   UNL     1       7.653   5.325  20.215  0.00  0.00    +0.000 OA
ENDROOT
BRANCH   1   4
ATOM      3  N   UNL     1       5.432   3.645  18.820  0.00  0.00    +0.000 N 
ATOM      4  C   UNL     1       5.512   4.948  19.263  0.00  0.00    +0.000 C 
ATOM      5  O   UNL     1       4.579   5.627  19.670  0.00  0.00    +0.000 OA
ATOM      6  H   UNL     1       6.276   3.210  18.462  0.00  0.00    +0.000 HD
BRANCH   3   7
ATOM      7  C   UNL     1       4.166   2.950  18.718  0.00  0.00    +0.000 C 
BRANCH   7   8
ATOM      8  C   UNL     1       3.365   3.346  17.480  0.00  0.00    +0.000 C 
BRANCH   8   9
ATOM      9  C   UNL     1       1.995   3.932  17.827  0.00  0.00    +0.000 C 
BRANCH   9  10
ATOM     10  C   UNL     1       1.229   3.023  18.758  0.00  0.00    +0.000 C 
ATOM     11  O   UNL     1       1.160   1.804  18.656  0.00  0.00    +0.000 OA
BRANCH  10  13
ATOM     12  C   UNL     1       1.522   4.373  20.641  0.00  0.00    +0.000 C 
ATOM     13  O   UNL     1       0.613   3.759  19.724  0.00  0.00    +0.000 OA
ENDBRANCH  10  13
ENDBRANCH   9  10
ENDBRANCH   8   9
ENDBRANCH   7   8
ENDBRANCH   3   7
ENDBRANCH   1   4
BRANCH   1  14
ATOM     14  C   UNL     1       7.240   6.446  18.094  0.00  0.00    +0.000 C 
BRANCH  14  15
ATOM     15  C   UNL     1       8.219   7.547  18.492  0.00  0.00    +0.000 C 
BRANCH  15  16
ATOM     16  C   UNL     1       8.275   8.668  17.450  0.00  0.00    +0.000 C 
BRANCH  16  17
ATOM     17  C   UNL     1       7.997  10.029  18.099  0.00  0.00    +0.000 C 
BRANCH  17  18
ATOM     18  C   UNL     1       9.246  10.665  18.659  0.00  0.00    +0.000 A 
ATOM     19  C   UNL     1       9.370  10.906  20.033  0.00  0.00    +0.000 A 
ATOM     20  C   UNL     1      10.513  11.525  20.544  0.00  0.00    +0.000 A 
ATOM     21  C   UNL     1      11.543  11.905  19.686  0.00  0.00    +0.000 A 
ATOM     22  C   UNL     1      11.435  11.662  18.319  0.00  0.00    +0.000 A 
ATOM     23  C   UNL     1      10.292  11.045  17.807  0.00  0.00    +0.000 A 
ENDBRANCH  17  18
ENDBRANCH  16  17
ENDBRANCH  15  16
ENDBRANCH  14  15
ENDBRANCH   1  14
TORSDOF 11
ENDMDL
MODEL 4
REMARK VINA RESULT:      -6.7      4.325      7.122
REMARK  Name = 
REMARK  12 active torsions:
REMARK  status: ('A' for Active; 'I' for Inactive)
REMARK    1  A    between atoms: C_1  and  O_2
REMARK    2  A    between atoms: O_2  and  C_3
REMARK    3  A    between atoms: C_3  and  C_5
REMARK    4  A    between atoms: C_5  and  C_6
REMARK    5  A    between atoms: C_6  and  C_7
REMARK    6  A    between atoms: C_7  and  N_8
REMARK    7  A    between atoms: C_9  and  C_11
REMARK    8  A    between atoms: C_11  and  C_13
REMARK    9  A    between atoms: C_13  and  C_14
REMARK   10  A    between atoms: C_14  and  C_15
REMARK   11  A    between atoms: C_15  and  C_16
REMARK   12  A    between atoms: C_16  and  C_17
REMARK                            x       y       z     vdW  Elec       q    Type
REMARK                         _______ _______ _______ _____ _____    ______ ____
ROOT
ATOM      1  C   UNL     1       7.413   5.884  18.658  0.00  0.00    +0.000 C 
ATOM      2  O   UNL     1       8.263   5.269  19.288  0.00  0.00    +0.000 OA
ENDROOT
BRANCH   1   4
ATOM      3  N   UNL     1       8.287   8.165  18.713  0.00  0.00    +0.000 N 
ATOM      4  C   UNL     1       7.817   7.149  17.910  0.00  0.00    +0.000 C 
ATOM      5  O   UNL     1       7.732   7.179  16.690  0.00  0.00    +0.000 OA
ATOM      6  H   UNL     1       8.259   8.030  19.719  0.00  0.00    +0.000 HD
BRANCH   3   7
ATOM      7  C   UNL     1       8.672   9.452  18.171  0.00  0.00    +0.000 C 
BRANCH   7   8
ATOM      8  C   UNL     1       9.439  10.315  19.170  0.00  0.00    +0.000 C 
BRANCH   8   9
ATOM      9  C   UNL     1      10.303  11.378  18.488  0.00  0.00    +0.000 C 
BRANCH   9  10
ATOM     10  C   UNL     1      11.110  12.158  19.496  0.00  0.00    +0.000 C 
ATOM     11  O   UNL     1      11.783  11.667  20.396  0.00  0.00    +0.000 OA
BRANCH  10  13
ATOM     12  C   UNL     1      10.421  13.802  17.988  0.00  0.00    +0.000 C 
ATOM     13  O   UNL     1      10.973  13.494  19.271  0.00  0.00    +0.000 OA
ENDBRANCH  10  13
ENDBRANCH   9  10
ENDBRANCH   8   9
ENDBRANCH   7   8
ENDBRANCH   3   7
ENDBRANCH   1   4
BRANCH   1  14
ATOM     14  C   UNL     1       5.985   5.429  18.446  0.00  0.00    +0.000 C 
BRANCH  14  15
ATOM     15  C   UNL     1       5.874   4.440  17.289  0.00  0.00    +0.000 C 
BRANCH  15  16
ATOM     16  C   UNL     1       4.417   4.184  16.893  0.00  0.00    +0.000 C 
BRANCH  16  17
ATOM     17  C   UNL     1       3.481   5.184  17.582  0.00  0.00    +0.000 C 
BRANCH  17  18
ATOM     18  C   UNL     1       2.500   4.508  18.508  0.00  0.00    +0.000 A 
ATOM     19  C   UNL     1       2.262   5.018  19.791  0.00  0.00    +0.000 A 
ATOM     20  C   UNL     1       1.378   4.371  20.658  0.00  0.00    +0.000 A 
ATOM     21  C   UNL     1       0.722   3.212  20.249  0.00  0.00    +0.000 A 
ATOM     22  C   UNL     1       0.943   2.702  18.972  0.00  0.00    +0.000 A 
ATOM     23  C   UNL     1       1.828   3.346  18.105  0.00  0.00    +0.000 A 
ENDBRANCH  17  18
ENDBRANCH  16  17
ENDBRANCH  15  16
ENDBRANCH  14  15
ENDBRANCH   1  14
TORSDOF 11
ENDMDL
MODEL 5
REMARK VINA RESULT:      -6.6      2.685      5.007
REMARK  Name = 
REMARK  12 active torsions:
REMARK  status: ('A' for Active; 'I' for Inactive)
REMARK    1  A    between atoms: C_1  and  O_2
REMARK    2  A    between atoms: O_2  and  C_3
REMARK    3  A    between atoms: C_3  and  C_5
REMARK    4  A    between atoms: C_5  and  C_6
REMARK    5  A    between atoms: C_6  and  C_7
REMARK    6  A    between atoms: C_7  and  N_8
REMARK    7  A    between atoms: C_9  and  C_11
REMARK    8  A    between atoms: C_11  and  C_13
REMARK    9  A    between atoms: C_13  and  C_14
REMARK   10  A    between atoms: C_14  and  C_15
REMARK   11  A    between atoms: C_15  and  C_16
REMARK   12  A    between atoms: C_16  and  C_17
REMARK                            x       y       z     vdW  Elec       q    Type
REMARK                         _______ _______ _______ _____ _____    ______ ____
ROOT
ATOM      1  C   UNL     1       3.368   1.984  18.843  0.00  0.00    +0.000 C 
ATOM      2  O   UNL     1       3.651   0.940  18.271  0.00  0.00    +0.000 OA
ENDROOT
BRANCH   1   4
ATOM      3  N   UNL     1       4.689   4.038  18.892  0.00  0.00    +0.000 N 
ATOM      4  C   UNL     1       4.483   2.807  19.476  0.00  0.00    +0.000 C 
ATOM      5  O   UNL     1       5.087   2.361  20.442  0.00  0.00    +0.000 OA
ATOM      6  H   UNL     1       4.153   4.268  18.061  0.00  0.00    +0.000 HD
BRANCH   3   7
ATOM      7  C   UNL     1       5.738   4.931  19.339  0.00  0.00    +0.000 C 
BRANCH   7   8
ATOM      8  C   UNL     1       7.028   4.785  18.537  0.00  0.00    +0.000 C 
BRANCH   8   9
ATOM      9  C   UNL     1       7.348   6.028  17.704  0.00  0.00    +0.000 C 
BRANCH   9  10
ATOM     10  C   UNL     1       6.523   6.070  16.441  0.00  0.00    +0.000 C 
ATOM     11  O   UNL     1       5.356   6.438  16.371  0.00  0.00    +0.000 OA
BRANCH  10  13
ATOM     12  C   UNL     1       6.811   4.372  14.864  0.00  0.00    +0.000 C 
ATOM     13  O   UNL     1       7.261   5.625  15.387  0.00  0.00    +0.000 OA
ENDBRANCH  10  13
ENDBRANCH   9  10
ENDBRANCH   8   9
ENDBRANCH   7   8
ENDBRANCH   3   7
ENDBRANCH   1   4
BRANCH   1  14
ATOM     14  C   UNL     1       1.992   2.614  18.878  0.00  0.00    +0.000 C 
BRANCH  14  15
ATOM     15  C   UNL     1       1.551   2.929  20.305  0.00  0.00    +0.000 C 
BRANCH  15  16
ATOM     16  C   UNL     1       1.014   4.357  20.436  0.00  0.00    +0.000 C 
BRANCH  16  17
ATOM     17  C   UNL     1       2.149   5.339  20.747  0.00  0.00    +0.000 C 
BRANCH  17  18
ATOM     18  C   UNL     1       1.991   6.650  20.017  0.00  0.00    +0.000 A 
ATOM     19  C   UNL     1       2.435   6.790  18.696  0.00  0.00    +0.000 A 
ATOM     20  C   UNL     1       2.318   8.014  18.034  0.00  0.00    +0.000 A 
ATOM     21  C   UNL     1       1.753   9.108  18.685  0.00  0.00    +0.000 A 
ATOM     22  C   UNL     1       1.299   8.978  19.996  0.00  0.00    +0.000 A 
ATOM     23  C   UNL     1       1.418   7.756  20.659  0.00  0.00    +0.000 A 
ENDBRANCH  17  18
ENDBRANCH  16  17
ENDBRANCH  15  16
ENDBRANCH  14  15
ENDBRANCH   1  14
TORSDOF 11
ENDMDL
MODEL 6
REMARK VINA RESULT:      -6.6      3.987      7.110
REMARK  Name = 
REMARK  12 active torsions:
REMARK  status: ('A' for Active; 'I' for Inactive)
REMARK    1  A    between atoms: C_1  and  O_2
REMARK    2  A    between atoms: O_2  and  C_3
REMARK    3  A    between atoms: C_3  and  C_5
REMARK    4  A    between atoms: C_5  and  C_6
REMARK    5  A    between atoms: C_6  and  C_7
REMARK    6  A    between atoms: C_7  and  N_8
REMARK    7  A    between atoms: C_9  and  C_11
REMARK    8  A    between atoms: C_11  and  C_13
REMARK    9  A    between atoms: C_13  and  C_14
REMARK   10  A    between atoms: C_14  and  C_15
REMARK   11  A    between atoms: C_15  and  C_16
REMARK   12  A    between atoms: C_16  and  C_17
REMARK                            x       y       z     vdW  Elec       q    Type
REMARK                         _______ _______ _______ _____ _____    ______ ____
ROOT
ATOM      1  C   UNL     1       7.631   5.802  18.515  0.00  0.00    +0.000 C 
ATOM      2  O   UNL     1       8.178   5.743  19.608  0.00  0.00    +0.000 OA
ENDROOT
BRANCH   1   4
ATOM      3  N   UNL     1       8.250   8.164  18.417  0.00  0.00    +0.000 N 
ATOM      4  C   UNL     1       7.627   7.126  17.759  0.00  0.00    +0.000 C 
ATOM      5  O   UNL     1       7.119   7.182  16.647  0.00  0.00    +0.000 OA
ATOM      6  H   UNL     1       8.588   7.997  19.360  0.00  0.00    +0.000 HD
BRANCH   3   7
ATOM      7  C   UNL     1       8.299   9.500  17.862  0.00  0.00    +0.000 C 
BRANCH   7   8
ATOM      8  C   UNL     1       9.376  10.373  18.501  0.00  0.00    +0.000 C 
BRANCH   8   9
ATOM      9  C   UNL     1       9.311  10.366  20.030  0.00  0.00    +0.000 C 
BRANCH   9  10
ATOM     10  C   UNL     1       9.866  11.644  20.609  0.00  0.00    +0.000 C 
ATOM     11  O   UNL     1      11.049  11.967  20.604  0.00  0.00    +0.000 OA
BRANCH  10  13
ATOM     12  C   UNL     1       8.375  11.861  22.394  0.00  0.00    +0.000 C 
ATOM     13  O   UNL     1       8.861  12.384  21.154  0.00  0.00    +0.000 OA
ENDBRANCH  10  13
ENDBRANCH   9  10
ENDBRANCH   8   9
ENDBRANCH   7   8
ENDBRANCH   3   7
ENDBRANCH   1   4
BRANCH   1  14
ATOM     14  C   UNL     1       7.047   4.623  17.766  0.00  0.00    +0.000 C 
BRANCH  14  15
ATOM     15  C   UNL     1       5.597   4.364  18.163  0.00  0.00    +0.000 C 
BRANCH  15  16
ATOM     16  C   UNL     1       4.617   4.798  17.068  0.00  0.00    +0.000 C 
BRANCH  16  17
ATOM     17  C   UNL     1       3.465   5.616  17.662  0.00  0.00    +0.000 C 
BRANCH  17  18
ATOM     18  C   UNL     1       2.503   4.763  18.453  0.00  0.00    +0.000 A 
ATOM     19  C   UNL     1       2.167   5.101  19.771  0.00  0.00    +0.000 A 
ATOM     20  C   UNL     1       1.303   4.291  20.512  0.00  0.00    +0.000 A 
ATOM     21  C   UNL     1       0.765   3.139  19.941  0.00  0.00    +0.000 A 
ATOM     22  C   UNL     1       1.084   2.799  18.629  0.00  0.00    +0.000 A 
ATOM     23  C   UNL     1       1.950   3.607  17.888  0.00  0.00    +0.000 A 
ENDBRANCH  17  18
ENDBRANCH  16  17
ENDBRANCH  15  16
ENDBRANCH  14  15
ENDBRANCH   1  14
TORSDOF 11
ENDMDL
MODEL 7
REMARK VINA RESULT:      -6.6      4.223      7.038
REMARK  Name = 
REMARK  12 active torsions:
REMARK  status: ('A' for Active; 'I' for Inactive)
REMARK    1  A    between atoms: C_1  and  O_2
REMARK    2  A    between atoms: O_2  and  C_3
REMARK    3  A    between atoms: C_3  and  C_5
REMARK    4  A    between atoms: C_5  and  C_6
REMARK    5  A    between atoms: C_6  and  C_7
REMARK    6  A    between atoms: C_7  and  N_8
REMARK    7  A    between atoms: C_9  and  C_11
REMARK    8  A    between atoms: C_11  and  C_13
REMARK    9  A    between atoms: C_13  and  C_14
REMARK   10  A    between atoms: C_14  and  C_15
REMARK   11  A    between atoms: C_15  and  C_16
REMARK   12  A    between atoms: C_16  and  C_17
REMARK                            x       y       z     vdW  Elec       q    Type
REMARK                         _______ _______ _______ _____ _____    ______ ____
ROOT
ATOM      1  C   UNL     1       6.831   6.485  16.713  0.00  0.00    +0.000 C 
ATOM      2  O   UNL     1       7.423   5.954  15.783  0.00  0.00    +0.000 OA
ENDROOT
BRANCH   1   4
ATOM      3  N   UNL     1       7.880   8.520  17.565  0.00  0.00    +0.000 N 
ATOM      4  C   UNL     1       7.636   7.185  17.801  0.00  0.00    +0.000 C 
ATOM      5  O   UNL     1       7.979   6.556  18.793  0.00  0.00    +0.000 OA
ATOM      6  H   UNL     1       7.583   8.910  16.676  0.00  0.00    +0.000 HD
BRANCH   3   7
ATOM      7  C   UNL     1       8.669   9.325  18.474  0.00  0.00    +0.000 C 
BRANCH   7   8
ATOM      8  C   UNL     1       8.782  10.783  18.037  0.00  0.00    +0.000 C 
BRANCH   8   9
ATOM      9  C   UNL     1      10.232  11.268  17.968  0.00  0.00    +0.000 C 
BRANCH   9  10
ATOM     10  C   UNL     1      10.322  12.759  18.177  0.00  0.00    +0.000 C 
ATOM     11  O   UNL     1       9.599  13.593  17.643  0.00  0.00    +0.000 OA
BRANCH  10  13
ATOM     12  C   UNL     1      11.894  11.894  19.672  0.00  0.00    +0.000 C 
ATOM     13  O   UNL     1      11.337  13.049  19.037  0.00  0.00    +0.000 OA
ENDBRANCH  10  13
ENDBRANCH   9  10
ENDBRANCH   8   9
ENDBRANCH   7   8
ENDBRANCH   3   7
ENDBRANCH   1   4
BRANCH   1  14
ATOM     14  C   UNL     1       5.327   6.622  16.825  0.00  0.00    +0.000 C 
BRANCH  14  15
ATOM     15  C   UNL     1       4.634   5.262  16.827  0.00  0.00    +0.000 C 
BRANCH  15  16
ATOM     16  C   UNL     1       5.248   4.308  17.856  0.00  0.00    +0.000 C 
BRANCH  16  17
ATOM     17  C   UNL     1       4.850   4.714  19.280  0.00  0.00    +0.000 C 
BRANCH  17  18
ATOM     18  C   UNL     1       3.491   4.187  19.669  0.00  0.00    +0.000 A 
ATOM     19  C   UNL     1       3.153   2.847  19.440  0.00  0.00    +0.000 A 
ATOM     20  C   UNL     1       1.882   2.370  19.771  0.00  0.00    +0.000 A 
ATOM     21  C   UNL     1       0.940   3.228  20.335  0.00  0.00    +0.000 A 
ATOM     22  C   UNL     1       1.268   4.560  20.576  0.00  0.00    +0.000 A 
ATOM     23  C   UNL     1       2.537   5.038  20.244  0.00  0.00    +0.000 A 
ENDBRANCH  17  18
ENDBRANCH  16  17
ENDBRANCH  15  16
ENDBRANCH  14  15
ENDBRANCH   1  14
TORSDOF 11
ENDMDL
MODEL 8
REMARK VINA RESULT:      -6.6      2.792      4.728
REMARK  Name = 
REMARK  12 active torsions:
REMARK  status: ('A' for Active; 'I' for Inactive)
REMARK    1  A    between atoms: C_1  and  O_2
REMARK    2  A    between atoms: O_2  and  C_3
REMARK    3  A    between atoms: C_3  and  C_5
REMARK    4  A    between atoms: C_5  and  C_6
REMARK    5  A    between atoms: C_6  and  C_7
REMARK    6  A    between atoms: C_7  and  N_8
REMARK    7  A    between atoms: C_9  and  C_11
REMARK    8  A    between atoms: C_11  and  C_13
REMARK    9  A    between atoms: C_13  and  C_14
REMARK   10  A    between atoms: C_14  and  C_15
REMARK   11  A    between atoms: C_15  and  C_16
REMARK   12  A    between atoms: C_16  and  C_17
REMARK                            x       y       z     vdW  Elec       q    Type
REMARK                         _______ _______ _______ _____ _____    ______ ____
ROOT
ATOM      1  C   UNL     1       4.390   2.064  19.418  0.00  0.00    +0.000 C 
ATOM      2  O   UNL     1       4.970   1.660  20.416  0.00  0.00    +0.000 OA
ENDROOT
BRANCH   1   4
ATOM      3  N   UNL     1       5.355   4.294  19.672  0.00  0.00    +0.000 N 
ATOM      4  C   UNL     1       4.834   3.378  18.785  0.00  0.00    +0.000 C 
ATOM      5  O   UNL     1       4.734   3.526  17.574  0.00  0.00    +0.000 OA
ATOM      6  H   UNL     1       5.335   4.066  20.661  0.00  0.00    +0.000 HD
BRANCH   3   7
ATOM      7  C   UNL     1       5.783   5.611  19.247  0.00  0.00    +0.000 C 
BRANCH   7   8
ATOM      8  C   UNL     1       7.300   5.738  19.136  0.00  0.00    +0.000 C 
BRANCH   8   9
ATOM      9  C   UNL     1       7.733   6.657  17.992  0.00  0.00    +0.000 C 
BRANCH   9  10
ATOM     10  C   UNL     1       7.064   6.272  16.695  0.00  0.00    +0.000 C 
ATOM     11  O   UNL     1       6.128   6.871  16.178  0.00  0.00    +0.000 OA
BRANCH  10  13
ATOM     12  C   UNL     1       6.897   4.554  15.122  0.00  0.00    +0.000 C 
ATOM     13  O   UNL     1       7.643   5.149  16.187  0.00  0.00    +0.000 OA
ENDBRANCH  10  13
ENDBRANCH   9  10
ENDBRANCH   8   9
ENDBRANCH   7   8
ENDBRANCH   3   7
ENDBRANCH   1   4
BRANCH   1  14
ATOM     14  C   UNL     1       3.325   1.302  18.658  0.00  0.00    +0.000 C 
BRANCH  14  15
ATOM     15  C   UNL     1       1.920   1.723  19.082  0.00  0.00    +0.000 C 
BRANCH  15  16
ATOM     16  C   UNL     1       1.931   2.519  20.390  0.00  0.00    +0.000 C 
BRANCH  16  17
ATOM     17  C   UNL     1       0.898   3.651  20.347  0.00  0.00    +0.000 C 
BRANCH  17  18
ATOM     18  C   UNL     1       1.464   4.924  19.766  0.00  0.00    +0.000 A 
ATOM     19  C   UNL     1       1.777   5.009  18.403  0.00  0.00    +0.000 A 
ATOM     20  C   UNL     1       2.333   6.177  17.875  0.00  0.00    +0.000 A 
ATOM     21  C   UNL     1       2.577   7.270  18.704  0.00  0.00    +0.000 A 
ATOM     22  C   UNL     1       2.261   7.200  20.058  0.00  0.00    +0.000 A 
ATOM     23  C   UNL     1       1.708   6.032  20.588  0.00  0.00    +0.000 A 
ENDBRANCH  17  18
ENDBRANCH  16  17
ENDBRANCH  15  16
ENDBRANCH  14  15
ENDBRANCH   1  14
TORSDOF 11
ENDMDL
MODEL 9
REMARK VINA RESULT:      -6.5      3.970      6.137
REMARK  Name = 
REMARK  12 active torsions:
REMARK  status: ('A' for Active; 'I' for Inactive)
REMARK    1  A    between atoms: C_1  and  O_2
REMARK    2  A    between atoms: O_2  and  C_3
REMARK    3  A    between atoms: C_3  and  C_5
REMARK    4  A    between atoms: C_5  and  C_6
REMARK    5  A    between atoms: C_6  and  C_7
REMARK    6  A    between atoms: C_7  and  N_8
REMARK    7  A    between atoms: C_9  and  C_11
REMARK    8  A    between atoms: C_11  and  C_13
REMARK    9  A    between atoms: C_13  and  C_14
REMARK   10  A    between atoms: C_14  and  C_15
REMARK   11  A    between atoms: C_15  and  C_16
REMARK   12  A    between atoms: C_16  and  C_17
REMARK                            x       y       z     vdW  Elec       q    Type
REMARK                         _______ _______ _______ _____ _____    ______ ____
ROOT
ATOM      1  C   UNL     1       5.728   4.651  18.775  0.00  0.00    +0.000 C 
ATOM      2  O   UNL     1       6.310   5.148  19.730  0.00  0.00    +0.000 OA
ENDROOT
BRANCH   1   4
ATOM      3  N   UNL     1       4.159   2.992  17.907  0.00  0.00    +0.000 N 
ATOM      4  C   UNL     1       4.952   3.354  18.974  0.00  0.00    +0.000 C 
ATOM      5  O   UNL     1       5.094   2.722  20.012  0.00  0.00    +0.000 OA
ATOM      6  H   UNL     1       4.091   3.632  17.123  0.00  0.00    +0.000 HD
BRANCH   3   7
ATOM      7  C   UNL     1       3.320   1.812  17.945  0.00  0.00    +0.000 C 
BRANCH   7   8
ATOM      8  C   UNL     1       1.864   2.124  18.277  0.00  0.00    +0.000 C 
BRANCH   8   9
ATOM      9  C   UNL     1       1.637   3.603  18.601  0.00  0.00    +0.000 C 
BRANCH   9  10
ATOM     10  C   UNL     1       1.202   3.790  20.034  0.00  0.00    +0.000 C 
ATOM     11  O   UNL     1       0.888   4.860  20.543  0.00  0.00    +0.000 OA
BRANCH  10  13
ATOM     12  C   UNL     1       2.045   2.598  21.857  0.00  0.00    +0.000 C 
ATOM     13  O   UNL     1       1.222   2.595  20.687  0.00  0.00    +0.000 OA
ENDBRANCH  10  13
ENDBRANCH   9  10
ENDBRANCH   8   9
ENDBRANCH   7   8
ENDBRANCH   3   7
ENDBRANCH   1   4
BRANCH   1  14
ATOM     14  C   UNL     1       5.599   5.284  17.406  0.00  0.00    +0.000 C 
BRANCH  14  15
ATOM     15  C   UNL     1       4.941   6.659  17.479  0.00  0.00    +0.000 C 
BRANCH  15  16
ATOM     16  C   UNL     1       3.428   6.559  17.696  0.00  0.00    +0.000 C 
BRANCH  16  17
ATOM     17  C   UNL     1       3.061   6.927  19.139  0.00  0.00    +0.000 C 
BRANCH  17  18
ATOM     18  C   UNL     1       2.071   8.064  19.207  0.00  0.00    +0.000 A 
ATOM     19  C   UNL     1       1.424   8.376  20.410  0.00  0.00    +0.000 A 
ATOM     20  C   UNL     1       0.484   9.407  20.463  0.00  0.00    +0.000 A 
ATOM     21  C   UNL     1       0.185  10.138  19.315  0.00  0.00    +0.000 A 
ATOM     22  C   UNL     1       0.829   9.843  18.115  0.00  0.00    +0.000 A 
ATOM     23  C   UNL     1       1.767   8.811  18.061  0.00  0.00    +0.000 A 
ENDBRANCH  17  18
ENDBRANCH  16  17
ENDBRANCH  15  16
ENDBRANCH  14  15
ENDBRANCH   1  14
TORSDOF 11
ENDMDL
