MODEL 1
REMARK VINA RESULT:      -8.0      0.000      0.000
REMARK  Name = 
REMARK  7 active torsions:
REMARK  status: ('A' for Active; 'I' for Inactive)
REMARK    1  A    between atoms: C_2  and  C_3
REMARK    2  A    between atoms: C_2  and  C_4
REMARK    3  A    between atoms: C_4  and  C_6
REMARK    4  A    between atoms: C_9  and  O_10
REMARK    5  A    between atoms: O_10  and  C_11
REMARK    6  A    between atoms: C_11  and  C_12
REMARK    7  A    between atoms: C_14  and  C_15
REMARK                            x       y       z     vdW  Elec       q    Type
REMARK                         _______ _______ _______ _____ _____    ______ ____
ROOT
ATOM      1  O   UNL     1       3.431   5.161  18.803  0.00  0.00    +0.000 OA
ENDROOT
BRANCH   1   5
ATOM      2  C   UNL     1       1.608   8.932  18.847  0.00  0.00    +0.000 A 
ATOM      3  C   UNL     1       2.256   8.411  17.717  0.00  0.00    +0.000 A 
ATOM      4  C   UNL     1       2.816   7.131  17.738  0.00  0.00    +0.000 A 
ATOM      5  C   UNL     1       2.817   6.377  18.908  0.00  0.00    +0.000 A 
ATOM      6  C   UNL     1       2.220   6.901  20.054  0.00  0.00    +0.000 A 
ATOM      7  C   UNL     1       1.598   8.162  20.022  0.00  0.00    +0.000 A 
ATOM      8 BR   UNL     1       0.728   8.691  21.631  0.00  0.00    +0.000 Br
BRANCH   2   9
ATOM      9  C   UNL     1       1.065  10.318  18.798  0.00  0.00    +0.000 C 
ATOM     10  O   UNL     1       1.852  11.260  18.750  0.00  0.00    +0.000 OA
BRANCH   9  12
ATOM     11  C   UNL     1      -1.090   9.971  17.746  0.00  0.00    +0.000 C 
ATOM     12  C   UNL     1      -0.422  10.562  18.754  0.00  0.00    +0.000 C 
ATOM     13  C   UNL     1      -1.124  11.480  19.707  0.00  0.00    +0.000 C 
ENDBRANCH   9  12
ENDBRANCH   2   9
ENDBRANCH   1   5
BRANCH   1  14
ATOM     14  C   UNL     1       4.779   5.079  19.268  0.00  0.00    +0.000 C 
BRANCH  14  15
ATOM     15  C   UNL     1       5.646   4.840  18.091  0.00  0.00    +0.000 A 
ATOM     16  N   UNL     1       5.335   4.785  16.818  0.00  0.00    +0.000 NA
ATOM     17  C   UNL     1       6.561   4.606  16.219  0.00  0.00    +0.000 A 
ATOM     18  N   UNL     1       7.588   4.563  17.082  0.00  0.00    +0.000 NA
ATOM     19  O   UNL     1       6.983   4.717  18.327  0.00  0.00    +0.000 OA
BRANCH  17  20
ATOM     20  C   UNL     1       6.707   4.489  14.771  0.00  0.00    +0.000 A 
ATOM     21  C   UNL     1       5.865   3.636  14.041  0.00  0.00    +0.000 A 
ATOM     22  C   UNL     1       5.997   3.518  12.655  0.00  0.00    +0.000 A 
ATOM     23  C   UNL     1       6.972   4.249  11.983  0.00  0.00    +0.000 A 
ATOM     24  C   UNL     1       7.813   5.104  12.693  0.00  0.00    +0.000 A 
ATOM     25  C   UNL     1       7.682   5.225  14.079  0.00  0.00    +0.000 A 
ENDBRANCH  17  20
ENDBRANCH  14  15
ENDBRANCH   1  14
TORSDOF 6
ENDMDL
MODEL 2
REMARK VINA RESULT:      -7.9      5.292      7.107
REMARK  Name = 
REMARK  7 active torsions:
REMARK  status: ('A' for Active; 'I' for Inactive)
REMARK    1  A    between atoms: C_2  and  C_3
REMARK    2  A    between atoms: C_2  and  C_4
REMARK    3  A    between atoms: C_4  and  C_6
REMARK    4  A    between atoms: C_9  and  O_10
REMARK    5  A    between atoms: O_10  and  C_11
REMARK    6  A    between atoms: C_11  and  C_12
REMARK    7  A    between atoms: C_14  and  C_15
REMARK                            x       y       z     vdW  Elec       q    Type
REMARK                         _______ _______ _______ _____ _____    ______ ____
ROOT
ATOM      1  O   UNL     1       6.878   6.091  17.292  0.00  0.00    +0.000 OA
ENDROOT
BRANCH   1   5
ATOM      2  C   UNL     1       3.175   4.449  18.357  0.00  0.00    +0.000 A 
ATOM      3  C   UNL     1       3.300   5.633  17.616  0.00  0.00    +0.000 A 
ATOM      4  C   UNL     1       4.556   6.122  17.250  0.00  0.00    +0.000 A 
ATOM      5  C   UNL     1       5.717   5.489  17.687  0.00  0.00    +0.000 A 
ATOM      6  C   UNL     1       5.610   4.338  18.466  0.00  0.00    +0.000 A 
ATOM      7  C   UNL     1       4.348   3.805  18.784  0.00  0.00    +0.000 A 
ATOM      8 BR   UNL     1       4.368   2.168  19.757  0.00  0.00    +0.000 Br
BRANCH   2   9
ATOM      9  C   UNL     1       1.819   3.986  18.766  0.00  0.00    +0.000 C 
ATOM     10  O   UNL     1       1.096   3.459  17.925  0.00  0.00    +0.000 OA
BRANCH   9  12
ATOM     11  C   UNL     1       1.364   5.354  20.713  0.00  0.00    +0.000 C 
ATOM     12  C   UNL     1       1.361   4.111  20.197  0.00  0.00    +0.000 C 
ATOM     13  C   UNL     1       1.010   2.927  21.045  0.00  0.00    +0.000 C 
ENDBRANCH   9  12
ENDBRANCH   2   9
ENDBRANCH   1   5
BRANCH   1  14
ATOM     14  C   UNL     1       7.851   6.339  18.308  0.00  0.00    +0.000 C 
BRANCH  14  15
ATOM     15  C   UNL     1       8.135   7.793  18.311  0.00  0.00    +0.000 A 
ATOM     16  N   UNL     1       8.930   8.490  19.087  0.00  0.00    +0.000 NA
ATOM     17  C   UNL     1       8.820   9.758  18.563  0.00  0.00    +0.000 A 
ATOM     18  N   UNL     1       8.002   9.841  17.502  0.00  0.00    +0.000 NA
ATOM     19  O   UNL     1       7.545   8.537  17.333  0.00  0.00    +0.000 OA
BRANCH  17  20
ATOM     20  C   UNL     1       9.550  10.894  19.121  0.00  0.00    +0.000 A 
ATOM     21  C   UNL     1      10.255  11.766  18.276  0.00  0.00    +0.000 A 
ATOM     22  C   UNL     1      10.956  12.855  18.800  0.00  0.00    +0.000 A 
ATOM     23  C   UNL     1      10.962  13.084  20.172  0.00  0.00    +0.000 A 
ATOM     24  C   UNL     1      10.264  12.230  21.024  0.00  0.00    +0.000 A 
ATOM     25  C   UNL     1       9.562  11.141  20.502  0.00  0.00    +0.000 A 
ENDBRANCH  17  20
ENDBRANCH  14  15
ENDBRANCH   1  14
TORSDOF 6
ENDMDL
MODEL 3
REMARK VINA RESULT:      -7.8      3.117      4.359
REMARK  Name = 
REMARK  7 active torsions:
REMARK  status: ('A' for Active; 'I' for Inactive)
REMARK    1  A    between atoms: C_2  and  C_3
REMARK    2  A    between atoms: C_2  and  C_4
REMARK    3  A    between atoms: C_4  and  C_6
REMARK    4  A    between atoms: C_9  and  O_10
REMARK    5  A    between atoms: O_10  and  C_11
REMARK    6  A    between atoms: C_11  and  C_12
REMARK    7  A    between atoms: C_14  and  C_15
REMARK                            x       y       z     vdW  Elec       q    Type
REMARK                         _______ _______ _______ _____ _____    ______ ____
ROOT
ATOM      1  O   UNL     1       6.987   5.901  17.723  0.00  0.00    +0.000 OA
ENDROOT
BRANCH   1   5
ATOM      2  C   UNL     1       3.256   5.405  19.563  0.00  0.00    +0.000 A 
ATOM      3  C   UNL     1       4.354   4.571  19.825  0.00  0.00    +0.000 A 
ATOM      4  C   UNL     1       5.590   4.799  19.217  0.00  0.00    +0.000 A 
ATOM      5  C   UNL     1       5.738   5.809  18.270  0.00  0.00    +0.000 A 
ATOM      6  C   UNL     1       4.644   6.616  17.962  0.00  0.00    +0.000 A 
ATOM      7  C   UNL     1       3.413   6.433  18.619  0.00  0.00    +0.000 A 
ATOM      8 BR   UNL     1       2.049   7.684  18.173  0.00  0.00    +0.000 Br
BRANCH   2   9
ATOM      9  C   UNL     1       1.944   5.100  20.197  0.00  0.00    +0.000 C 
ATOM     10  O   UNL     1       1.289   6.023  20.673  0.00  0.00    +0.000 OA
BRANCH   9  12
ATOM     11  C   UNL     1       0.845   3.266  19.057  0.00  0.00    +0.000 C 
ATOM     12  C   UNL     1       1.400   3.693  20.206  0.00  0.00    +0.000 C 
ATOM     13  C   UNL     1       1.381   2.837  21.434  0.00  0.00    +0.000 C 
ENDBRANCH   9  12
ENDBRANCH   2   9
ENDBRANCH   1   5
BRANCH   1  14
ATOM     14  C   UNL     1       7.570   4.687  17.247  0.00  0.00    +0.000 C 
BRANCH  14  15
ATOM     15  C   UNL     1       7.270   4.582  15.801  0.00  0.00    +0.000 A 
ATOM     16  N   UNL     1       6.532   3.708  15.158  0.00  0.00    +0.000 NA
ATOM     17  C   UNL     1       6.583   4.170  13.863  0.00  0.00    +0.000 A 
ATOM     18  N   UNL     1       7.311   5.288  13.710  0.00  0.00    +0.000 NA
ATOM     19  O   UNL     1       7.769   5.563  14.996  0.00  0.00    +0.000 OA
BRANCH  17  20
ATOM     20  C   UNL     1       5.887   3.495  12.770  0.00  0.00    +0.000 A 
ATOM     21  C   UNL     1       4.639   3.963  12.330  0.00  0.00    +0.000 A 
ATOM     22  C   UNL     1       3.966   3.324  11.286  0.00  0.00    +0.000 A 
ATOM     23  C   UNL     1       4.530   2.211  10.671  0.00  0.00    +0.000 A 
ATOM     24  C   UNL     1       5.771   1.737  11.094  0.00  0.00    +0.000 A 
ATOM     25  C   UNL     1       6.446   2.374  12.137  0.00  0.00    +0.000 A 
ENDBRANCH  17  20
ENDBRANCH  14  15
ENDBRANCH   1  14
TORSDOF 6
ENDMDL
MODEL 4
REMARK VINA RESULT:      -7.7      5.176      6.980
REMARK  Name = 
REMARK  7 active torsions:
REMARK  status: ('A' for Active; 'I' for Inactive)
REMARK    1  A    between atoms: C_2  and  C_3
REMARK    2  A    between atoms: C_2  and  C_4
REMARK    3  A    between atoms: C_4  and  C_6
REMARK    4  A    between atoms: C_9  and  O_10
REMARK    5  A    between atoms: O_10  and  C_11
REMARK    6  A    between atoms: C_11  and  C_12
REMARK    7  A    between atoms: C_14  and  C_15
REMARK                            x       y       z     vdW  Elec       q    Type
REMARK                         _______ _______ _______ _____ _____    ______ ____
ROOT
ATOM      1  O   UNL     1       6.889   5.846  17.078  0.00  0.00    +0.000 OA
ENDROOT
BRANCH   1   5
ATOM      2  C   UNL     1       3.029   4.569  18.087  0.00  0.00    +0.000 A 
ATOM      3  C   UNL     1       3.356   5.916  17.871  0.00  0.00    +0.000 A 
ATOM      4  C   UNL     1       4.649   6.290  17.498  0.00  0.00    +0.000 A 
ATOM      5  C   UNL     1       5.664   5.342  17.414  0.00  0.00    +0.000 A 
ATOM      6  C   UNL     1       5.367   4.005  17.673  0.00  0.00    +0.000 A 
ATOM      7  C   UNL     1       4.054   3.613  17.987  0.00  0.00    +0.000 A 
ATOM      8 BR   UNL     1       3.784   1.740  18.203  0.00  0.00    +0.000 Br
BRANCH   2   9
ATOM      9  C   UNL     1       1.651   4.216  18.528  0.00  0.00    +0.000 C 
ATOM     10  O   UNL     1       0.805   3.960  17.676  0.00  0.00    +0.000 OA
BRANCH   9  12
ATOM     11  C   UNL     1       1.366   5.272  20.690  0.00  0.00    +0.000 C 
ATOM     12  C   UNL     1       1.312   4.121  19.994  0.00  0.00    +0.000 C 
ATOM     13  C   UNL     1       1.023   2.821  20.679  0.00  0.00    +0.000 C 
ENDBRANCH   9  12
ENDBRANCH   2   9
ENDBRANCH   1   5
BRANCH   1  14
ATOM     14  C   UNL     1       7.769   6.170  18.156  0.00  0.00    +0.000 C 
BRANCH  14  15
ATOM     15  C   UNL     1       8.003   7.633  18.118  0.00  0.00    +0.000 A 
ATOM     16  N   UNL     1       8.702   8.391  18.929  0.00  0.00    +0.000 NA
ATOM     17  C   UNL     1       8.597   9.631  18.340  0.00  0.00    +0.000 A 
ATOM     18  N   UNL     1       7.874   9.639  17.209  0.00  0.00    +0.000 NA
ATOM     19  O   UNL     1       7.477   8.313  17.060  0.00  0.00    +0.000 OA
BRANCH  17  20
ATOM     20  C   UNL     1       9.236  10.815  18.908  0.00  0.00    +0.000 A 
ATOM     21  C   UNL     1       9.823  10.760  20.182  0.00  0.00    +0.000 A 
ATOM     22  C   UNL     1      10.437  11.888  20.734  0.00  0.00    +0.000 A 
ATOM     23  C   UNL     1      10.470  13.082  20.021  0.00  0.00    +0.000 A 
ATOM     24  C   UNL     1       9.896  13.151  18.752  0.00  0.00    +0.000 A 
ATOM     25  C   UNL     1       9.282  12.025  18.198  0.00  0.00    +0.000 A 
ENDBRANCH  17  20
ENDBRANCH  14  15
ENDBRANCH   1  14
TORSDOF 6
ENDMDL
MODEL 5
REMARK VINA RESULT:      -7.6      0.682      1.217
REMARK  Name = 
REMARK  7 active torsions:
REMARK  status: ('A' for Active; 'I' for Inactive)
REMARK    1  A    between atoms: C_2  and  C_3
REMARK    2  A    between atoms: C_2  and  C_4
REMARK    3  A    between atoms: C_4  and  C_6
REMARK    4  A    between atoms: C_9  and  O_10
REMARK    5  A    between atoms: O_10  and  C_11
REMARK    6  A    between atoms: C_11  and  C_12
REMARK    7  A    between atoms: C_14  and  C_15
REMARK                            x       y       z     vdW  Elec       q    Type
REMARK                         _______ _______ _______ _____ _____    ______ ____
ROOT
ATOM      1  O   UNL     1       3.128   5.992  18.321  0.00  0.00    +0.000 OA
ENDROOT
BRANCH   1   5
ATOM      2  C   UNL     1       1.228   9.622  19.192  0.00  0.00    +0.000 A 
ATOM      3  C   UNL     1       1.690   9.291  17.909  0.00  0.00    +0.000 A 
ATOM      4  C   UNL     1       2.282   8.051  17.658  0.00  0.00    +0.000 A 
ATOM      5  C   UNL     1       2.506   7.149  18.695  0.00  0.00    +0.000 A 
ATOM      6  C   UNL     1       2.097   7.484  19.985  0.00  0.00    +0.000 A 
ATOM      7  C   UNL     1       1.441   8.703  20.233  0.00  0.00    +0.000 A 
ATOM      8 BR   UNL     1       0.843   8.966  22.022  0.00  0.00    +0.000 Br
BRANCH   2   9
ATOM      9  C   UNL     1       0.643  10.971  19.428  0.00  0.00    +0.000 C 
ATOM     10  O   UNL     1       1.396  11.939  19.487  0.00  0.00    +0.000 OA
BRANCH   9  12
ATOM     11  C   UNL     1      -1.589  10.591  18.567  0.00  0.00    +0.000 C 
ATOM     12  C   UNL     1      -0.849  11.156  19.539  0.00  0.00    +0.000 C 
ATOM     13  C   UNL     1      -1.488  11.994  20.603  0.00  0.00    +0.000 C 
ENDBRANCH   9  12
ENDBRANCH   2   9
ENDBRANCH   1   5
BRANCH   1  14
ATOM     14  C   UNL     1       4.415   5.741  18.890  0.00  0.00    +0.000 C 
BRANCH  14  15
ATOM     15  C   UNL     1       5.300   5.261  17.803  0.00  0.00    +0.000 A 
ATOM     16  N   UNL     1       5.095   5.228  16.508  0.00  0.00    +0.000 NA
ATOM     17  C   UNL     1       6.293   4.746  16.030  0.00  0.00    +0.000 A 
ATOM     18  N   UNL     1       7.203   4.502  16.986  0.00  0.00    +0.000 NA
ATOM     19  O   UNL     1       6.546   4.842  18.165  0.00  0.00    +0.000 OA
BRANCH  17  20
ATOM     20  C   UNL     1       6.532   4.540  14.604  0.00  0.00    +0.000 A 
ATOM     21  C   UNL     1       7.557   5.242  13.950  0.00  0.00    +0.000 A 
ATOM     22  C   UNL     1       7.794   5.053  12.586  0.00  0.00    +0.000 A 
ATOM     23  C   UNL     1       7.010   4.161  11.860  0.00  0.00    +0.000 A 
ATOM     24  C   UNL     1       5.991   3.453  12.496  0.00  0.00    +0.000 A 
ATOM     25  C   UNL     1       5.753   3.641  13.860  0.00  0.00    +0.000 A 
ENDBRANCH  17  20
ENDBRANCH  14  15
ENDBRANCH   1  14
TORSDOF 6
ENDMDL
MODEL 6
REMARK VINA RESULT:      -7.6      4.517     10.494
REMARK  Name = 
REMARK  7 active torsions:
REMARK  status: ('A' for Active; 'I' for Inactive)
REMARK    1  A    between atoms: C_2  and  C_3
REMARK    2  A    between atoms: C_2  and  C_4
REMARK    3  A    between atoms: C_4  and  C_6
REMARK    4  A    between atoms: C_9  and  O_10
REMARK    5  A    between atoms: O_10  and  C_11
REMARK    6  A    between atoms: C_11  and  C_12
REMARK    7  A    between atoms: C_14  and  C_15
REMARK                            x       y       z     vdW  Elec       q    Type
REMARK                         _______ _______ _______ _____ _____    ______ ____
ROOT
ATOM      1  O   UNL     1       1.811   8.805  20.868  0.00  0.00    +0.000 OA
ENDROOT
BRANCH   1   5
ATOM      2  C   UNL     1       2.230   5.260  18.675  0.00  0.00    +0.000 A 
ATOM      3  C   UNL     1       2.418   6.532  18.113  0.00  0.00    +0.000 A 
ATOM      4  C   UNL     1       2.306   7.685  18.894  0.00  0.00    +0.000 A 
ATOM      5  C   UNL     1       1.921   7.602  20.229  0.00  0.00    +0.000 A 
ATOM      6  C   UNL     1       1.683   6.348  20.790  0.00  0.00    +0.000 A 
ATOM      7  C   UNL     1       1.856   5.179  20.027  0.00  0.00    +0.000 A 
ATOM      8 BR   UNL     1       1.603   3.541  20.963  0.00  0.00    +0.000 Br
BRANCH   2   9
ATOM      9  C   UNL     1       2.313   4.059  17.799  0.00  0.00    +0.000 C 
ATOM     10  O   UNL     1       1.317   3.720  17.164  0.00  0.00    +0.000 OA
BRANCH   9  12
ATOM     11  C   UNL     1       3.584   2.008  18.018  0.00  0.00    +0.000 C 
ATOM     12  C   UNL     1       3.608   3.302  17.648  0.00  0.00    +0.000 C 
ATOM     13  C   UNL     1       4.883   3.952  17.207  0.00  0.00    +0.000 C 
ENDBRANCH   9  12
ENDBRANCH   2   9
ENDBRANCH   1   5
BRANCH   1  14
ATOM     14  C   UNL     1       1.140   8.804  22.129  0.00  0.00    +0.000 C 
BRANCH  14  15
ATOM     15  C   UNL     1       0.168   9.922  22.120  0.00  0.00    +0.000 A 
ATOM     16  N   UNL     1      -0.331  10.607  23.121  0.00  0.00    +0.000 NA
ATOM     17  C   UNL     1      -1.114  11.541  22.482  0.00  0.00    +0.000 A 
ATOM     18  N   UNL     1      -1.093  11.445  21.143  0.00  0.00    +0.000 NA
ATOM     19  O   UNL     1      -0.243  10.369  20.900  0.00  0.00    +0.000 OA
BRANCH  17  20
ATOM     20  C   UNL     1      -1.879  12.545  23.216  0.00  0.00    +0.000 A 
ATOM     21  C   UNL     1      -3.177  12.256  23.666  0.00  0.00    +0.000 A 
ATOM     22  C   UNL     1      -3.917  13.210  24.369  0.00  0.00    +0.000 A 
ATOM     23  C   UNL     1      -3.371  14.462  24.629  0.00  0.00    +0.000 A 
ATOM     24  C   UNL     1      -2.081  14.763  24.193  0.00  0.00    +0.000 A 
ATOM     25  C   UNL     1      -1.339  13.811  23.490  0.00  0.00    +0.000 A 
ENDBRANCH  17  20
ENDBRANCH  14  15
ENDBRANCH   1  14
TORSDOF 6
ENDMDL
MODEL 7
REMARK VINA RESULT:      -7.6      6.209      7.486
REMARK  Name = 
REMARK  7 active torsions:
REMARK  status: ('A' for Active; 'I' for Inactive)
REMARK    1  A    between atoms: C_2  and  C_3
REMARK    2  A    between atoms: C_2  and  C_4
REMARK    3  A    between atoms: C_4  and  C_6
REMARK    4  A    between atoms: C_9  and  O_10
REMARK    5  A    between atoms: O_10  and  C_11
REMARK    6  A    between atoms: C_11  and  C_12
REMARK    7  A    between atoms: C_14  and  C_15
REMARK                            x       y       z     vdW  Elec       q    Type
REMARK                         _______ _______ _______ _____ _____    ______ ____
ROOT
ATOM      1  O   UNL     1       7.565   8.880  17.349  0.00  0.00    +0.000 OA
ENDROOT
BRANCH   1   5
ATOM      2  C   UNL     1       9.806  11.698  19.490  0.00  0.00    +0.000 A 
ATOM      3  C   UNL     1       9.757  10.339  19.837  0.00  0.00    +0.000 A 
ATOM      4  C   UNL     1       9.026   9.429  19.069  0.00  0.00    +0.000 A 
ATOM      5  C   UNL     1       8.262   9.865  17.991  0.00  0.00    +0.000 A 
ATOM      6  C   UNL     1       8.261  11.220  17.662  0.00  0.00    +0.000 A 
ATOM      7  C   UNL     1       9.045  12.132  18.392  0.00  0.00    +0.000 A 
ATOM      8 BR   UNL     1       9.028  13.926  17.754  0.00  0.00    +0.000 Br
BRANCH   2   9
ATOM      9  C   UNL     1      10.559  12.643  20.361  0.00  0.00    +0.000 C 
ATOM     10  O   UNL     1      11.749  12.839  20.130  0.00  0.00    +0.000 OA
BRANCH   9  12
ATOM     11  C   UNL     1      10.167  14.696  21.587  0.00  0.00    +0.000 C 
ATOM     12  C   UNL     1       9.863  13.390  21.471  0.00  0.00    +0.000 C 
ATOM     13  C   UNL     1       8.957  12.720  22.457  0.00  0.00    +0.000 C 
ENDBRANCH   9  12
ENDBRANCH   2   9
ENDBRANCH   1   5
BRANCH   1  14
ATOM     14  C   UNL     1       7.777   7.543  17.805  0.00  0.00    +0.000 C 
BRANCH  14  15
ATOM     15  C   UNL     1       6.611   6.734  17.380  0.00  0.00    +0.000 A 
ATOM     16  N   UNL     1       5.850   5.927  18.079  0.00  0.00    +0.000 NA
ATOM     17  C   UNL     1       4.909   5.531  17.157  0.00  0.00    +0.000 A 
ATOM     18  N   UNL     1       5.072   6.077  15.941  0.00  0.00    +0.000 NA
ATOM     19  O   UNL     1       6.203   6.876  16.086  0.00  0.00    +0.000 OA
BRANCH  17  20
ATOM     20  C   UNL     1       3.829   4.607  17.498  0.00  0.00    +0.000 A 
ATOM     21  C   UNL     1       2.571   5.100  17.879  0.00  0.00    +0.000 A 
ATOM     22  C   UNL     1       1.532   4.225  18.208  0.00  0.00    +0.000 A 
ATOM     23  C   UNL     1       1.738   2.850  18.159  0.00  0.00    +0.000 A 
ATOM     24  C   UNL     1       2.980   2.345  17.777  0.00  0.00    +0.000 A 
ATOM     25  C   UNL     1       4.020   3.218  17.448  0.00  0.00    +0.000 A 
ENDBRANCH  17  20
ENDBRANCH  14  15
ENDBRANCH   1  14
TORSDOF 6
ENDMDL
MODEL 8
REMARK VINA RESULT:      -7.5      3.358      4.694
REMARK  Name = 
REMARK  7 active torsions:
REMARK  status: ('A' for Active; 'I' for Inactive)
REMARK    1  A    between atoms: C_2  and  C_3
REMARK    2  A    between atoms: C_2  and  C_4
REMARK    3  A    between atoms: C_4  and  C_6
REMARK    4  A    between atoms: C_9  and  O_10
REMARK    5  A    between atoms: O_10  and  C_11
REMARK    6  A    between atoms: C_11  and  C_12
REMARK    7  A    between atoms: C_14  and  C_15
REMARK                            x       y       z     vdW  Elec       q    Type
REMARK                         _______ _______ _______ _____ _____    ______ ____
ROOT
ATOM      1  O   UNL     1       6.308   6.349  17.124  0.00  0.00    +0.000 OA
ENDROOT
BRANCH   1   5
ATOM      2  C   UNL     1       3.017   5.056  19.370  0.00  0.00    +0.000 A 
ATOM      3  C   UNL     1       3.028   6.264  18.657  0.00  0.00    +0.000 A 
ATOM      4  C   UNL     1       4.134   6.635  17.890  0.00  0.00    +0.000 A 
ATOM      5  C   UNL     1       5.286   5.854  17.884  0.00  0.00    +0.000 A 
ATOM      6  C   UNL     1       5.310   4.674  18.626  0.00  0.00    +0.000 A 
ATOM      7  C   UNL     1       4.176   4.262  19.349  0.00  0.00    +0.000 A 
ATOM      8 BR   UNL     1       4.325   2.575  20.220  0.00  0.00    +0.000 Br
BRANCH   2   9
ATOM      9  C   UNL     1       1.837   4.719  20.212  0.00  0.00    +0.000 C 
ATOM     10  O   UNL     1       1.376   5.581  20.956  0.00  0.00    +0.000 OA
BRANCH   9  12
ATOM     11  C   UNL     1       1.039   2.693  21.274  0.00  0.00    +0.000 C 
ATOM     12  C   UNL     1       1.183   3.363  20.116  0.00  0.00    +0.000 C 
ATOM     13  C   UNL     1       0.794   2.738  18.812  0.00  0.00    +0.000 C 
ENDBRANCH   9  12
ENDBRANCH   2   9
ENDBRANCH   1   5
BRANCH   1  14
ATOM     14  C   UNL     1       7.372   5.448  16.811  0.00  0.00    +0.000 C 
BRANCH  14  15
ATOM     15  C   UNL     1       7.200   5.025  15.402  0.00  0.00    +0.000 A 
ATOM     16  N   UNL     1       6.366   4.155  14.883  0.00  0.00    +0.000 NA
ATOM     17  C   UNL     1       6.638   4.249  13.537  0.00  0.00    +0.000 A 
ATOM     18  N   UNL     1       7.591   5.144  13.234  0.00  0.00    +0.000 NA
ATOM     19  O   UNL     1       7.967   5.660  14.471  0.00  0.00    +0.000 OA
BRANCH  17  20
ATOM     20  C   UNL     1       5.930   3.444  12.545  0.00  0.00    +0.000 A 
ATOM     21  C   UNL     1       6.512   2.271  12.039  0.00  0.00    +0.000 A 
ATOM     22  C   UNL     1       5.842   1.495  11.090  0.00  0.00    +0.000 A 
ATOM     23  C   UNL     1       4.585   1.881  10.635  0.00  0.00    +0.000 A 
ATOM     24  C   UNL     1       3.992   3.040  11.132  0.00  0.00    +0.000 A 
ATOM     25  C   UNL     1       4.659   3.818  12.081  0.00  0.00    +0.000 A 
ENDBRANCH  17  20
ENDBRANCH  14  15
ENDBRANCH   1  14
TORSDOF 6
ENDMDL
MODEL 9
REMARK VINA RESULT:      -7.5      0.980      1.223
REMARK  Name = 
REMARK  7 active torsions:
REMARK  status: ('A' for Active; 'I' for Inactive)
REMARK    1  A    between atoms: C_2  and  C_3
REMARK    2  A    between atoms: C_2  and  C_4
REMARK    3  A    between atoms: C_4  and  C_6
REMARK    4  A    between atoms: C_9  and  O_10
REMARK    5  A    between atoms: O_10  and  C_11
REMARK    6  A    between atoms: C_11  and  C_12
REMARK    7  A    between atoms: C_14  and  C_15
REMARK                            x       y       z     vdW  Elec       q    Type
REMARK                         _______ _______ _______ _____ _____    ______ ____
ROOT
ATOM      1  O   UNL     1       2.857   6.021  18.315  0.00  0.00    +0.000 OA
ENDROOT
BRANCH   1   5
ATOM      2  C   UNL     1       1.201   9.767  19.198  0.00  0.00    +0.000 A 
ATOM      3  C   UNL     1       1.606   9.396  17.906  0.00  0.00    +0.000 A 
ATOM      4  C   UNL     1       2.116   8.120  17.653  0.00  0.00    +0.000 A 
ATOM      5  C   UNL     1       2.315   7.217  18.693  0.00  0.00    +0.000 A 
ATOM      6  C   UNL     1       1.964   7.588  19.990  0.00  0.00    +0.000 A 
ATOM      7  C   UNL     1       1.390   8.847  20.243  0.00  0.00    +0.000 A 
ATOM      8 BR   UNL     1       0.861   9.162  22.044  0.00  0.00    +0.000 Br
BRANCH   2   9
ATOM      9  C   UNL     1       0.705  11.150  19.435  0.00  0.00    +0.000 C 
ATOM     10  O   UNL     1       1.493  11.998  19.846  0.00  0.00    +0.000 OA
BRANCH   9  12
ATOM     11  C   UNL     1      -1.110  12.753  19.507  0.00  0.00    +0.000 C 
ATOM     12  C   UNL     1      -0.723  11.521  19.126  0.00  0.00    +0.000 C 
ATOM     13  C   UNL     1      -1.699  10.562  18.518  0.00  0.00    +0.000 C 
ENDBRANCH   9  12
ENDBRANCH   2   9
ENDBRANCH   1   5
BRANCH   1  14
ATOM     14  C   UNL     1       4.159   5.717  18.817  0.00  0.00    +0.000 C 
BRANCH  14  15
ATOM     15  C   UNL     1       5.083   5.656  17.661  0.00  0.00    +0.000 A 
ATOM     16  N   UNL     1       4.974   4.993  16.535  0.00  0.00    +0.000 NA
ATOM     17  C   UNL     1       6.099   5.388  15.846  0.00  0.00    +0.000 A 
ATOM     18  N   UNL     1       6.865   6.267  16.512  0.00  0.00    +0.000 NA
ATOM     19  O   UNL     1       6.193   6.446  17.718  0.00  0.00    +0.000 OA
BRANCH  17  20
ATOM     20  C   UNL     1       6.402   4.893  14.506  0.00  0.00    +0.000 A 
ATOM     21  C   UNL     1       5.592   3.910  13.915  0.00  0.00    +0.000 A 
ATOM     22  C   UNL     1       5.875   3.429  12.634  0.00  0.00    +0.000 A 
ATOM     23  C   UNL     1       6.968   3.923  11.930  0.00  0.00    +0.000 A 
ATOM     24  C   UNL     1       7.779   4.903  12.501  0.00  0.00    +0.000 A 
ATOM     25  C   UNL     1       7.498   5.385  13.782  0.00  0.00    +0.000 A 
ENDBRANCH  17  20
ENDBRANCH  14  15
ENDBRANCH   1  14
TORSDOF 6
ENDMDL
