MODEL 1
REMARK VINA RESULT:      -7.5      0.000      0.000
REMARK  Name = 
REMARK  18 active torsions:
REMARK  status: ('A' for Active; 'I' for Inactive)
REMARK    1  A    between atoms: C_1  and  C_2
REMARK    2  A    between atoms: C_2  and  C_3
REMARK    3  A    between atoms: C_3  and  C_4
REMARK    4  A    between atoms: C_4  and  C_5
REMARK    5  A    between atoms: C_5  and  C_6
REMARK    6  A    between atoms: C_6  and  C_7
REMARK    7  A    between atoms: C_7  and  C_8
REMARK    8  A    between atoms: C_8  and  O_9
REMARK    9  A    between atoms: O_9  and  C_10
REMARK   10  A    between atoms: C_12  and  C_13
REMARK   11  A    between atoms: C_13  and  O_14
REMARK   12  A    between atoms: C_15  and  O_16
REMARK   13  A    between atoms: C_17  and  O_18
REMARK   14  A    between atoms: O_18  and  C_19
REMARK   15  A    between atoms: C_19  and  C_20
REMARK   16  A    between atoms: C_26  and  O_27
REMARK   17  A    between atoms: O_27  and  C_28
REMARK   18  A    between atoms: C_28  and  C_29
REMARK                            x       y       z     vdW  Elec       q    Type
REMARK                         _______ _______ _______ _____ _____    ______ ____
ROOT
ATOM      1  C   UNL     1       4.295   5.639  17.719  0.00  0.00    +0.000 C 
ATOM      2  O   UNL     1       5.362   6.553  17.620  0.00  0.00    +0.000 OA
ATOM      3  C   UNL     1       6.614   6.002  17.938  0.00  0.00    +0.000 C 
ATOM      4  C   UNL     1       6.978   5.006  16.846  0.00  0.00    +0.000 C 
ATOM      5  C   UNL     1       5.847   3.953  16.625  0.00  0.00    +0.000 C 
ATOM      6  C   UNL     1       4.408   4.573  16.599  0.00  0.00    +0.000 C 
ENDROOT
BRANCH   4   7
ATOM      7  O   UNL     1       8.221   4.397  17.228  0.00  0.00    +0.000 OA
ATOM      8  H   UNL     1       8.146   3.431  17.133  0.00  0.00    +0.000 HD
ENDBRANCH   4   7
BRANCH   3   9
ATOM      9  C   UNL     1       7.611   7.167  18.088  0.00  0.00    +0.000 C 
BRANCH   9  10
ATOM     10  O   UNL     1       7.553   8.119  17.027  0.00  0.00    +0.000 OA
ATOM     11  H   UNL     1       8.365   8.649  17.034  0.00  0.00    +0.000 HD
ENDBRANCH   9  10
ENDBRANCH   3   9
BRANCH   6  12
ATOM     12  O   UNL     1       3.431   3.502  16.770  0.00  0.00    +0.000 OA
BRANCH  12  13
ATOM     13  C   UNL     1       3.788   2.582  17.815  0.00  0.00    +0.000 C 
BRANCH  13  14
ATOM     14  C   UNL     1       2.947   2.704  19.061  0.00  0.00    +0.000 A 
ATOM     15  C   UNL     1       1.562   2.939  18.914  0.00  0.00    +0.000 A 
ATOM     16  C   UNL     1       0.737   3.084  20.025  0.00  0.00    +0.000 A 
ATOM     17  C   UNL     1       1.282   2.977  21.302  0.00  0.00    +0.000 A 
ATOM     18  C   UNL     1       2.646   2.717  21.460  0.00  0.00    +0.000 A 
ATOM     19  C   UNL     1       3.476   2.573  20.343  0.00  0.00    +0.000 A 
ENDBRANCH  13  14
ENDBRANCH  12  13
ENDBRANCH   6  12
BRANCH   5  20
ATOM     20  O   UNL     1       6.055   3.261  15.371  0.00  0.00    +0.000 OA
BRANCH  20  21
ATOM     21  C   UNL     1       6.289   4.124  14.259  0.00  0.00    +0.000 C 
BRANCH  21  22
ATOM     22  C   UNL     1       5.744   3.497  13.008  0.00  0.00    +0.000 A 
ATOM     23  C   UNL     1       4.537   3.955  12.454  0.00  0.00    +0.000 A 
ATOM     24  C   UNL     1       4.034   3.372  11.290  0.00  0.00    +0.000 A 
ATOM     25  C   UNL     1       4.731   2.342  10.675  0.00  0.00    +0.000 A 
ATOM     26  C   UNL     1       5.935   1.888  11.213  0.00  0.00    +0.000 A 
ATOM     27  C   UNL     1       6.440   2.465  12.375  0.00  0.00    +0.000 A 
ENDBRANCH  21  22
ENDBRANCH  20  21
ENDBRANCH   5  20
BRANCH   1  28
ATOM     28  O   UNL     1       3.092   6.399  17.587  0.00  0.00    +0.000 OA
BRANCH  28  29
ATOM     29  C   UNL     1       3.105   7.615  18.336  0.00  0.00    +0.000 C 
BRANCH  29  30
ATOM     30  C   UNL     1       1.903   8.509  18.027  0.00  0.00    +0.000 C 
BRANCH  30  31
ATOM     31  C   UNL     1       1.378   9.238  19.270  0.00  0.00    +0.000 C 
BRANCH  31  32
ATOM     32  C   UNL     1       1.492   8.341  20.491  0.00  0.00    +0.000 C 
BRANCH  32  33
ATOM     33  C   UNL     1       0.256   8.422  21.372  0.00  0.00    +0.000 C 
BRANCH  33  34
ATOM     34  C   UNL     1       0.579   9.265  22.601  0.00  0.00    +0.000 C 
BRANCH  34  36
ATOM     35  C   UNL     1      -0.525  11.450  22.097  0.00  0.00    +0.000 C 
ATOM     36  C   UNL     1      -0.573  10.195  22.953  0.00  0.00    +0.000 C 
ENDBRANCH  34  36
ENDBRANCH  33  34
ENDBRANCH  32  33
ENDBRANCH  31  32
ENDBRANCH  30  31
ENDBRANCH  29  30
ENDBRANCH  28  29
ENDBRANCH   1  28
TORSDOF 17
ENDMDL
MODEL 2
REMARK VINA RESULT:      -7.5      1.131      1.696
REMARK  Name = 
REMARK  18 active torsions:
REMARK  status: ('A' for Active; 'I' for Inactive)
REMARK    1  A    between atoms: C_1  and  C_2
REMARK    2  A    between atoms: C_2  and  C_3
REMARK    3  A    between atoms: C_3  and  C_4
REMARK    4  A    between atoms: C_4  and  C_5
REMARK    5  A    between atoms: C_5  and  C_6
REMARK    6  A    between atoms: C_6  and  C_7
REMARK    7  A    between atoms: C_7  and  C_8
REMARK    8  A    between atoms: C_8  and  O_9
REMARK    9  A    between atoms: O_9  and  C_10
REMARK   10  A    between atoms: C_12  and  C_13
REMARK   11  A    between atoms: C_13  and  O_14
REMARK   12  A    between atoms: C_15  and  O_16
REMARK   13  A    between atoms: C_17  and  O_18
REMARK   14  A    between atoms: O_18  and  C_19
REMARK   15  A    between atoms: C_19  and  C_20
REMARK   16  A    between atoms: C_26  and  O_27
REMARK   17  A    between atoms: O_27  and  C_28
REMARK   18  A    between atoms: C_28  and  C_29
REMARK                            x       y       z     vdW  Elec       q    Type
REMARK                         _______ _______ _______ _____ _____    ______ ____
ROOT
ATOM      1  C   UNL     1       4.554   5.952  17.793  0.00  0.00    +0.000 C 
ATOM      2  O   UNL     1       5.738   6.707  17.701  0.00  0.00    +0.000 OA
ATOM      3  C   UNL     1       6.897   5.994  18.049  0.00  0.00    +0.000 C 
ATOM      4  C   UNL     1       7.137   4.941  16.977  0.00  0.00    +0.000 C 
ATOM      5  C   UNL     1       5.875   4.050  16.749  0.00  0.00    +0.000 C 
ATOM      6  C   UNL     1       4.536   4.863  16.689  0.00  0.00    +0.000 C 
ENDROOT
BRANCH   4   7
ATOM      7  O   UNL     1       8.278   4.172  17.389  0.00  0.00    +0.000 OA
ATOM      8  H   UNL     1       8.240   4.036  18.352  0.00  0.00    +0.000 HD
ENDBRANCH   4   7
BRANCH   3   9
ATOM      9  C   UNL     1       8.043   7.012  18.201  0.00  0.00    +0.000 C 
BRANCH   9  10
ATOM     10  O   UNL     1       7.917   8.157  17.359  0.00  0.00    +0.000 OA
ATOM     11  H   UNL     1       8.590   8.112  16.663  0.00  0.00    +0.000 HD
ENDBRANCH   9  10
ENDBRANCH   3   9
BRANCH   6  12
ATOM     12  O   UNL     1       3.418   3.940  16.856  0.00  0.00    +0.000 OA
BRANCH  12  13
ATOM     13  C   UNL     1       3.690   2.899  17.809  0.00  0.00    +0.000 C 
BRANCH  13  14
ATOM     14  C   UNL     1       2.810   2.936  19.034  0.00  0.00    +0.000 A 
ATOM     15  C   UNL     1       3.388   2.623  20.284  0.00  0.00    +0.000 A 
ATOM     16  C   UNL     1       2.623   2.617  21.447  0.00  0.00    +0.000 A 
ATOM     17  C   UNL     1       1.272   2.944  21.380  0.00  0.00    +0.000 A 
ATOM     18  C   UNL     1       0.695   3.284  20.153  0.00  0.00    +0.000 A 
ATOM     19  C   UNL     1       1.463   3.288  18.984  0.00  0.00    +0.000 A 
ENDBRANCH  13  14
ENDBRANCH  12  13
ENDBRANCH   6  12
BRANCH   5  20
ATOM     20  O   UNL     1       6.005   3.317  15.508  0.00  0.00    +0.000 OA
BRANCH  20  21
ATOM     21  C   UNL     1       6.393   4.120  14.393  0.00  0.00    +0.000 C 
BRANCH  21  22
ATOM     22  C   UNL     1       5.859   3.516  13.125  0.00  0.00    +0.000 A 
ATOM     23  C   UNL     1       4.575   3.852  12.667  0.00  0.00    +0.000 A 
ATOM     24  C   UNL     1       4.083   3.291  11.488  0.00  0.00    +0.000 A 
ATOM     25  C   UNL     1       4.866   2.405  10.763  0.00  0.00    +0.000 A 
ATOM     26  C   UNL     1       6.147   2.074  11.206  0.00  0.00    +0.000 A 
ATOM     27  C   UNL     1       6.642   2.629  12.383  0.00  0.00    +0.000 A 
ENDBRANCH  21  22
ENDBRANCH  20  21
ENDBRANCH   5  20
BRANCH   1  28
ATOM     28  O   UNL     1       3.470   6.868  17.629  0.00  0.00    +0.000 OA
BRANCH  28  29
ATOM     29  C   UNL     1       2.558   6.869  18.729  0.00  0.00    +0.000 C 
BRANCH  29  30
ATOM     30  C   UNL     1       2.036   8.269  19.058  0.00  0.00    +0.000 C 
BRANCH  30  31
ATOM     31  C   UNL     1       1.619   9.051  17.807  0.00  0.00    +0.000 C 
BRANCH  31  32
ATOM     32  C   UNL     1       0.354   9.845  18.081  0.00  0.00    +0.000 C 
BRANCH  32  33
ATOM     33  C   UNL     1       0.100  10.012  19.571  0.00  0.00    +0.000 C 
BRANCH  33  34
ATOM     34  C   UNL     1      -0.220  11.475  19.857  0.00  0.00    +0.000 C 
BRANCH  34  36
ATOM     35  C   UNL     1      -0.275  13.591  18.530  0.00  0.00    +0.000 C 
ATOM     36  C   UNL     1       0.574  12.404  18.951  0.00  0.00    +0.000 C 
ENDBRANCH  34  36
ENDBRANCH  33  34
ENDBRANCH  32  33
ENDBRANCH  31  32
ENDBRANCH  30  31
ENDBRANCH  29  30
ENDBRANCH  28  29
ENDBRANCH   1  28
TORSDOF 17
ENDMDL
MODEL 3
REMARK VINA RESULT:      -7.4      0.588      1.279
REMARK  Name = 
REMARK  18 active torsions:
REMARK  status: ('A' for Active; 'I' for Inactive)
REMARK    1  A    between atoms: C_1  and  C_2
REMARK    2  A    between atoms: C_2  and  C_3
REMARK    3  A    between atoms: C_3  and  C_4
REMARK    4  A    between atoms: C_4  and  C_5
REMARK    5  A    between atoms: C_5  and  C_6
REMARK    6  A    between atoms: C_6  and  C_7
REMARK    7  A    between atoms: C_7  and  C_8
REMARK    8  A    between atoms: C_8  and  O_9
REMARK    9  A    between atoms: O_9  and  C_10
REMARK   10  A    between atoms: C_12  and  C_13
REMARK   11  A    between atoms: C_13  and  O_14
REMARK   12  A    between atoms: C_15  and  O_16
REMARK   13  A    between atoms: C_17  and  O_18
REMARK   14  A    between atoms: O_18  and  C_19
REMARK   15  A    between atoms: C_19  and  C_20
REMARK   16  A    between atoms: C_26  and  O_27
REMARK   17  A    between atoms: O_27  and  C_28
REMARK   18  A    between atoms: C_28  and  C_29
REMARK                            x       y       z     vdW  Elec       q    Type
REMARK                         _______ _______ _______ _____ _____    ______ ____
ROOT
ATOM      1  C   UNL     1       4.325   5.521  17.827  0.00  0.00    +0.000 C 
ATOM      2  O   UNL     1       5.389   6.441  17.762  0.00  0.00    +0.000 OA
ATOM      3  C   UNL     1       6.647   5.878  18.034  0.00  0.00    +0.000 C 
ATOM      4  C   UNL     1       6.998   4.942  16.886  0.00  0.00    +0.000 C 
ATOM      5  C   UNL     1       5.866   3.899  16.625  0.00  0.00    +0.000 C 
ATOM      6  C   UNL     1       4.425   4.516  16.652  0.00  0.00    +0.000 C 
ENDROOT
BRANCH   4   7
ATOM      7  O   UNL     1       8.247   4.317  17.219  0.00  0.00    +0.000 OA
ATOM      8  H   UNL     1       8.502   4.575  18.123  0.00  0.00    +0.000 HD
ENDBRANCH   4   7
BRANCH   3   9
ATOM      9  C   UNL     1       7.643   7.036  18.232  0.00  0.00    +0.000 C 
BRANCH   9  10
ATOM     10  O   UNL     1       7.741   7.915  17.112  0.00  0.00    +0.000 OA
ATOM     11  H   UNL     1       7.045   8.586  17.176  0.00  0.00    +0.000 HD
ENDBRANCH   9  10
ENDBRANCH   3   9
BRANCH   6  12
ATOM     12  O   UNL     1       3.453   3.434  16.778  0.00  0.00    +0.000 OA
BRANCH  12  13
ATOM     13  C   UNL     1       3.745   2.546  17.869  0.00  0.00    +0.000 C 
BRANCH  13  14
ATOM     14  C   UNL     1       2.845   2.720  19.067  0.00  0.00    +0.000 A 
ATOM     15  C   UNL     1       3.403   2.552  20.354  0.00  0.00    +0.000 A 
ATOM     16  C   UNL     1       2.619   2.677  21.497  0.00  0.00    +0.000 A 
ATOM     17  C   UNL     1       1.268   2.991  21.371  0.00  0.00    +0.000 A 
ATOM     18  C   UNL     1       0.711   3.187  20.104  0.00  0.00    +0.000 A 
ATOM     19  C   UNL     1       1.499   3.059  18.955  0.00  0.00    +0.000 A 
ENDBRANCH  13  14
ENDBRANCH  12  13
ENDBRANCH   6  12
BRANCH   5  20
ATOM     20  O   UNL     1       6.058   3.275  15.334  0.00  0.00    +0.000 OA
BRANCH  20  21
ATOM     21  C   UNL     1       6.135   4.195  14.246  0.00  0.00    +0.000 C 
BRANCH  21  22
ATOM     22  C   UNL     1       5.677   3.524  12.982  0.00  0.00    +0.000 A 
ATOM     23  C   UNL     1       4.439   3.861  12.411  0.00  0.00    +0.000 A 
ATOM     24  C   UNL     1       4.017   3.237  11.235  0.00  0.00    +0.000 A 
ATOM     25  C   UNL     1       4.825   2.289  10.626  0.00  0.00    +0.000 A 
ATOM     26  C   UNL     1       6.061   1.957  11.182  0.00  0.00    +0.000 A 
ATOM     27  C   UNL     1       6.486   2.574  12.355  0.00  0.00    +0.000 A 
ENDBRANCH  21  22
ENDBRANCH  20  21
ENDBRANCH   5  20
BRANCH   1  28
ATOM     28  O   UNL     1       3.119   6.284  17.752  0.00  0.00    +0.000 OA
BRANCH  28  29
ATOM     29  C   UNL     1       3.337   7.694  17.809  0.00  0.00    +0.000 C 
BRANCH  29  30
ATOM     30  C   UNL     1       2.043   8.496  17.655  0.00  0.00    +0.000 C 
BRANCH  30  31
ATOM     31  C   UNL     1       1.796   9.445  18.833  0.00  0.00    +0.000 C 
BRANCH  31  32
ATOM     32  C   UNL     1       0.580  10.315  18.559  0.00  0.00    +0.000 C 
BRANCH  32  33
ATOM     33  C   UNL     1      -0.521  10.089  19.582  0.00  0.00    +0.000 C 
BRANCH  33  34
ATOM     34  C   UNL     1      -0.247  10.957  20.805  0.00  0.00    +0.000 C 
BRANCH  34  36
ATOM     35  C   UNL     1      -0.336   8.650  21.759  0.00  0.00    +0.000 C 
ATOM     36  C   UNL     1      -0.039  10.110  22.051  0.00  0.00    +0.000 C 
ENDBRANCH  34  36
ENDBRANCH  33  34
ENDBRANCH  32  33
ENDBRANCH  31  32
ENDBRANCH  30  31
ENDBRANCH  29  30
ENDBRANCH  28  29
ENDBRANCH   1  28
TORSDOF 17
ENDMDL
MODEL 4
REMARK VINA RESULT:      -7.4      2.706      7.114
REMARK  Name = 
REMARK  18 active torsions:
REMARK  status: ('A' for Active; 'I' for Inactive)
REMARK    1  A    between atoms: C_1  and  C_2
REMARK    2  A    between atoms: C_2  and  C_3
REMARK    3  A    between atoms: C_3  and  C_4
REMARK    4  A    between atoms: C_4  and  C_5
REMARK    5  A    between atoms: C_5  and  C_6
REMARK    6  A    between atoms: C_6  and  C_7
REMARK    7  A    between atoms: C_7  and  C_8
REMARK    8  A    between atoms: C_8  and  O_9
REMARK    9  A    between atoms: O_9  and  C_10
REMARK   10  A    between atoms: C_12  and  C_13
REMARK   11  A    between atoms: C_13  and  O_14
REMARK   12  A    between atoms: C_15  and  O_16
REMARK   13  A    between atoms: C_17  and  O_18
REMARK   14  A    between atoms: O_18  and  C_19
REMARK   15  A    between atoms: C_19  and  C_20
REMARK   16  A    between atoms: C_26  and  O_27
REMARK   17  A    between atoms: O_27  and  C_28
REMARK   18  A    between atoms: C_28  and  C_29
REMARK                            x       y       z     vdW  Elec       q    Type
REMARK                         _______ _______ _______ _____ _____    ______ ____
ROOT
ATOM      1  C   UNL     1       6.340   6.324  17.372  0.00  0.00    +0.000 C 
ATOM      2  O   UNL     1       6.644   6.100  16.015  0.00  0.00    +0.000 OA
ATOM      3  C   UNL     1       6.830   4.747  15.689  0.00  0.00    +0.000 C 
ATOM      4  C   UNL     1       5.483   4.048  15.807  0.00  0.00    +0.000 C 
ATOM      5  C   UNL     1       4.827   4.291  17.203  0.00  0.00    +0.000 C 
ATOM      6  C   UNL     1       4.926   5.777  17.692  0.00  0.00    +0.000 C 
ENDROOT
BRANCH   4   7
ATOM      7  O   UNL     1       5.707   2.654  15.547  0.00  0.00    +0.000 OA
ATOM      8  H   UNL     1       6.086   2.552  14.656  0.00  0.00    +0.000 HD
ENDBRANCH   4   7
BRANCH   3   9
ATOM      9  C   UNL     1       7.450   4.689  14.280  0.00  0.00    +0.000 C 
BRANCH   9  10
ATOM     10  O   UNL     1       6.580   4.151  13.285  0.00  0.00    +0.000 OA
ATOM     11  H   UNL     1       6.610   4.719  12.499  0.00  0.00    +0.000 HD
ENDBRANCH   9  10
ENDBRANCH   3   9
BRANCH   6  12
ATOM     12  O   UNL     1       4.639   5.820  19.124  0.00  0.00    +0.000 OA
BRANCH  12  13
ATOM     13  C   UNL     1       3.231   5.850  19.410  0.00  0.00    +0.000 C 
BRANCH  13  14
ATOM     14  C   UNL     1       2.578   7.187  19.164  0.00  0.00    +0.000 A 
ATOM     15  C   UNL     1       1.861   7.786  20.224  0.00  0.00    +0.000 A 
ATOM     16  C   UNL     1       1.217   9.008  20.053  0.00  0.00    +0.000 A 
ATOM     17  C   UNL     1       1.298   9.660  18.825  0.00  0.00    +0.000 A 
ATOM     18  C   UNL     1       2.028   9.091  17.779  0.00  0.00    +0.000 A 
ATOM     19  C   UNL     1       2.674   7.861  17.950  0.00  0.00    +0.000 A 
ENDBRANCH  13  14
ENDBRANCH  12  13
ENDBRANCH   6  12
BRANCH   5  20
ATOM     20  O   UNL     1       3.426   3.930  17.160  0.00  0.00    +0.000 OA
BRANCH  20  21
ATOM     21  C   UNL     1       3.148   2.612  17.633  0.00  0.00    +0.000 C 
BRANCH  21  22
ATOM     22  C   UNL     1       2.567   2.684  19.017  0.00  0.00    +0.000 A 
ATOM     23  C   UNL     1       3.384   2.468  20.139  0.00  0.00    +0.000 A 
ATOM     24  C   UNL     1       2.841   2.537  21.424  0.00  0.00    +0.000 A 
ATOM     25  C   UNL     1       1.495   2.827  21.592  0.00  0.00    +0.000 A 
ATOM     26  C   UNL     1       0.681   3.052  20.483  0.00  0.00    +0.000 A 
ATOM     27  C   UNL     1       1.216   2.983  19.200  0.00  0.00    +0.000 A 
ENDBRANCH  21  22
ENDBRANCH  20  21
ENDBRANCH   5  20
BRANCH   1  28
ATOM     28  O   UNL     1       6.405   7.736  17.579  0.00  0.00    +0.000 OA
BRANCH  28  29
ATOM     29  C   UNL     1       7.677   8.298  17.252  0.00  0.00    +0.000 C 
BRANCH  29  30
ATOM     30  C   UNL     1       8.439   8.785  18.486  0.00  0.00    +0.000 C 
BRANCH  30  31
ATOM     31  C   UNL     1       8.515  10.315  18.564  0.00  0.00    +0.000 C 
BRANCH  31  32
ATOM     32  C   UNL     1       9.917  10.751  18.954  0.00  0.00    +0.000 C 
BRANCH  32  33
ATOM     33  C   UNL     1      10.615  11.494  17.826  0.00  0.00    +0.000 C 
BRANCH  33  34
ATOM     34  C   UNL     1      11.945  12.034  18.338  0.00  0.00    +0.000 C 
BRANCH  34  36
ATOM     35  C   UNL     1      11.481  13.944  19.881  0.00  0.00    +0.000 C 
ATOM     36  C   UNL     1      11.844  12.472  19.791  0.00  0.00    +0.000 C 
ENDBRANCH  34  36
ENDBRANCH  33  34
ENDBRANCH  32  33
ENDBRANCH  31  32
ENDBRANCH  30  31
ENDBRANCH  29  30
ENDBRANCH  28  29
ENDBRANCH   1  28
TORSDOF 17
ENDMDL
MODEL 5
REMARK VINA RESULT:      -7.3      2.357      6.347
REMARK  Name = 
REMARK  18 active torsions:
REMARK  status: ('A' for Active; 'I' for Inactive)
REMARK    1  A    between atoms: C_1  and  C_2
REMARK    2  A    between atoms: C_2  and  C_3
REMARK    3  A    between atoms: C_3  and  C_4
REMARK    4  A    between atoms: C_4  and  C_5
REMARK    5  A    between atoms: C_5  and  C_6
REMARK    6  A    between atoms: C_6  and  C_7
REMARK    7  A    between atoms: C_7  and  C_8
REMARK    8  A    between atoms: C_8  and  O_9
REMARK    9  A    between atoms: O_9  and  C_10
REMARK   10  A    between atoms: C_12  and  C_13
REMARK   11  A    between atoms: C_13  and  O_14
REMARK   12  A    between atoms: C_15  and  O_16
REMARK   13  A    between atoms: C_17  and  O_18
REMARK   14  A    between atoms: O_18  and  C_19
REMARK   15  A    between atoms: C_19  and  C_20
REMARK   16  A    between atoms: C_26  and  O_27
REMARK   17  A    between atoms: O_27  and  C_28
REMARK   18  A    between atoms: C_28  and  C_29
REMARK                            x       y       z     vdW  Elec       q    Type
REMARK                         _______ _______ _______ _____ _____    ______ ____
ROOT
ATOM      1  C   UNL     1       7.285   4.499  17.633  0.00  0.00    +0.000 C 
ATOM      2  O   UNL     1       7.599   5.049  16.375  0.00  0.00    +0.000 OA
ATOM      3  C   UNL     1       6.854   4.507  15.315  0.00  0.00    +0.000 C 
ATOM      4  C   UNL     1       5.410   4.957  15.480  0.00  0.00    +0.000 C 
ATOM      5  C   UNL     1       4.857   4.614  16.899  0.00  0.00    +0.000 C 
ATOM      6  C   UNL     1       5.861   4.936  18.058  0.00  0.00    +0.000 C 
ENDROOT
BRANCH   4   7
ATOM      7  O   UNL     1       4.651   4.330  14.434  0.00  0.00    +0.000 OA
ATOM      8  H   UNL     1       3.701   4.461  14.606  0.00  0.00    +0.000 HD
ENDBRANCH   4   7
BRANCH   3   9
ATOM      9  C   UNL     1       7.512   4.967  14.000  0.00  0.00    +0.000 C 
BRANCH   9  10
ATOM     10  O   UNL     1       6.993   4.326  12.836  0.00  0.00    +0.000 OA
ATOM     11  H   UNL     1       7.347   4.767  12.049  0.00  0.00    +0.000 HD
ENDBRANCH   9  10
ENDBRANCH   3   9
BRANCH   6  12
ATOM     12  O   UNL     1       5.420   4.246  19.268  0.00  0.00    +0.000 OA
BRANCH  12  13
ATOM     13  C   UNL     1       4.666   3.055  18.987  0.00  0.00    +0.000 C 
BRANCH  13  14
ATOM     14  C   UNL     1       3.300   3.023  19.626  0.00  0.00    +0.000 A 
ATOM     15  C   UNL     1       2.172   2.880  18.787  0.00  0.00    +0.000 A 
ATOM     16  C   UNL     1       0.885   2.866  19.314  0.00  0.00    +0.000 A 
ATOM     17  C   UNL     1       0.706   2.974  20.691  0.00  0.00    +0.000 A 
ATOM     18  C   UNL     1       1.815   3.087  21.533  0.00  0.00    +0.000 A 
ATOM     19  C   UNL     1       3.110   3.103  21.003  0.00  0.00    +0.000 A 
ENDBRANCH  13  14
ENDBRANCH  12  13
ENDBRANCH   6  12
BRANCH   5  20
ATOM     20  O   UNL     1       3.639   5.354  17.147  0.00  0.00    +0.000 OA
BRANCH  20  21
ATOM     21  C   UNL     1       3.823   6.767  17.242  0.00  0.00    +0.000 C 
BRANCH  21  22
ATOM     22  C   UNL     1       2.906   7.327  18.292  0.00  0.00    +0.000 A 
ATOM     23  C   UNL     1       2.661   6.608  19.473  0.00  0.00    +0.000 A 
ATOM     24  C   UNL     1       1.810   7.132  20.449  0.00  0.00    +0.000 A 
ATOM     25  C   UNL     1       1.213   8.368  20.254  0.00  0.00    +0.000 A 
ATOM     26  C   UNL     1       1.460   9.093  19.089  0.00  0.00    +0.000 A 
ATOM     27  C   UNL     1       2.306   8.574  18.112  0.00  0.00    +0.000 A 
ENDBRANCH  21  22
ENDBRANCH  20  21
ENDBRANCH   5  20
BRANCH   1  28
ATOM     28  O   UNL     1       8.268   4.986  18.549  0.00  0.00    +0.000 OA
BRANCH  28  29
ATOM     29  C   UNL     1       7.928   6.246  19.128  0.00  0.00    +0.000 C 
BRANCH  29  30
ATOM     30  C   UNL     1       8.156   7.416  18.170  0.00  0.00    +0.000 C 
BRANCH  30  31
ATOM     31  C   UNL     1       8.657   8.675  18.887  0.00  0.00    +0.000 C 
BRANCH  31  32
ATOM     32  C   UNL     1       8.398   9.904  18.033  0.00  0.00    +0.000 C 
BRANCH  32  33
ATOM     33  C   UNL     1       9.585  10.853  18.029  0.00  0.00    +0.000 C 
BRANCH  33  34
ATOM     34  C   UNL     1       9.256  12.061  18.898  0.00  0.00    +0.000 C 
BRANCH  34  36
ATOM     35  C   UNL     1       7.782  13.669  17.678  0.00  0.00    +0.000 C 
ATOM     36  C   UNL     1       9.211  13.340  18.075  0.00  0.00    +0.000 C 
ENDBRANCH  34  36
ENDBRANCH  33  34
ENDBRANCH  32  33
ENDBRANCH  31  32
ENDBRANCH  30  31
ENDBRANCH  29  30
ENDBRANCH  28  29
ENDBRANCH   1  28
TORSDOF 17
ENDMDL
MODEL 6
REMARK VINA RESULT:      -7.3      0.781      1.480
REMARK  Name = 
REMARK  18 active torsions:
REMARK  status: ('A' for Active; 'I' for Inactive)
REMARK    1  A    between atoms: C_1  and  C_2
REMARK    2  A    between atoms: C_2  and  C_3
REMARK    3  A    between atoms: C_3  and  C_4
REMARK    4  A    between atoms: C_4  and  C_5
REMARK    5  A    between atoms: C_5  and  C_6
REMARK    6  A    between atoms: C_6  and  C_7
REMARK    7  A    between atoms: C_7  and  C_8
REMARK    8  A    between atoms: C_8  and  O_9
REMARK    9  A    between atoms: O_9  and  C_10
REMARK   10  A    between atoms: C_12  and  C_13
REMARK   11  A    between atoms: C_13  and  O_14
REMARK   12  A    between atoms: C_15  and  O_16
REMARK   13  A    between atoms: C_17  and  O_18
REMARK   14  A    between atoms: O_18  and  C_19
REMARK   15  A    between atoms: C_19  and  C_20
REMARK   16  A    between atoms: C_26  and  O_27
REMARK   17  A    between atoms: O_27  and  C_28
REMARK   18  A    between atoms: C_28  and  C_29
REMARK                            x       y       z     vdW  Elec       q    Type
REMARK                         _______ _______ _______ _____ _____    ______ ____
ROOT
ATOM      1  C   UNL     1       4.504   5.887  17.859  0.00  0.00    +0.000 C 
ATOM      2  O   UNL     1       5.663   6.679  17.751  0.00  0.00    +0.000 OA
ATOM      3  C   UNL     1       6.854   5.986  18.026  0.00  0.00    +0.000 C 
ATOM      4  C   UNL     1       7.079   4.981  16.906  0.00  0.00    +0.000 C 
ATOM      5  C   UNL     1       5.834   4.064  16.694  0.00  0.00    +0.000 C 
ATOM      6  C   UNL     1       4.472   4.840  16.716  0.00  0.00    +0.000 C 
ENDROOT
BRANCH   4   7
ATOM      7  O   UNL     1       8.256   4.230  17.245  0.00  0.00    +0.000 OA
ATOM      8  H   UNL     1       8.807   4.124  16.450  0.00  0.00    +0.000 HD
ENDBRANCH   4   7
BRANCH   3   9
ATOM      9  C   UNL     1       7.976   7.031  18.174  0.00  0.00    +0.000 C 
BRANCH   9  10
ATOM     10  O   UNL     1       7.987   8.020  17.145  0.00  0.00    +0.000 OA
ATOM     11  H   UNL     1       8.568   8.747  17.414  0.00  0.00    +0.000 HD
ENDBRANCH   9  10
ENDBRANCH   3   9
BRANCH   6  12
ATOM     12  O   UNL     1       3.387   3.879  16.890  0.00  0.00    +0.000 OA
BRANCH  12  13
ATOM     13  C   UNL     1       3.697   2.853  17.848  0.00  0.00    +0.000 C 
BRANCH  13  14
ATOM     14  C   UNL     1       2.891   2.931  19.121  0.00  0.00    +0.000 A 
ATOM     15  C   UNL     1       1.563   3.407  19.044  0.00  0.00    +0.000 A 
ATOM     16  C   UNL     1       0.776   3.522  20.185  0.00  0.00    +0.000 A 
ATOM     17  C   UNL     1       1.298   3.145  21.420  0.00  0.00    +0.000 A 
ATOM     18  C   UNL     1       2.600   2.646  21.504  0.00  0.00    +0.000 A 
ATOM     19  C   UNL     1       3.393   2.531  20.356  0.00  0.00    +0.000 A 
ENDBRANCH  13  14
ENDBRANCH  12  13
ENDBRANCH   6  12
BRANCH   5  20
ATOM     20  O   UNL     1       5.935   3.381  15.422  0.00  0.00    +0.000 OA
BRANCH  20  21
ATOM     21  C   UNL     1       6.188   4.244  14.314  0.00  0.00    +0.000 C 
BRANCH  21  22
ATOM     22  C   UNL     1       5.729   3.586  13.044  0.00  0.00    +0.000 A 
ATOM     23  C   UNL     1       6.531   2.618  12.418  0.00  0.00    +0.000 A 
ATOM     24  C   UNL     1       6.101   2.006  11.239  0.00  0.00    +0.000 A 
ATOM     25  C   UNL     1       4.874   2.349  10.689  0.00  0.00    +0.000 A 
ATOM     26  C   UNL     1       4.067   3.302  11.311  0.00  0.00    +0.000 A 
ATOM     27  C   UNL     1       4.492   3.917  12.485  0.00  0.00    +0.000 A 
ENDBRANCH  21  22
ENDBRANCH  20  21
ENDBRANCH   5  20
BRANCH   1  28
ATOM     28  O   UNL     1       3.390   6.777  17.772  0.00  0.00    +0.000 OA
BRANCH  28  29
ATOM     29  C   UNL     1       2.618   6.838  18.972  0.00  0.00    +0.000 C 
BRANCH  29  30
ATOM     30  C   UNL     1       1.670   8.038  19.002  0.00  0.00    +0.000 C 
BRANCH  30  31
ATOM     31  C   UNL     1       1.748   8.881  17.723  0.00  0.00    +0.000 C 
BRANCH  31  32
ATOM     32  C   UNL     1       1.961  10.344  18.071  0.00  0.00    +0.000 C 
BRANCH  32  33
ATOM     33  C   UNL     1       0.673  11.015  18.519  0.00  0.00    +0.000 C 
BRANCH  33  34
ATOM     34  C   UNL     1       0.797  11.392  19.991  0.00  0.00    +0.000 C 
BRANCH  34  36
ATOM     35  C   UNL     1       0.373  10.074  22.071  0.00  0.00    +0.000 C 
ATOM     36  C   UNL     1      -0.257  10.690  20.834  0.00  0.00    +0.000 C 
ENDBRANCH  34  36
ENDBRANCH  33  34
ENDBRANCH  32  33
ENDBRANCH  31  32
ENDBRANCH  30  31
ENDBRANCH  29  30
ENDBRANCH  28  29
ENDBRANCH   1  28
TORSDOF 17
ENDMDL
MODEL 7
REMARK VINA RESULT:      -7.3      1.214      1.627
REMARK  Name = 
REMARK  18 active torsions:
REMARK  status: ('A' for Active; 'I' for Inactive)
REMARK    1  A    between atoms: C_1  and  C_2
REMARK    2  A    between atoms: C_2  and  C_3
REMARK    3  A    between atoms: C_3  and  C_4
REMARK    4  A    between atoms: C_4  and  C_5
REMARK    5  A    between atoms: C_5  and  C_6
REMARK    6  A    between atoms: C_6  and  C_7
REMARK    7  A    between atoms: C_7  and  C_8
REMARK    8  A    between atoms: C_8  and  O_9
REMARK    9  A    between atoms: O_9  and  C_10
REMARK   10  A    between atoms: C_12  and  C_13
REMARK   11  A    between atoms: C_13  and  O_14
REMARK   12  A    between atoms: C_15  and  O_16
REMARK   13  A    between atoms: C_17  and  O_18
REMARK   14  A    between atoms: O_18  and  C_19
REMARK   15  A    between atoms: C_19  and  C_20
REMARK   16  A    between atoms: C_26  and  O_27
REMARK   17  A    between atoms: O_27  and  C_28
REMARK   18  A    between atoms: C_28  and  C_29
REMARK                            x       y       z     vdW  Elec       q    Type
REMARK                         _______ _______ _______ _____ _____    ______ ____
ROOT
ATOM      1  C   UNL     1       4.389   5.658  17.890  0.00  0.00    +0.000 C 
ATOM      2  O   UNL     1       5.484   6.538  17.788  0.00  0.00    +0.000 OA
ATOM      3  C   UNL     1       6.728   5.928  18.019  0.00  0.00    +0.000 C 
ATOM      4  C   UNL     1       7.005   4.980  16.862  0.00  0.00    +0.000 C 
ATOM      5  C   UNL     1       5.827   3.979  16.641  0.00  0.00    +0.000 C 
ATOM      6  C   UNL     1       4.413   4.650  16.714  0.00  0.00    +0.000 C 
ENDROOT
BRANCH   4   7
ATOM      7  O   UNL     1       8.241   4.309  17.155  0.00  0.00    +0.000 OA
ATOM      8  H   UNL     1       8.985   4.888  16.910  0.00  0.00    +0.000 HD
ENDBRANCH   4   7
BRANCH   3   9
ATOM      9  C   UNL     1       7.773   7.049  18.182  0.00  0.00    +0.000 C 
BRANCH   9  10
ATOM     10  O   UNL     1       7.603   8.136  17.274  0.00  0.00    +0.000 OA
ATOM     11  H   UNL     1       6.927   8.737  17.624  0.00  0.00    +0.000 HD
ENDBRANCH   9  10
ENDBRANCH   3   9
BRANCH   6  12
ATOM     12  O   UNL     1       3.405   3.605  16.875  0.00  0.00    +0.000 OA
BRANCH  12  13
ATOM     13  C   UNL     1       3.749   2.650  17.893  0.00  0.00    +0.000 C 
BRANCH  13  14
ATOM     14  C   UNL     1       2.903   2.743  19.138  0.00  0.00    +0.000 A 
ATOM     15  C   UNL     1       1.526   3.025  18.993  0.00  0.00    +0.000 A 
ATOM     16  C   UNL     1       0.698   3.145  20.104  0.00  0.00    +0.000 A 
ATOM     17  C   UNL     1       1.229   2.965  21.379  0.00  0.00    +0.000 A 
ATOM     18  C   UNL     1       2.584   2.657  21.533  0.00  0.00    +0.000 A 
ATOM     19  C   UNL     1       3.417   2.538  20.416  0.00  0.00    +0.000 A 
ENDBRANCH  13  14
ENDBRANCH  12  13
ENDBRANCH   6  12
BRANCH   5  20
ATOM     20  O   UNL     1       5.953   3.347  15.345  0.00  0.00    +0.000 OA
BRANCH  20  21
ATOM     21  C   UNL     1       5.961   4.260  14.248  0.00  0.00    +0.000 C 
BRANCH  21  22
ATOM     22  C   UNL     1       5.598   3.535  12.984  0.00  0.00    +0.000 A 
ATOM     23  C   UNL     1       4.367   3.784  12.354  0.00  0.00    +0.000 A 
ATOM     24  C   UNL     1       4.033   3.109  11.178  0.00  0.00    +0.000 A 
ATOM     25  C   UNL     1       4.922   2.198  10.626  0.00  0.00    +0.000 A 
ATOM     26  C   UNL     1       6.150   1.953  11.240  0.00  0.00    +0.000 A 
ATOM     27  C   UNL     1       6.487   2.621  12.414  0.00  0.00    +0.000 A 
ENDBRANCH  21  22
ENDBRANCH  20  21
ENDBRANCH   5  20
BRANCH   1  28
ATOM     28  O   UNL     1       3.211   6.465  17.853  0.00  0.00    +0.000 OA
BRANCH  28  29
ATOM     29  C   UNL     1       3.460   7.814  17.453  0.00  0.00    +0.000 C 
BRANCH  29  30
ATOM     30  C   UNL     1       2.336   8.767  17.864  0.00  0.00    +0.000 C 
BRANCH  30  31
ATOM     31  C   UNL     1       1.728   8.406  19.225  0.00  0.00    +0.000 C 
BRANCH  31  32
ATOM     32  C   UNL     1       0.969   9.594  19.791  0.00  0.00    +0.000 C 
BRANCH  32  33
ATOM     33  C   UNL     1      -0.343   9.830  19.060  0.00  0.00    +0.000 C 
BRANCH  33  34
ATOM     34  C   UNL     1      -0.473  11.316  18.746  0.00  0.00    +0.000 C 
BRANCH  34  36
ATOM     35  C   UNL     1      -2.140  10.370  17.142  0.00  0.00    +0.000 C 
ATOM     36  C   UNL     1      -1.724  11.602  17.927  0.00  0.00    +0.000 C 
ENDBRANCH  34  36
ENDBRANCH  33  34
ENDBRANCH  32  33
ENDBRANCH  31  32
ENDBRANCH  30  31
ENDBRANCH  29  30
ENDBRANCH  28  29
ENDBRANCH   1  28
TORSDOF 17
ENDMDL
MODEL 8
REMARK VINA RESULT:      -7.3      0.760      1.038
REMARK  Name = 
REMARK  18 active torsions:
REMARK  status: ('A' for Active; 'I' for Inactive)
REMARK    1  A    between atoms: C_1  and  C_2
REMARK    2  A    between atoms: C_2  and  C_3
REMARK    3  A    between atoms: C_3  and  C_4
REMARK    4  A    between atoms: C_4  and  C_5
REMARK    5  A    between atoms: C_5  and  C_6
REMARK    6  A    between atoms: C_6  and  C_7
REMARK    7  A    between atoms: C_7  and  C_8
REMARK    8  A    between atoms: C_8  and  O_9
REMARK    9  A    between atoms: O_9  and  C_10
REMARK   10  A    between atoms: C_12  and  C_13
REMARK   11  A    between atoms: C_13  and  O_14
REMARK   12  A    between atoms: C_15  and  O_16
REMARK   13  A    between atoms: C_17  and  O_18
REMARK   14  A    between atoms: O_18  and  C_19
REMARK   15  A    between atoms: C_19  and  C_20
REMARK   16  A    between atoms: C_26  and  O_27
REMARK   17  A    between atoms: O_27  and  C_28
REMARK   18  A    between atoms: C_28  and  C_29
REMARK                            x       y       z     vdW  Elec       q    Type
REMARK                         _______ _______ _______ _____ _____    ______ ____
ROOT
ATOM      1  C   UNL     1       4.504   6.000  17.603  0.00  0.00    +0.000 C 
ATOM      2  O   UNL     1       5.681   6.768  17.514  0.00  0.00    +0.000 OA
ATOM      3  C   UNL     1       6.842   6.077  17.898  0.00  0.00    +0.000 C 
ATOM      4  C   UNL     1       7.113   5.003  16.855  0.00  0.00    +0.000 C 
ATOM      5  C   UNL     1       5.866   4.092  16.626  0.00  0.00    +0.000 C 
ATOM      6  C   UNL     1       4.519   4.887  16.525  0.00  0.00    +0.000 C 
ENDROOT
BRANCH   4   7
ATOM      7  O   UNL     1       8.256   4.258  17.304  0.00  0.00    +0.000 OA
ATOM      8  H   UNL     1       8.849   4.096  16.549  0.00  0.00    +0.000 HD
ENDBRANCH   4   7
BRANCH   3   9
ATOM      9  C   UNL     1       7.972   7.113  18.047  0.00  0.00    +0.000 C 
BRANCH   9  10
ATOM     10  O   UNL     1       8.640   7.066  19.306  0.00  0.00    +0.000 OA
ATOM     11  H   UNL     1       9.365   7.710  19.304  0.00  0.00    +0.000 HD
ENDBRANCH   9  10
ENDBRANCH   3   9
BRANCH   6  12
ATOM     12  O   UNL     1       3.409   3.953  16.694  0.00  0.00    +0.000 OA
BRANCH  12  13
ATOM     13  C   UNL     1       3.700   2.903  17.631  0.00  0.00    +0.000 C 
BRANCH  13  14
ATOM     14  C   UNL     1       2.904   2.977  18.910  0.00  0.00    +0.000 A 
ATOM     15  C   UNL     1       1.555   3.388  18.836  0.00  0.00    +0.000 A 
ATOM     16  C   UNL     1       0.775   3.498  19.983  0.00  0.00    +0.000 A 
ATOM     17  C   UNL     1       1.327   3.179  21.221  0.00  0.00    +0.000 A 
ATOM     18  C   UNL     1       2.652   2.743  21.303  0.00  0.00    +0.000 A 
ATOM     19  C   UNL     1       3.437   2.634  20.150  0.00  0.00    +0.000 A 
ENDBRANCH  13  14
ENDBRANCH  12  13
ENDBRANCH   6  12
BRANCH   5  20
ATOM     20  O   UNL     1       6.026   3.332  15.405  0.00  0.00    +0.000 OA
BRANCH  20  21
ATOM     21  C   UNL     1       6.368   4.122  14.266  0.00  0.00    +0.000 C 
BRANCH  21  22
ATOM     22  C   UNL     1       5.790   3.499  13.027  0.00  0.00    +0.000 A 
ATOM     23  C   UNL     1       4.551   3.933  12.529  0.00  0.00    +0.000 A 
ATOM     24  C   UNL     1       4.018   3.353  11.376  0.00  0.00    +0.000 A 
ATOM     25  C   UNL     1       4.717   2.352  10.717  0.00  0.00    +0.000 A 
ATOM     26  C   UNL     1       5.952   1.923  11.201  0.00  0.00    +0.000 A 
ATOM     27  C   UNL     1       6.488   2.496  12.351  0.00  0.00    +0.000 A 
ENDBRANCH  21  22
ENDBRANCH  20  21
ENDBRANCH   5  20
BRANCH   1  28
ATOM     28  O   UNL     1       3.412   6.899  17.400  0.00  0.00    +0.000 OA
BRANCH  28  29
ATOM     29  C   UNL     1       2.715   7.225  18.603  0.00  0.00    +0.000 C 
BRANCH  29  30
ATOM     30  C   UNL     1       1.462   8.064  18.348  0.00  0.00    +0.000 C 
BRANCH  30  31
ATOM     31  C   UNL     1       1.787   9.537  18.071  0.00  0.00    +0.000 C 
BRANCH  31  32
ATOM     32  C   UNL     1       0.767  10.436  18.751  0.00  0.00    +0.000 C 
BRANCH  32  33
ATOM     33  C   UNL     1       0.440   9.961  20.157  0.00  0.00    +0.000 C 
BRANCH  33  34
ATOM     34  C   UNL     1      -0.407  11.021  20.853  0.00  0.00    +0.000 C 
BRANCH  34  36
ATOM     35  C   UNL     1      -0.484   9.341  22.701  0.00  0.00    +0.000 C 
ATOM     36  C   UNL     1      -0.418  10.819  22.361  0.00  0.00    +0.000 C 
ENDBRANCH  34  36
ENDBRANCH  33  34
ENDBRANCH  32  33
ENDBRANCH  31  32
ENDBRANCH  30  31
ENDBRANCH  29  30
ENDBRANCH  28  29
ENDBRANCH   1  28
TORSDOF 17
ENDMDL
MODEL 9
REMARK VINA RESULT:      -7.2      2.626      7.101
REMARK  Name = 
REMARK  18 active torsions:
REMARK  status: ('A' for Active; 'I' for Inactive)
REMARK    1  A    between atoms: C_1  and  C_2
REMARK    2  A    between atoms: C_2  and  C_3
REMARK    3  A    between atoms: C_3  and  C_4
REMARK    4  A    between atoms: C_4  and  C_5
REMARK    5  A    between atoms: C_5  and  C_6
REMARK    6  A    between atoms: C_6  and  C_7
REMARK    7  A    between atoms: C_7  and  C_8
REMARK    8  A    between atoms: C_8  and  O_9
REMARK    9  A    between atoms: O_9  and  C_10
REMARK   10  A    between atoms: C_12  and  C_13
REMARK   11  A    between atoms: C_13  and  O_14
REMARK   12  A    between atoms: C_15  and  O_16
REMARK   13  A    between atoms: C_17  and  O_18
REMARK   14  A    between atoms: O_18  and  C_19
REMARK   15  A    between atoms: C_19  and  C_20
REMARK   16  A    between atoms: C_26  and  O_27
REMARK   17  A    between atoms: O_27  and  C_28
REMARK   18  A    between atoms: C_28  and  C_29
REMARK                            x       y       z     vdW  Elec       q    Type
REMARK                         _______ _______ _______ _____ _____    ______ ____
ROOT
ATOM      1  C   UNL     1       5.627   6.806  16.833  0.00  0.00    +0.000 C 
ATOM      2  O   UNL     1       4.801   7.700  17.542  0.00  0.00    +0.000 OA
ATOM      3  C   UNL     1       3.510   7.205  17.792  0.00  0.00    +0.000 C 
ATOM      4  C   UNL     1       3.632   6.064  18.791  0.00  0.00    +0.000 C 
ATOM      5  C   UNL     1       4.655   4.985  18.313  0.00  0.00    +0.000 C 
ATOM      6  C   UNL     1       5.977   5.590  17.729  0.00  0.00    +0.000 C 
ENDROOT
BRANCH   4   7
ATOM      7  O   UNL     1       2.315   5.522  18.974  0.00  0.00    +0.000 OA
ATOM      8  H   UNL     1       2.333   4.878  19.704  0.00  0.00    +0.000 HD
ENDBRANCH   4   7
BRANCH   3   9
ATOM      9  C   UNL     1       2.648   8.384  18.281  0.00  0.00    +0.000 C 
BRANCH   9  10
ATOM     10  O   UNL     1       2.226   9.265  17.242  0.00  0.00    +0.000 OA
ATOM     11  H   UNL     1       1.286   9.470  17.363  0.00  0.00    +0.000 HD
ENDBRANCH   9  10
ENDBRANCH   3   9
BRANCH   6  12
ATOM     12  O   UNL     1       6.679   4.550  16.981  0.00  0.00    +0.000 OA
BRANCH  12  13
ATOM     13  C   UNL     1       5.860   3.941  15.969  0.00  0.00    +0.000 C 
BRANCH  13  14
ATOM     14  C   UNL     1       6.371   4.132  14.562  0.00  0.00    +0.000 A 
ATOM     15  C   UNL     1       5.756   3.401  13.522  0.00  0.00    +0.000 A 
ATOM     16  C   UNL     1       6.196   3.516  12.207  0.00  0.00    +0.000 A 
ATOM     17  C   UNL     1       7.246   4.381  11.909  0.00  0.00    +0.000 A 
ATOM     18  C   UNL     1       7.843   5.131  12.926  0.00  0.00    +0.000 A 
ATOM     19  C   UNL     1       7.402   5.014  14.248  0.00  0.00    +0.000 A 
ENDBRANCH  13  14
ENDBRANCH  12  13
ENDBRANCH   6  12
BRANCH   5  20
ATOM     20  O   UNL     1       5.012   4.120  19.417  0.00  0.00    +0.000 OA
BRANCH  20  21
ATOM     21  C   UNL     1       4.580   2.768  19.263  0.00  0.00    +0.000 C 
BRANCH  21  22
ATOM     22  C   UNL     1       3.104   2.676  19.523  0.00  0.00    +0.000 A 
ATOM     23  C   UNL     1       2.222   2.335  18.484  0.00  0.00    +0.000 A 
ATOM     24  C   UNL     1       0.850   2.248  18.730  0.00  0.00    +0.000 A 
ATOM     25  C   UNL     1       0.358   2.490  20.004  0.00  0.00    +0.000 A 
ATOM     26  C   UNL     1       1.228   2.819  21.043  0.00  0.00    +0.000 A 
ATOM     27  C   UNL     1       2.597   2.909  20.803  0.00  0.00    +0.000 A 
ENDBRANCH  21  22
ENDBRANCH  20  21
ENDBRANCH   5  20
BRANCH   1  28
ATOM     28  O   UNL     1       6.802   7.534  16.471  0.00  0.00    +0.000 OA
BRANCH  28  29
ATOM     29  C   UNL     1       7.666   7.801  17.577  0.00  0.00    +0.000 C 
BRANCH  29  30
ATOM     30  C   UNL     1       7.982   9.290  17.730  0.00  0.00    +0.000 C 
BRANCH  30  31
ATOM     31  C   UNL     1       8.976   9.566  18.864  0.00  0.00    +0.000 C 
BRANCH  31  32
ATOM     32  C   UNL     1       9.749  10.844  18.585  0.00  0.00    +0.000 C 
BRANCH  32  33
ATOM     33  C   UNL     1       9.358  11.963  19.535  0.00  0.00    +0.000 C 
BRANCH  33  34
ATOM     34  C   UNL     1       9.589  11.499  20.969  0.00  0.00    +0.000 C 
BRANCH  34  36
ATOM     35  C   UNL     1       8.145  11.713  22.997  0.00  0.00    +0.000 C 
ATOM     36  C   UNL     1       8.973  12.465  21.970  0.00  0.00    +0.000 C 
ENDBRANCH  34  36
ENDBRANCH  33  34
ENDBRANCH  32  33
ENDBRANCH  31  32
ENDBRANCH  30  31
ENDBRANCH  29  30
ENDBRANCH  28  29
ENDBRANCH   1  28
TORSDOF 17
ENDMDL
