MODEL 1
REMARK VINA RESULT:      -6.8      0.000      0.000
REMARK  Name = 
REMARK  11 active torsions:
REMARK  status: ('A' for Active; 'I' for Inactive)
REMARK    1  A    between atoms: C_1  and  C_2
REMARK    2  A    between atoms: C_2  and  C_3
REMARK    3  A    between atoms: C_3  and  C_4
REMARK    4  A    between atoms: C_10  and  C_11
REMARK    5  A    between atoms: C_11  and  O_13
REMARK    6  A    between atoms: O_13  and  C_14
REMARK    7  A    between atoms: C_15  and  C_16
REMARK    8  A    between atoms: C_18  and  C_19
REMARK    9  A    between atoms: C_21  and  O_22
REMARK   10  A    between atoms: C_21  and  O_23
REMARK   11  A    between atoms: O_23  and  C_24
REMARK                            x       y       z     vdW  Elec       q    Type
REMARK                         _______ _______ _______ _____ _____    ______ ____
ROOT
ATOM      1  C   UNL     1       4.324   5.365  17.725  0.00  0.00    +0.000 C 
ATOM      2  C   UNL     1       3.903   4.078  18.476  0.00  0.00    +0.000 C 
ATOM      3  C   UNL     1       4.692   3.503  19.407  0.00  0.00    +0.000 C 
ATOM      4  C   UNL     1       4.457   2.185  20.115  0.00  0.00    +0.000 C 
ATOM      5  N   UNL     1       5.851   4.077  19.853  0.00  0.00    +0.000 NA
ATOM      6  C   UNL     1       6.381   5.099  19.257  0.00  0.00    +0.000 C 
ATOM      7  C   UNL     1       7.650   5.583  19.937  0.00  0.00    +0.000 C 
ATOM      8  C   UNL     1       5.804   5.797  18.041  0.00  0.00    +0.000 C 
ATOM      9  C   UNL     1       6.493   6.771  17.393  0.00  0.00    +0.000 C 
ENDROOT
BRANCH   1  10
ATOM     10  C   UNL     1       3.443   6.571  18.212  0.00  0.00    +0.000 A 
ATOM     11  C   UNL     1       2.941   6.684  19.520  0.00  0.00    +0.000 A 
ATOM     12  C   UNL     1       2.057   7.714  19.871  0.00  0.00    +0.000 A 
ATOM     13  C   UNL     1       1.670   8.665  18.929  0.00  0.00    +0.000 A 
ATOM     14  C   UNL     1       2.179   8.599  17.639  0.00  0.00    +0.000 A 
ATOM     15  C   UNL     1       3.061   7.574  17.289  0.00  0.00    +0.000 A 
ENDBRANCH   1  10
BRANCH   1  17
ATOM     16  C   UNL     1       5.213   4.142  15.548  0.00  0.00    +0.000 C 
ATOM     17  C   UNL     1       4.156   5.048  16.176  0.00  0.00    +0.000 C 
ENDBRANCH   1  17
BRANCH   2  18
ATOM     18  C   UNL     1       2.669   3.362  18.028  0.00  0.00    +0.000 C 
ATOM     19  O   UNL     1       2.664   2.387  17.292  0.00  0.00    +0.000 OA
BRANCH  18  20
ATOM     20  O   UNL     1       1.553   3.996  18.467  0.00  0.00    +0.000 OA
ATOM     21  C   UNL     1       0.986   3.468  19.671  0.00  0.00    +0.000 C 
ENDBRANCH  18  20
ENDBRANCH   2  18
BRANCH   9  22
ATOM     22  O   UNL     1       5.993   7.435  16.293  0.00  0.00    +0.000 OA
ATOM     23  H   UNL     1       6.381   7.052  15.493  0.00  0.00    +0.000 HD
ENDBRANCH   9  22
BRANCH   9  24
ATOM     24  O   UNL     1       7.740   7.187  17.815  0.00  0.00    +0.000 OA
ATOM     25  C   UNL     1       7.905   8.605  17.727  0.00  0.00    +0.000 C 
ENDBRANCH   9  24
TORSDOF 6
ENDMDL
MODEL 2
REMARK VINA RESULT:      -5.8      5.629      8.417
REMARK  Name = 
REMARK  11 active torsions:
REMARK  status: ('A' for Active; 'I' for Inactive)
REMARK    1  A    between atoms: C_1  and  C_2
REMARK    2  A    between atoms: C_2  and  C_3
REMARK    3  A    between atoms: C_3  and  C_4
REMARK    4  A    between atoms: C_10  and  C_11
REMARK    5  A    between atoms: C_11  and  O_13
REMARK    6  A    between atoms: O_13  and  C_14
REMARK    7  A    between atoms: C_15  and  C_16
REMARK    8  A    between atoms: C_18  and  C_19
REMARK    9  A    between atoms: C_21  and  O_22
REMARK   10  A    between atoms: C_21  and  O_23
REMARK   11  A    between atoms: O_23  and  C_24
REMARK                            x       y       z     vdW  Elec       q    Type
REMARK                         _______ _______ _______ _____ _____    ______ ____
ROOT
ATOM      1  C   UNL     1       0.032  11.676  19.564  0.00  0.00    +0.000 C 
ATOM      2  C   UNL     1      -0.873  12.108  20.744  0.00  0.00    +0.000 C 
ATOM      3  C   UNL     1      -0.981  11.371  21.868  0.00  0.00    +0.000 C 
ATOM      4  C   UNL     1      -1.920  11.615  23.032  0.00  0.00    +0.000 C 
ATOM      5  N   UNL     1      -0.210  10.268  22.109  0.00  0.00    +0.000 NA
ATOM      6  C   UNL     1       0.520   9.730  21.183  0.00  0.00    +0.000 C 
ATOM      7  C   UNL     1       1.310   8.531  21.679  0.00  0.00    +0.000 C 
ATOM      8  C   UNL     1       0.641  10.239  19.759  0.00  0.00    +0.000 C 
ATOM      9  C   UNL     1       1.316   9.536  18.813  0.00  0.00    +0.000 C 
ENDROOT
BRANCH   1  10
ATOM     10  C   UNL     1       1.277  12.630  19.478  0.00  0.00    +0.000 A 
ATOM     11  C   UNL     1       2.043  13.006  20.595  0.00  0.00    +0.000 A 
ATOM     12  C   UNL     1       3.067  13.956  20.486  0.00  0.00    +0.000 A 
ATOM     13  C   UNL     1       3.362  14.539  19.255  0.00  0.00    +0.000 A 
ATOM     14  C   UNL     1       2.646  14.160  18.127  0.00  0.00    +0.000 A 
ATOM     15  C   UNL     1       1.627  13.211  18.235  0.00  0.00    +0.000 A 
ENDBRANCH   1  10
BRANCH   1  17
ATOM     16  C   UNL     1      -1.899  10.588  18.109  0.00  0.00    +0.000 C 
ATOM     17  C   UNL     1      -0.885  11.719  18.266  0.00  0.00    +0.000 C 
ENDBRANCH   1  17
BRANCH   2  18
ATOM     18  C   UNL     1      -1.780  13.282  20.555  0.00  0.00    +0.000 C 
ATOM     19  O   UNL     1      -1.427  14.448  20.641  0.00  0.00    +0.000 OA
BRANCH  18  20
ATOM     20  O   UNL     1      -3.063  12.881  20.375  0.00  0.00    +0.000 OA
ATOM     21  C   UNL     1      -4.060  13.805  20.826  0.00  0.00    +0.000 C 
ENDBRANCH  18  20
ENDBRANCH   2  18
BRANCH   9  22
ATOM     22  O   UNL     1       1.456   9.976  17.514  0.00  0.00    +0.000 OA
ATOM     23  H   UNL     1       0.673   9.713  17.009  0.00  0.00    +0.000 HD
ENDBRANCH   9  22
BRANCH   9  24
ATOM     24  O   UNL     1       1.939   8.338  19.100  0.00  0.00    +0.000 OA
ATOM     25  C   UNL     1       2.673   7.821  17.988  0.00  0.00    +0.000 C 
ENDBRANCH   9  24
TORSDOF 6
ENDMDL
MODEL 3
REMARK VINA RESULT:      -5.8      5.751      8.623
REMARK  Name = 
REMARK  11 active torsions:
REMARK  status: ('A' for Active; 'I' for Inactive)
REMARK    1  A    between atoms: C_1  and  C_2
REMARK    2  A    between atoms: C_2  and  C_3
REMARK    3  A    between atoms: C_3  and  C_4
REMARK    4  A    between atoms: C_10  and  C_11
REMARK    5  A    between atoms: C_11  and  O_13
REMARK    6  A    between atoms: O_13  and  C_14
REMARK    7  A    between atoms: C_15  and  C_16
REMARK    8  A    between atoms: C_18  and  C_19
REMARK    9  A    between atoms: C_21  and  O_22
REMARK   10  A    between atoms: C_21  and  O_23
REMARK   11  A    between atoms: O_23  and  C_24
REMARK                            x       y       z     vdW  Elec       q    Type
REMARK                         _______ _______ _______ _____ _____    ______ ____
ROOT
ATOM      1  C   UNL     1      -0.188  11.758  19.624  0.00  0.00    +0.000 C 
ATOM      2  C   UNL     1      -1.104  12.212  20.787  0.00  0.00    +0.000 C 
ATOM      3  C   UNL     1      -1.186  11.523  21.943  0.00  0.00    +0.000 C 
ATOM      4  C   UNL     1      -2.129  11.786  23.098  0.00  0.00    +0.000 C 
ATOM      5  N   UNL     1      -0.377  10.457  22.230  0.00  0.00    +0.000 NA
ATOM      6  C   UNL     1       0.368   9.903  21.325  0.00  0.00    +0.000 C 
ATOM      7  C   UNL     1       1.198   8.753  21.871  0.00  0.00    +0.000 C 
ATOM      8  C   UNL     1       0.468  10.352  19.880  0.00  0.00    +0.000 C 
ATOM      9  C   UNL     1       1.164   9.630  18.963  0.00  0.00    +0.000 C 
ENDROOT
BRANCH   1  10
ATOM     10  C   UNL     1       1.025  12.748  19.491  0.00  0.00    +0.000 A 
ATOM     11  C   UNL     1       1.420  13.329  18.275  0.00  0.00    +0.000 A 
ATOM     12  C   UNL     1       2.583  14.106  18.186  0.00  0.00    +0.000 A 
ATOM     13  C   UNL     1       3.367  14.336  19.315  0.00  0.00    +0.000 A 
ATOM     14  C   UNL     1       2.981  13.804  20.538  0.00  0.00    +0.000 A 
ATOM     15  C   UNL     1       1.821  13.031  20.627  0.00  0.00    +0.000 A 
ENDBRANCH   1  10
BRANCH   1  17
ATOM     16  C   UNL     1      -2.078  10.538  18.221  0.00  0.00    +0.000 C 
ATOM     17  C   UNL     1      -1.110  11.714  18.328  0.00  0.00    +0.000 C 
ENDBRANCH   1  17
BRANCH   2  18
ATOM     18  C   UNL     1      -2.050  13.346  20.550  0.00  0.00    +0.000 C 
ATOM     19  O   UNL     1      -1.736  14.526  20.583  0.00  0.00    +0.000 OA
BRANCH  18  20
ATOM     20  O   UNL     1      -3.319  12.896  20.391  0.00  0.00    +0.000 OA
ATOM     21  C   UNL     1      -4.344  13.794  20.831  0.00  0.00    +0.000 C 
ENDBRANCH  18  20
ENDBRANCH   2  18
BRANCH   9  22
ATOM     22  O   UNL     1       1.287  10.017  17.645  0.00  0.00    +0.000 OA
ATOM     23  H   UNL     1       1.402  10.977  17.612  0.00  0.00    +0.000 HD
ENDBRANCH   9  22
BRANCH   9  24
ATOM     24  O   UNL     1       1.827   8.467  19.301  0.00  0.00    +0.000 OA
ATOM     25  C   UNL     1       2.493   7.872  18.185  0.00  0.00    +0.000 C 
ENDBRANCH   9  24
TORSDOF 6
ENDMDL
MODEL 4
REMARK VINA RESULT:      -5.5      5.886      8.780
REMARK  Name = 
REMARK  11 active torsions:
REMARK  status: ('A' for Active; 'I' for Inactive)
REMARK    1  A    between atoms: C_1  and  C_2
REMARK    2  A    between atoms: C_2  and  C_3
REMARK    3  A    between atoms: C_3  and  C_4
REMARK    4  A    between atoms: C_10  and  C_11
REMARK    5  A    between atoms: C_11  and  O_13
REMARK    6  A    between atoms: O_13  and  C_14
REMARK    7  A    between atoms: C_15  and  C_16
REMARK    8  A    between atoms: C_18  and  C_19
REMARK    9  A    between atoms: C_21  and  O_22
REMARK   10  A    between atoms: C_21  and  O_23
REMARK   11  A    between atoms: O_23  and  C_24
REMARK                            x       y       z     vdW  Elec       q    Type
REMARK                         _______ _______ _______ _____ _____    ______ ____
ROOT
ATOM      1  C   UNL     1      -0.073  12.000  19.747  0.00  0.00    +0.000 C 
ATOM      2  C   UNL     1      -0.981  12.413  20.931  0.00  0.00    +0.000 C 
ATOM      3  C   UNL     1      -1.127  11.637  22.025  0.00  0.00    +0.000 C 
ATOM      4  C   UNL     1      -2.075  11.863  23.185  0.00  0.00    +0.000 C 
ATOM      5  N   UNL     1      -0.390  10.504  22.233  0.00  0.00    +0.000 NA
ATOM      6  C   UNL     1       0.337   9.980  21.297  0.00  0.00    +0.000 C 
ATOM      7  C   UNL     1       1.086   8.741  21.757  0.00  0.00    +0.000 C 
ATOM      8  C   UNL     1       0.492  10.539  19.895  0.00  0.00    +0.000 C 
ATOM      9  C   UNL     1       1.160   9.854  18.932  0.00  0.00    +0.000 C 
ENDROOT
BRANCH   1  10
ATOM     10  C   UNL     1       1.200  12.920  19.715  0.00  0.00    +0.000 A 
ATOM     11  C   UNL     1       2.017  13.151  20.834  0.00  0.00    +0.000 A 
ATOM     12  C   UNL     1       3.068  14.077  20.786  0.00  0.00    +0.000 A 
ATOM     13  C   UNL     1       3.338  14.780  19.614  0.00  0.00    +0.000 A 
ATOM     14  C   UNL     1       2.570  14.546  18.481  0.00  0.00    +0.000 A 
ATOM     15  C   UNL     1       1.524  13.621  18.528  0.00  0.00    +0.000 A 
ENDBRANCH   1  10
BRANCH   1  17
ATOM     16  C   UNL     1      -2.060  11.063  18.263  0.00  0.00    +0.000 C 
ATOM     17  C   UNL     1      -0.970  12.119  18.440  0.00  0.00    +0.000 C 
ENDBRANCH   1  17
BRANCH   2  18
ATOM     18  C   UNL     1      -1.853  13.619  20.776  0.00  0.00    +0.000 C 
ATOM     19  O   UNL     1      -2.983  13.599  20.314  0.00  0.00    +0.000 OA
BRANCH  18  20
ATOM     20  O   UNL     1      -1.186  14.748  21.123  0.00  0.00    +0.000 OA
ATOM     21  C   UNL     1      -0.998  15.695  20.066  0.00  0.00    +0.000 C 
ENDBRANCH  18  20
ENDBRANCH   2  18
BRANCH   9  22
ATOM     22  O   UNL     1       1.331  10.339  17.652  0.00  0.00    +0.000 OA
ATOM     23  H   UNL     1       1.595  11.269  17.704  0.00  0.00    +0.000 HD
ENDBRANCH   9  22
BRANCH   9  24
ATOM     24  O   UNL     1       1.746   8.628  19.181  0.00  0.00    +0.000 OA
ATOM     25  C   UNL     1       2.243   8.006  17.994  0.00  0.00    +0.000 C 
ENDBRANCH   9  24
TORSDOF 6
ENDMDL
MODEL 5
REMARK VINA RESULT:      -5.5      8.649     12.292
REMARK  Name = 
REMARK  11 active torsions:
REMARK  status: ('A' for Active; 'I' for Inactive)
REMARK    1  A    between atoms: C_1  and  C_2
REMARK    2  A    between atoms: C_2  and  C_3
REMARK    3  A    between atoms: C_3  and  C_4
REMARK    4  A    between atoms: C_10  and  C_11
REMARK    5  A    between atoms: C_11  and  O_13
REMARK    6  A    between atoms: O_13  and  C_14
REMARK    7  A    between atoms: C_15  and  C_16
REMARK    8  A    between atoms: C_18  and  C_19
REMARK    9  A    between atoms: C_21  and  O_22
REMARK   10  A    between atoms: C_21  and  O_23
REMARK   11  A    between atoms: O_23  and  C_24
REMARK                            x       y       z     vdW  Elec       q    Type
REMARK                         _______ _______ _______ _____ _____    ______ ____
ROOT
ATOM      1  C   UNL     1      -2.415  13.570  22.096  0.00  0.00    +0.000 C 
ATOM      2  C   UNL     1      -1.760  14.382  23.240  0.00  0.00    +0.000 C 
ATOM      3  C   UNL     1      -2.366  14.553  24.433  0.00  0.00    +0.000 C 
ATOM      4  C   UNL     1      -1.894  15.423  25.580  0.00  0.00    +0.000 C 
ATOM      5  N   UNL     1      -3.531  13.920  24.770  0.00  0.00    +0.000 NA
ATOM      6  C   UNL     1      -4.244  13.289  23.892  0.00  0.00    +0.000 C 
ATOM      7  C   UNL     1      -5.481  12.643  24.492  0.00  0.00    +0.000 C 
ATOM      8  C   UNL     1      -3.893  13.142  22.423  0.00  0.00    +0.000 C 
ATOM      9  C   UNL     1      -4.764  12.586  21.541  0.00  0.00    +0.000 C 
ENDROOT
BRANCH   1  10
ATOM     10  C   UNL     1      -1.641  12.218  21.900  0.00  0.00    +0.000 A 
ATOM     11  C   UNL     1      -1.386  11.313  22.944  0.00  0.00    +0.000 A 
ATOM     12  C   UNL     1      -0.584  10.181  22.744  0.00  0.00    +0.000 A 
ATOM     13  C   UNL     1      -0.034   9.917  21.491  0.00  0.00    +0.000 A 
ATOM     14  C   UNL     1      -0.299  10.774  20.431  0.00  0.00    +0.000 A 
ATOM     15  C   UNL     1      -1.099  11.901  20.630  0.00  0.00    +0.000 A 
ENDBRANCH   1  10
BRANCH   1  17
ATOM     16  C   UNL     1      -3.284  15.739  20.843  0.00  0.00    +0.000 C 
ATOM     17  C   UNL     1      -2.379  14.509  20.813  0.00  0.00    +0.000 C 
ENDBRANCH   1  17
BRANCH   2  18
ATOM     18  C   UNL     1      -0.503  15.139  22.950  0.00  0.00    +0.000 C 
ATOM     19  O   UNL     1      -0.443  16.351  22.810  0.00  0.00    +0.000 OA
BRANCH  18  20
ATOM     20  O   UNL     1       0.542  14.294  22.765  0.00  0.00    +0.000 OA
ATOM     21  C   UNL     1       1.345  14.562  21.610  0.00  0.00    +0.000 C 
ENDBRANCH  18  20
ENDBRANCH   2  18
BRANCH   9  22
ATOM     22  O   UNL     1      -4.471  12.426  20.203  0.00  0.00    +0.000 OA
ATOM     23  H   UNL     1      -4.707  11.525  19.938  0.00  0.00    +0.000 HD
ENDBRANCH   9  22
BRANCH   9  24
ATOM     24  O   UNL     1      -5.998  12.111  21.936  0.00  0.00    +0.000 OA
ATOM     25  C   UNL     1      -6.940  12.070  20.861  0.00  0.00    +0.000 C 
ENDBRANCH   9  24
TORSDOF 6
ENDMDL
MODEL 6
REMARK VINA RESULT:      -5.4      8.131     11.049
REMARK  Name = 
REMARK  11 active torsions:
REMARK  status: ('A' for Active; 'I' for Inactive)
REMARK    1  A    between atoms: C_1  and  C_2
REMARK    2  A    between atoms: C_2  and  C_3
REMARK    3  A    between atoms: C_3  and  C_4
REMARK    4  A    between atoms: C_10  and  C_11
REMARK    5  A    between atoms: C_11  and  O_13
REMARK    6  A    between atoms: O_13  and  C_14
REMARK    7  A    between atoms: C_15  and  C_16
REMARK    8  A    between atoms: C_18  and  C_19
REMARK    9  A    between atoms: C_21  and  O_22
REMARK   10  A    between atoms: C_21  and  O_23
REMARK   11  A    between atoms: O_23  and  C_24
REMARK                            x       y       z     vdW  Elec       q    Type
REMARK                         _______ _______ _______ _____ _____    ______ ____
ROOT
ATOM      1  C   UNL     1       9.201  14.632  19.479  0.00  0.00    +0.000 C 
ATOM      2  C   UNL     1      10.056  14.635  18.189  0.00  0.00    +0.000 C 
ATOM      3  C   UNL     1      10.563  13.501  17.664  0.00  0.00    +0.000 C 
ATOM      4  C   UNL     1      11.512  13.383  16.489  0.00  0.00    +0.000 C 
ATOM      5  N   UNL     1      10.254  12.259  18.147  0.00  0.00    +0.000 NA
ATOM      6  C   UNL     1       9.632  12.099  19.273  0.00  0.00    +0.000 C 
ATOM      7  C   UNL     1       9.375  10.638  19.600  0.00  0.00    +0.000 C 
ATOM      8  C   UNL     1       9.152  13.221  20.173  0.00  0.00    +0.000 C 
ATOM      9  C   UNL     1       8.634  12.967  21.402  0.00  0.00    +0.000 C 
ENDROOT
BRANCH   1  10
ATOM     10  C   UNL     1       7.706  14.954  19.121  0.00  0.00    +0.000 A 
ATOM     11  C   UNL     1       6.993  14.292  18.107  0.00  0.00    +0.000 A 
ATOM     12  C   UNL     1       5.703  14.701  17.743  0.00  0.00    +0.000 A 
ATOM     13  C   UNL     1       5.088  15.767  18.395  0.00  0.00    +0.000 A 
ATOM     14  C   UNL     1       5.754  16.417  19.425  0.00  0.00    +0.000 A 
ATOM     15  C   UNL     1       7.039  16.009  19.790  0.00  0.00    +0.000 A 
ENDBRANCH   1  10
BRANCH   1  17
ATOM     16  C   UNL     1      11.205  15.328  21.069  0.00  0.00    +0.000 C 
ATOM     17  C   UNL     1       9.862  15.705  20.449  0.00  0.00    +0.000 C 
ENDBRANCH   1  17
BRANCH   2  18
ATOM     18  C   UNL     1      10.474  15.951  17.612  0.00  0.00    +0.000 C 
ATOM     19  O   UNL     1       9.737  16.695  16.984  0.00  0.00    +0.000 OA
BRANCH  18  20
ATOM     20  O   UNL     1      11.801  16.162  17.793  0.00  0.00    +0.000 OA
ATOM     21  C   UNL     1      12.189  17.535  17.914  0.00  0.00    +0.000 C 
ENDBRANCH  18  20
ENDBRANCH   2  18
BRANCH   9  22
ATOM     22  O   UNL     1       8.176  13.962  22.240  0.00  0.00    +0.000 OA
ATOM     23  H   UNL     1       8.603  13.865  23.103  0.00  0.00    +0.000 HD
ENDBRANCH   9  22
BRANCH   9  24
ATOM     24  O   UNL     1       8.502  11.681  21.888  0.00  0.00    +0.000 OA
ATOM     25  C   UNL     1       7.969  11.647  23.214  0.00  0.00    +0.000 C 
ENDBRANCH   9  24
TORSDOF 6
ENDMDL
MODEL 7
REMARK VINA RESULT:      -5.3      8.760     12.430
REMARK  Name = 
REMARK  11 active torsions:
REMARK  status: ('A' for Active; 'I' for Inactive)
REMARK    1  A    between atoms: C_1  and  C_2
REMARK    2  A    between atoms: C_2  and  C_3
REMARK    3  A    between atoms: C_3  and  C_4
REMARK    4  A    between atoms: C_10  and  C_11
REMARK    5  A    between atoms: C_11  and  O_13
REMARK    6  A    between atoms: O_13  and  C_14
REMARK    7  A    between atoms: C_15  and  C_16
REMARK    8  A    between atoms: C_18  and  C_19
REMARK    9  A    between atoms: C_21  and  O_22
REMARK   10  A    between atoms: C_21  and  O_23
REMARK   11  A    between atoms: O_23  and  C_24
REMARK                            x       y       z     vdW  Elec       q    Type
REMARK                         _______ _______ _______ _____ _____    ______ ____
ROOT
ATOM      1  C   UNL     1      -2.335  13.632  22.074  0.00  0.00    +0.000 C 
ATOM      2  C   UNL     1      -1.706  14.449  23.229  0.00  0.00    +0.000 C 
ATOM      3  C   UNL     1      -2.316  14.585  24.424  0.00  0.00    +0.000 C 
ATOM      4  C   UNL     1      -1.872  15.455  25.582  0.00  0.00    +0.000 C 
ATOM      5  N   UNL     1      -3.459  13.911  24.753  0.00  0.00    +0.000 NA
ATOM      6  C   UNL     1      -4.153  13.268  23.867  0.00  0.00    +0.000 C 
ATOM      7  C   UNL     1      -5.368  12.576  24.459  0.00  0.00    +0.000 C 
ATOM      8  C   UNL     1      -3.798  13.152  22.396  0.00  0.00    +0.000 C 
ATOM      9  C   UNL     1      -4.651  12.580  21.507  0.00  0.00    +0.000 C 
ENDROOT
BRANCH   1  10
ATOM     10  C   UNL     1      -1.518  12.307  21.860  0.00  0.00    +0.000 A 
ATOM     11  C   UNL     1      -1.048  11.882  20.606  0.00  0.00    +0.000 A 
ATOM     12  C   UNL     1      -0.433  10.633  20.448  0.00  0.00    +0.000 A 
ATOM     13  C   UNL     1      -0.256   9.788  21.542  0.00  0.00    +0.000 A 
ATOM     14  C   UNL     1      -0.679  10.197  22.800  0.00  0.00    +0.000 A 
ATOM     15  C   UNL     1      -1.290  11.443  22.958  0.00  0.00    +0.000 A 
ENDBRANCH   1  10
BRANCH   1  17
ATOM     16  C   UNL     1      -3.293  15.772  20.838  0.00  0.00    +0.000 C 
ATOM     17  C   UNL     1      -2.330  14.587  20.803  0.00  0.00    +0.000 C 
ENDBRANCH   1  17
BRANCH   2  18
ATOM     18  C   UNL     1      -0.474  15.250  22.948  0.00  0.00    +0.000 C 
ATOM     19  O   UNL     1       0.634  14.770  22.763  0.00  0.00    +0.000 OA
BRANCH  18  20
ATOM     20  O   UNL     1      -0.730  16.579  23.024  0.00  0.00    +0.000 OA
ATOM     21  C   UNL     1      -0.018  17.392  22.084  0.00  0.00    +0.000 C 
ENDBRANCH  18  20
ENDBRANCH   2  18
BRANCH   9  22
ATOM     22  O   UNL     1      -4.355  12.446  20.167  0.00  0.00    +0.000 OA
ATOM     23  H   UNL     1      -3.902  13.247  19.867  0.00  0.00    +0.000 HD
ENDBRANCH   9  22
BRANCH   9  24
ATOM     24  O   UNL     1      -5.870  12.061  21.896  0.00  0.00    +0.000 OA
ATOM     25  C   UNL     1      -6.662  11.630  20.787  0.00  0.00    +0.000 C 
ENDBRANCH   9  24
TORSDOF 6
ENDMDL
MODEL 8
REMARK VINA RESULT:      -5.2      6.030      9.246
REMARK  Name = 
REMARK  11 active torsions:
REMARK  status: ('A' for Active; 'I' for Inactive)
REMARK    1  A    between atoms: C_1  and  C_2
REMARK    2  A    between atoms: C_2  and  C_3
REMARK    3  A    between atoms: C_3  and  C_4
REMARK    4  A    between atoms: C_10  and  C_11
REMARK    5  A    between atoms: C_11  and  O_13
REMARK    6  A    between atoms: O_13  and  C_14
REMARK    7  A    between atoms: C_15  and  C_16
REMARK    8  A    between atoms: C_18  and  C_19
REMARK    9  A    between atoms: C_21  and  O_22
REMARK   10  A    between atoms: C_21  and  O_23
REMARK   11  A    between atoms: O_23  and  C_24
REMARK                            x       y       z     vdW  Elec       q    Type
REMARK                         _______ _______ _______ _____ _____    ______ ____
ROOT
ATOM      1  C   UNL     1       0.065  11.664  20.271  0.00  0.00    +0.000 C 
ATOM      2  C   UNL     1      -0.048  10.903  18.927  0.00  0.00    +0.000 C 
ATOM      3  C   UNL     1      -1.225  10.761  18.283  0.00  0.00    +0.000 C 
ATOM      4  C   UNL     1      -1.491   9.939  17.039  0.00  0.00    +0.000 C 
ATOM      5  N   UNL     1      -2.373  11.384  18.690  0.00  0.00    +0.000 NA
ATOM      6  C   UNL     1      -2.459  11.973  19.841  0.00  0.00    +0.000 C 
ATOM      7  C   UNL     1      -3.815  12.615  20.073  0.00  0.00    +0.000 C 
ATOM      8  C   UNL     1      -1.336  12.076  20.856  0.00  0.00    +0.000 C 
ATOM      9  C   UNL     1      -1.550  12.586  22.096  0.00  0.00    +0.000 C 
ENDROOT
BRANCH   1  10
ATOM     10  C   UNL     1       0.819  13.023  20.044  0.00  0.00    +0.000 A 
ATOM     11  C   UNL     1       2.000  13.375  20.720  0.00  0.00    +0.000 A 
ATOM     12  C   UNL     1       2.566  14.648  20.576  0.00  0.00    +0.000 A 
ATOM     13  C   UNL     1       1.977  15.594  19.739  0.00  0.00    +0.000 A 
ATOM     14  C   UNL     1       0.829  15.262  19.031  0.00  0.00    +0.000 A 
ATOM     15  C   UNL     1       0.266  13.992  19.173  0.00  0.00    +0.000 A 
ENDBRANCH   1  10
BRANCH   1  17
ATOM     16  C   UNL     1       0.031   9.470  21.759  0.00  0.00    +0.000 C 
ATOM     17  C   UNL     1       0.818  10.684  21.271  0.00  0.00    +0.000 C 
ENDBRANCH   1  17
BRANCH   2  18
ATOM     18  C   UNL     1       1.148  10.159  18.425  0.00  0.00    +0.000 C 
ATOM     19  O   UNL     1       2.107  10.682  17.878  0.00  0.00    +0.000 OA
BRANCH  18  20
ATOM     20  O   UNL     1       0.984   8.821  18.568  0.00  0.00    +0.000 OA
ATOM     21  C   UNL     1       2.195   8.057  18.585  0.00  0.00    +0.000 C 
ENDBRANCH  18  20
ENDBRANCH   2  18
BRANCH   9  22
ATOM     22  O   UNL     1      -0.550  12.707  23.037  0.00  0.00    +0.000 OA
ATOM     23  H   UNL     1      -0.350  13.646  23.161  0.00  0.00    +0.000 HD
ENDBRANCH   9  22
BRANCH   9  24
ATOM     24  O   UNL     1      -2.789  13.052  22.490  0.00  0.00    +0.000 OA
ATOM     25  C   UNL     1      -3.282  12.386  23.655  0.00  0.00    +0.000 C 
ENDBRANCH   9  24
TORSDOF 6
ENDMDL
MODEL 9
REMARK VINA RESULT:      -5.2      6.066      9.287
REMARK  Name = 
REMARK  11 active torsions:
REMARK  status: ('A' for Active; 'I' for Inactive)
REMARK    1  A    between atoms: C_1  and  C_2
REMARK    2  A    between atoms: C_2  and  C_3
REMARK    3  A    between atoms: C_3  and  C_4
REMARK    4  A    between atoms: C_10  and  C_11
REMARK    5  A    between atoms: C_11  and  O_13
REMARK    6  A    between atoms: O_13  and  C_14
REMARK    7  A    between atoms: C_15  and  C_16
REMARK    8  A    between atoms: C_18  and  C_19
REMARK    9  A    between atoms: C_21  and  O_22
REMARK   10  A    between atoms: C_21  and  O_23
REMARK   11  A    between atoms: O_23  and  C_24
REMARK                            x       y       z     vdW  Elec       q    Type
REMARK                         _______ _______ _______ _____ _____    ______ ____
ROOT
ATOM      1  C   UNL     1       0.103  11.735  20.302  0.00  0.00    +0.000 C 
ATOM      2  C   UNL     1      -0.030  10.953  18.972  0.00  0.00    +0.000 C 
ATOM      3  C   UNL     1      -1.215  10.803  18.346  0.00  0.00    +0.000 C 
ATOM      4  C   UNL     1      -1.499   9.961  17.119  0.00  0.00    +0.000 C 
ATOM      5  N   UNL     1      -2.357  11.433  18.759  0.00  0.00    +0.000 NA
ATOM      6  C   UNL     1      -2.426  12.039  19.903  0.00  0.00    +0.000 C 
ATOM      7  C   UNL     1      -3.779  12.687  20.143  0.00  0.00    +0.000 C 
ATOM      8  C   UNL     1      -1.289  12.157  20.900  0.00  0.00    +0.000 C 
ATOM      9  C   UNL     1      -1.486  12.687  22.135  0.00  0.00    +0.000 C 
ENDROOT
BRANCH   1  10
ATOM     10  C   UNL     1       0.855  13.090  20.044  0.00  0.00    +0.000 A 
ATOM     11  C   UNL     1       0.357  14.105  19.209  0.00  0.00    +0.000 A 
ATOM     12  C   UNL     1       1.123  15.241  18.913  0.00  0.00    +0.000 A 
ATOM     13  C   UNL     1       2.395  15.398  19.459  0.00  0.00    +0.000 A 
ATOM     14  C   UNL     1       2.899  14.428  20.315  0.00  0.00    +0.000 A 
ATOM     15  C   UNL     1       2.135  13.296  20.612  0.00  0.00    +0.000 A 
ENDBRANCH   1  10
BRANCH   1  17
ATOM     16  C   UNL     1       0.082   9.574  21.837  0.00  0.00    +0.000 C 
ATOM     17  C   UNL     1       0.870  10.770  21.306  0.00  0.00    +0.000 C 
ENDBRANCH   1  17
BRANCH   2  18
ATOM     18  C   UNL     1       1.159  10.201  18.464  0.00  0.00    +0.000 C 
ATOM     19  O   UNL     1       2.117  10.716  17.909  0.00  0.00    +0.000 OA
BRANCH  18  20
ATOM     20  O   UNL     1       0.988   8.864  18.612  0.00  0.00    +0.000 OA
ATOM     21  C   UNL     1       2.192   8.088  18.584  0.00  0.00    +0.000 C 
ENDBRANCH  18  20
ENDBRANCH   2  18
BRANCH   9  22
ATOM     22  O   UNL     1      -0.472  12.822  23.060  0.00  0.00    +0.000 OA
ATOM     23  H   UNL     1      -0.588  12.151  23.749  0.00  0.00    +0.000 HD
ENDBRANCH   9  22
BRANCH   9  24
ATOM     24  O   UNL     1      -2.719  13.160  22.539  0.00  0.00    +0.000 OA
ATOM     25  C   UNL     1      -2.663  13.833  23.799  0.00  0.00    +0.000 C 
ENDBRANCH   9  24
TORSDOF 6
ENDMDL
