MODEL 1
REMARK VINA RESULT:      -8.3      0.000      0.000
REMARK  Name = 
REMARK  4 active torsions:
REMARK  status: ('A' for Active; 'I' for Inactive)
REMARK    1  A    between atoms: C_1  and  C_2
REMARK    2  A    between atoms: C_11  and  C_13
REMARK    3  A    between atoms: C_13  and  O_14
REMARK    4  A    between atoms: O_14  and  C_15
REMARK                            x       y       z     vdW  Elec       q    Type
REMARK                         _______ _______ _______ _____ _____    ______ ____
ROOT
ATOM      1  C   UNL     1       1.302   2.894  18.640  0.00  0.00    +0.000 C 
ATOM      2  C   UNL     1       2.735   3.396  18.856  0.00  0.00    +0.000 C 
ATOM      3  C   UNL     1       3.648   2.861  17.736  0.00  0.00    +0.000 C 
ATOM      4  C   UNL     1       4.168   4.119  17.123  0.00  0.00    +0.000 A 
ATOM      5  C   UNL     1       5.037   4.193  16.040  0.00  0.00    +0.000 A 
ATOM      6  C   UNL     1       5.464   5.447  15.613  0.00  0.00    +0.000 A 
ATOM      7  C   UNL     1       5.029   6.592  16.284  0.00  0.00    +0.000 A 
ATOM      8  C   UNL     1       4.162   6.500  17.381  0.00  0.00    +0.000 A 
ATOM      9  C   UNL     1       3.712   5.257  17.793  0.00  0.00    +0.000 A 
ATOM     10  N   UNL     1       2.850   4.880  18.849  0.00  0.00    +0.000 N 
ATOM     11  C   UNL     1       2.243   5.624  19.850  0.00  0.00    +0.000 C 
ATOM     12  O   UNL     1       1.660   5.063  20.789  0.00  0.00    +0.000 OA
ENDROOT
BRANCH  11  13
ATOM     13  C   UNL     1       2.226   7.151  19.801  0.00  0.00    +0.000 C 
BRANCH  13  14
ATOM     14  O   UNL     1       1.443   7.725  20.848  0.00  0.00    +0.000 OA
BRANCH  14  15
ATOM     15  C   UNL     1       0.953   8.972  20.495  0.00  0.00    +0.000 A 
ATOM     16  N   UNL     1       1.293   9.470  19.287  0.00  0.00    +0.000 NA
ATOM     17  C   UNL     1       0.869  10.699  18.967  0.00  0.00    +0.000 A 
ATOM     18  N   UNL     1       0.124  11.517  19.709  0.00  0.00    +0.000 NA
ATOM     19  C   UNL     1      -0.183  10.993  20.908  0.00  0.00    +0.000 A 
ATOM     20  S   UNL     1      -1.124  11.877  22.020  0.00  0.00    +0.000 S 
ATOM     21  C   UNL     1      -1.047  10.619  23.173  0.00  0.00    +0.000 A 
ATOM     22  C   UNL     1      -0.312   9.544  22.715  0.00  0.00    +0.000 A 
ATOM     23  C   UNL     1       0.193   9.745  21.385  0.00  0.00    +0.000 A 
ENDBRANCH  14  15
ENDBRANCH  13  14
ENDBRANCH  11  13
TORSDOF 3
ENDMDL
MODEL 2
REMARK VINA RESULT:      -8.1      4.135      6.775
REMARK  Name = 
REMARK  4 active torsions:
REMARK  status: ('A' for Active; 'I' for Inactive)
REMARK    1  A    between atoms: C_1  and  C_2
REMARK    2  A    between atoms: C_11  and  C_13
REMARK    3  A    between atoms: C_13  and  O_14
REMARK    4  A    between atoms: O_14  and  C_15
REMARK                            x       y       z     vdW  Elec       q    Type
REMARK                         _______ _______ _______ _____ _____    ______ ____
ROOT
ATOM      1  C   UNL     1       3.261   2.444  21.138  0.00  0.00    +0.000 C 
ATOM      2  C   UNL     1       2.147   3.196  20.400  0.00  0.00    +0.000 C 
ATOM      3  C   UNL     1       1.683   4.399  21.243  0.00  0.00    +0.000 C 
ATOM      4  C   UNL     1       1.949   5.549  20.329  0.00  0.00    +0.000 A 
ATOM      5  C   UNL     1       1.718   6.888  20.624  0.00  0.00    +0.000 A 
ATOM      6  C   UNL     1       1.979   7.840  19.643  0.00  0.00    +0.000 A 
ATOM      7  C   UNL     1       2.448   7.435  18.391  0.00  0.00    +0.000 A 
ATOM      8  C   UNL     1       2.667   6.081  18.106  0.00  0.00    +0.000 A 
ATOM      9  C   UNL     1       2.434   5.130  19.087  0.00  0.00    +0.000 A 
ATOM     10  N   UNL     1       2.567   3.723  19.072  0.00  0.00    +0.000 N 
ATOM     11  C   UNL     1       2.899   2.842  18.053  0.00  0.00    +0.000 C 
ATOM     12  O   UNL     1       2.786   1.618  18.215  0.00  0.00    +0.000 OA
ENDROOT
BRANCH  11  13
ATOM     13  C   UNL     1       3.462   3.344  16.725  0.00  0.00    +0.000 C 
BRANCH  13  14
ATOM     14  O   UNL     1       4.786   2.870  16.477  0.00  0.00    +0.000 OA
BRANCH  14  15
ATOM     15  C   UNL     1       5.665   3.913  16.236  0.00  0.00    +0.000 A 
ATOM     16  N   UNL     1       6.056   4.135  14.963  0.00  0.00    +0.000 NA
ATOM     17  C   UNL     1       6.951   5.106  14.736  0.00  0.00    +0.000 A 
ATOM     18  N   UNL     1       7.518   5.910  15.633  0.00  0.00    +0.000 NA
ATOM     19  C   UNL     1       7.115   5.651  16.889  0.00  0.00    +0.000 A 
ATOM     20  S   UNL     1       7.725   6.560  18.195  0.00  0.00    +0.000 S 
ATOM     21  C   UNL     1       6.801   5.668  19.322  0.00  0.00    +0.000 A 
ATOM     22  C   UNL     1       6.043   4.691  18.708  0.00  0.00    +0.000 A 
ATOM     23  C   UNL     1       6.209   4.675  17.281  0.00  0.00    +0.000 A 
ENDBRANCH  14  15
ENDBRANCH  13  14
ENDBRANCH  11  13
TORSDOF 3
ENDMDL
MODEL 3
REMARK VINA RESULT:      -7.9      1.707      3.438
REMARK  Name = 
REMARK  4 active torsions:
REMARK  status: ('A' for Active; 'I' for Inactive)
REMARK    1  A    between atoms: C_1  and  C_2
REMARK    2  A    between atoms: C_11  and  C_13
REMARK    3  A    between atoms: C_13  and  O_14
REMARK    4  A    between atoms: O_14  and  C_15
REMARK                            x       y       z     vdW  Elec       q    Type
REMARK                         _______ _______ _______ _____ _____    ______ ____
ROOT
ATOM      1  C   UNL     1       5.098   5.821  17.474  0.00  0.00    +0.000 C 
ATOM      2  C   UNL     1       3.632   5.371  17.424  0.00  0.00    +0.000 C 
ATOM      3  C   UNL     1       3.559   3.832  17.437  0.00  0.00    +0.000 C 
ATOM      4  C   UNL     1       2.750   3.563  18.663  0.00  0.00    +0.000 A 
ATOM      5  C   UNL     1       2.405   2.306  19.145  0.00  0.00    +0.000 A 
ATOM      6  C   UNL     1       1.606   2.225  20.282  0.00  0.00    +0.000 A 
ATOM      7  C   UNL     1       1.159   3.396  20.899  0.00  0.00    +0.000 A 
ATOM      8  C   UNL     1       1.507   4.655  20.394  0.00  0.00    +0.000 A 
ATOM      9  C   UNL     1       2.325   4.743  19.279  0.00  0.00    +0.000 A 
ATOM     10  N   UNL     1       2.822   5.862  18.573  0.00  0.00    +0.000 N 
ATOM     11  C   UNL     1       2.590   7.221  18.723  0.00  0.00    +0.000 C 
ATOM     12  O   UNL     1       2.996   8.029  17.875  0.00  0.00    +0.000 OA
ENDROOT
BRANCH  11  13
ATOM     13  C   UNL     1       1.880   7.770  19.959  0.00  0.00    +0.000 C 
BRANCH  13  14
ATOM     14  O   UNL     1       1.346   9.078  19.750  0.00  0.00    +0.000 OA
BRANCH  14  15
ATOM     15  C   UNL     1       0.763   9.581  20.901  0.00  0.00    +0.000 A 
ATOM     16  N   UNL     1       1.075   9.001  22.079  0.00  0.00    +0.000 NA
ATOM     17  C   UNL     1       0.468   9.447  23.186  0.00  0.00    +0.000 A 
ATOM     18  N   UNL     1      -0.430  10.427  23.278  0.00  0.00    +0.000 NA
ATOM     19  C   UNL     1      -0.725  10.971  22.085  0.00  0.00    +0.000 A 
ATOM     20  S   UNL     1      -1.860  12.238  21.973  0.00  0.00    +0.000 S 
ATOM     21  C   UNL     1      -1.674  12.331  20.276  0.00  0.00    +0.000 A 
ATOM     22  C   UNL     1      -0.763  11.406  19.807  0.00  0.00    +0.000 A 
ATOM     23  C   UNL     1      -0.192  10.608  20.856  0.00  0.00    +0.000 A 
ENDBRANCH  14  15
ENDBRANCH  13  14
ENDBRANCH  11  13
TORSDOF 3
ENDMDL
MODEL 4
REMARK VINA RESULT:      -7.8      2.988      7.686
REMARK  Name = 
REMARK  4 active torsions:
REMARK  status: ('A' for Active; 'I' for Inactive)
REMARK    1  A    between atoms: C_1  and  C_2
REMARK    2  A    between atoms: C_11  and  C_13
REMARK    3  A    between atoms: C_13  and  O_14
REMARK    4  A    between atoms: O_14  and  C_15
REMARK                            x       y       z     vdW  Elec       q    Type
REMARK                         _______ _______ _______ _____ _____    ______ ____
ROOT
ATOM      1  C   UNL     1      -1.011  10.621  17.585  0.00  0.00    +0.000 C 
ATOM      2  C   UNL     1      -0.017  11.002  18.688  0.00  0.00    +0.000 C 
ATOM      3  C   UNL     1      -0.763  11.694  19.845  0.00  0.00    +0.000 C 
ATOM      4  C   UNL     1      -0.452  10.802  21.001  0.00  0.00    +0.000 A 
ATOM      5  C   UNL     1      -0.909  10.975  22.303  0.00  0.00    +0.000 A 
ATOM      6  C   UNL     1      -0.492  10.076  23.280  0.00  0.00    +0.000 A 
ATOM      7  C   UNL     1       0.380   9.039  22.940  0.00  0.00    +0.000 A 
ATOM      8  C   UNL     1       0.840   8.885  21.626  0.00  0.00    +0.000 A 
ATOM      9  C   UNL     1       0.407   9.760  20.643  0.00  0.00    +0.000 A 
ATOM     10  N   UNL     1       0.707   9.835  19.264  0.00  0.00    +0.000 N 
ATOM     11  C   UNL     1       1.583   9.107  18.472  0.00  0.00    +0.000 C 
ATOM     12  O   UNL     1       1.821   9.456  17.307  0.00  0.00    +0.000 OA
ENDROOT
BRANCH  11  13
ATOM     13  C   UNL     1       2.236   7.826  18.988  0.00  0.00    +0.000 C 
BRANCH  13  14
ATOM     14  O   UNL     1       2.609   6.938  17.934  0.00  0.00    +0.000 OA
BRANCH  14  15
ATOM     15  C   UNL     1       3.400   5.899  18.399  0.00  0.00    +0.000 A 
ATOM     16  N   UNL     1       4.665   6.180  18.774  0.00  0.00    +0.000 NA
ATOM     17  C   UNL     1       5.449   5.169  19.168  0.00  0.00    +0.000 A 
ATOM     18  N   UNL     1       5.128   3.878  19.245  0.00  0.00    +0.000 NA
ATOM     19  C   UNL     1       3.866   3.635  18.852  0.00  0.00    +0.000 A 
ATOM     20  S   UNL     1       3.250   2.046  18.866  0.00  0.00    +0.000 S 
ATOM     21  C   UNL     1       1.735   2.566  18.269  0.00  0.00    +0.000 A 
ATOM     22  C   UNL     1       1.705   3.930  18.062  0.00  0.00    +0.000 A 
ATOM     23  C   UNL     1       2.943   4.572  18.408  0.00  0.00    +0.000 A 
ENDBRANCH  14  15
ENDBRANCH  13  14
ENDBRANCH  11  13
TORSDOF 3
ENDMDL
MODEL 5
REMARK VINA RESULT:      -7.7      2.802      7.422
REMARK  Name = 
REMARK  4 active torsions:
REMARK  status: ('A' for Active; 'I' for Inactive)
REMARK    1  A    between atoms: C_1  and  C_2
REMARK    2  A    between atoms: C_11  and  C_13
REMARK    3  A    between atoms: C_13  and  O_14
REMARK    4  A    between atoms: O_14  and  C_15
REMARK                            x       y       z     vdW  Elec       q    Type
REMARK                         _______ _______ _______ _____ _____    ______ ____
ROOT
ATOM      1  C   UNL     1      -1.109  10.383  17.451  0.00  0.00    +0.000 C 
ATOM      2  C   UNL     1      -0.166  10.912  18.538  0.00  0.00    +0.000 C 
ATOM      3  C   UNL     1      -0.981  11.629  19.632  0.00  0.00    +0.000 C 
ATOM      4  C   UNL     1      -0.631  10.846  20.854  0.00  0.00    +0.000 A 
ATOM      5  C   UNL     1      -1.125  11.078  22.132  0.00  0.00    +0.000 A 
ATOM      6  C   UNL     1      -0.664  10.283  23.178  0.00  0.00    +0.000 A 
ATOM      7  C   UNL     1       0.285   9.289  22.927  0.00  0.00    +0.000 A 
ATOM      8  C   UNL     1       0.780   9.075  21.634  0.00  0.00    +0.000 A 
ATOM      9  C   UNL     1       0.306   9.845  20.584  0.00  0.00    +0.000 A 
ATOM     10  N   UNL     1       0.627   9.843  19.207  0.00  0.00    +0.000 N 
ATOM     11  C   UNL     1       1.567   9.126  18.483  0.00  0.00    +0.000 C 
ATOM     12  O   UNL     1       1.803   9.408  17.299  0.00  0.00    +0.000 OA
ENDROOT
BRANCH  11  13
ATOM     13  C   UNL     1       2.299   7.935  19.100  0.00  0.00    +0.000 C 
BRANCH  13  14
ATOM     14  O   UNL     1       1.942   6.695  18.488  0.00  0.00    +0.000 OA
BRANCH  14  15
ATOM     15  C   UNL     1       2.811   5.679  18.851  0.00  0.00    +0.000 A 
ATOM     16  N   UNL     1       4.032   5.650  18.277  0.00  0.00    +0.000 NA
ATOM     17  C   UNL     1       4.852   4.636  18.583  0.00  0.00    +0.000 A 
ATOM     18  N   UNL     1       4.611   3.622  19.412  0.00  0.00    +0.000 NA
ATOM     19  C   UNL     1       3.382   3.678  19.954  0.00  0.00    +0.000 A 
ATOM     20  S   UNL     1       2.864   2.471  21.041  0.00  0.00    +0.000 S 
ATOM     21  C   UNL     1       1.337   3.215  21.229  0.00  0.00    +0.000 A 
ATOM     22  C   UNL     1       1.228   4.364  20.471  0.00  0.00    +0.000 A 
ATOM     23  C   UNL     1       2.422   4.653  19.726  0.00  0.00    +0.000 A 
ENDBRANCH  14  15
ENDBRANCH  13  14
ENDBRANCH  11  13
TORSDOF 3
ENDMDL
MODEL 6
REMARK VINA RESULT:      -7.7      1.702      3.200
REMARK  Name = 
REMARK  4 active torsions:
REMARK  status: ('A' for Active; 'I' for Inactive)
REMARK    1  A    between atoms: C_1  and  C_2
REMARK    2  A    between atoms: C_11  and  C_13
REMARK    3  A    between atoms: C_13  and  O_14
REMARK    4  A    between atoms: O_14  and  C_15
REMARK                            x       y       z     vdW  Elec       q    Type
REMARK                         _______ _______ _______ _____ _____    ______ ____
ROOT
ATOM      1  C   UNL     1       6.185   5.595  19.015  0.00  0.00    +0.000 C 
ATOM      2  C   UNL     1       4.987   4.816  18.458  0.00  0.00    +0.000 C 
ATOM      3  C   UNL     1       4.883   3.449  19.161  0.00  0.00    +0.000 C 
ATOM      4  C   UNL     1       3.521   3.509  19.772  0.00  0.00    +0.000 A 
ATOM      5  C   UNL     1       2.937   2.512  20.544  0.00  0.00    +0.000 A 
ATOM      6  C   UNL     1       1.638   2.704  21.007  0.00  0.00    +0.000 A 
ATOM      7  C   UNL     1       0.951   3.874  20.675  0.00  0.00    +0.000 A 
ATOM      8  C   UNL     1       1.551   4.865  19.887  0.00  0.00    +0.000 A 
ATOM      9  C   UNL     1       2.853   4.692  19.446  0.00  0.00    +0.000 A 
ATOM     10  N   UNL     1       3.685   5.513  18.652  0.00  0.00    +0.000 N 
ATOM     11  C   UNL     1       3.441   6.713  18.002  0.00  0.00    +0.000 C 
ATOM     12  O   UNL     1       4.270   7.181  17.207  0.00  0.00    +0.000 OA
ENDROOT
BRANCH  11  13
ATOM     13  C   UNL     1       2.176   7.522  18.282  0.00  0.00    +0.000 C 
BRANCH  13  14
ATOM     14  O   UNL     1       2.156   8.070  19.601  0.00  0.00    +0.000 OA
BRANCH  14  15
ATOM     15  C   UNL     1       1.261   9.123  19.702  0.00  0.00    +0.000 A 
ATOM     16  N   UNL     1       1.020   9.862  18.598  0.00  0.00    +0.000 NA
ATOM     17  C   UNL     1       0.201  10.915  18.708  0.00  0.00    +0.000 A 
ATOM     18  N   UNL     1      -0.432  11.338  19.801  0.00  0.00    +0.000 NA
ATOM     19  C   UNL     1      -0.158  10.586  20.881  0.00  0.00    +0.000 A 
ATOM     20  S   UNL     1      -0.859  10.957  22.389  0.00  0.00    +0.000 S 
ATOM     21  C   UNL     1      -0.059   9.651  23.147  0.00  0.00    +0.000 A 
ATOM     22  C   UNL     1       0.732   8.948  22.261  0.00  0.00    +0.000 A 
ATOM     23  C   UNL     1       0.676   9.478  20.927  0.00  0.00    +0.000 A 
ENDBRANCH  14  15
ENDBRANCH  13  14
ENDBRANCH  11  13
TORSDOF 3
ENDMDL
MODEL 7
REMARK VINA RESULT:      -7.6      1.133      1.737
REMARK  Name = 
REMARK  4 active torsions:
REMARK  status: ('A' for Active; 'I' for Inactive)
REMARK    1  A    between atoms: C_1  and  C_2
REMARK    2  A    between atoms: C_11  and  C_13
REMARK    3  A    between atoms: C_13  and  O_14
REMARK    4  A    between atoms: O_14  and  C_15
REMARK                            x       y       z     vdW  Elec       q    Type
REMARK                         _______ _______ _______ _____ _____    ______ ____
ROOT
ATOM      1  C   UNL     1       1.152   3.176  18.469  0.00  0.00    +0.000 C 
ATOM      2  C   UNL     1       2.634   3.498  18.694  0.00  0.00    +0.000 C 
ATOM      3  C   UNL     1       3.474   2.922  17.537  0.00  0.00    +0.000 C 
ATOM      4  C   UNL     1       4.132   4.144  16.985  0.00  0.00    +0.000 A 
ATOM      5  C   UNL     1       4.997   4.175  15.898  0.00  0.00    +0.000 A 
ATOM      6  C   UNL     1       5.564   5.393  15.532  0.00  0.00    +0.000 A 
ATOM      7  C   UNL     1       5.268   6.542  16.268  0.00  0.00    +0.000 A 
ATOM      8  C   UNL     1       4.402   6.492  17.368  0.00  0.00    +0.000 A 
ATOM      9  C   UNL     1       3.813   5.289  17.720  0.00  0.00    +0.000 A 
ATOM     10  N   UNL     1       2.920   4.958  18.764  0.00  0.00    +0.000 N 
ATOM     11  C   UNL     1       2.408   5.712  19.810  0.00  0.00    +0.000 C 
ATOM     12  O   UNL     1       1.769   5.172  20.725  0.00  0.00    +0.000 OA
ENDROOT
BRANCH  11  13
ATOM     13  C   UNL     1       2.567   7.230  19.841  0.00  0.00    +0.000 C 
BRANCH  13  14
ATOM     14  O   UNL     1       1.379   7.914  19.440  0.00  0.00    +0.000 OA
BRANCH  14  15
ATOM     15  C   UNL     1       0.953   8.808  20.410  0.00  0.00    +0.000 A 
ATOM     16  N   UNL     1       1.317   8.580  21.690  0.00  0.00    +0.000 NA
ATOM     17  C   UNL     1       0.859   9.410  22.636  0.00  0.00    +0.000 A 
ATOM     18  N   UNL     1       0.069  10.469  22.470  0.00  0.00    +0.000 NA
ATOM     19  C   UNL     1      -0.282  10.657  21.186  0.00  0.00    +0.000 A 
ATOM     20  S   UNL     1      -1.297  11.955  20.752  0.00  0.00    +0.000 S 
ATOM     21  C   UNL     1      -1.261  11.506  19.103  0.00  0.00    +0.000 A 
ATOM     22  C   UNL     1      -0.488  10.382  18.892  0.00  0.00    +0.000 A 
ATOM     23  C   UNL     1       0.100   9.879  20.103  0.00  0.00    +0.000 A 
ENDBRANCH  14  15
ENDBRANCH  13  14
ENDBRANCH  11  13
TORSDOF 3
ENDMDL
MODEL 8
REMARK VINA RESULT:      -7.6      2.857      7.881
REMARK  Name = 
REMARK  4 active torsions:
REMARK  status: ('A' for Active; 'I' for Inactive)
REMARK    1  A    between atoms: C_1  and  C_2
REMARK    2  A    between atoms: C_11  and  C_13
REMARK    3  A    between atoms: C_13  and  O_14
REMARK    4  A    between atoms: O_14  and  C_15
REMARK                            x       y       z     vdW  Elec       q    Type
REMARK                         _______ _______ _______ _____ _____    ______ ____
ROOT
ATOM      1  C   UNL     1      -0.902  10.006  17.552  0.00  0.00    +0.000 C 
ATOM      2  C   UNL     1      -0.046  10.642  18.655  0.00  0.00    +0.000 C 
ATOM      3  C   UNL     1      -0.894  11.648  19.458  0.00  0.00    +0.000 C 
ATOM      4  C   UNL     1      -0.815  11.096  20.843  0.00  0.00    +0.000 A 
ATOM      5  C   UNL     1      -1.436  11.633  21.964  0.00  0.00    +0.000 A 
ATOM      6  C   UNL     1      -1.227  11.022  23.198  0.00  0.00    +0.000 A 
ATOM      7  C   UNL     1      -0.395   9.904  23.284  0.00  0.00    +0.000 A 
ATOM      8  C   UNL     1       0.232   9.381  22.146  0.00  0.00    +0.000 A 
ATOM      9  C   UNL     1       0.007   9.968  20.911  0.00  0.00    +0.000 A 
ATOM     10  N   UNL     1       0.501   9.653  19.625  0.00  0.00    +0.000 N 
ATOM     11  C   UNL     1       1.423   8.708  19.200  0.00  0.00    +0.000 C 
ATOM     12  O   UNL     1       1.848   8.718  18.036  0.00  0.00    +0.000 OA
ENDROOT
BRANCH  11  13
ATOM     13  C   UNL     1       1.902   7.597  20.132  0.00  0.00    +0.000 C 
BRANCH  13  14
ATOM     14  O   UNL     1       2.891   6.762  19.528  0.00  0.00    +0.000 OA
BRANCH  14  15
ATOM     15  C   UNL     1       2.646   5.420  19.775  0.00  0.00    +0.000 A 
ATOM     16  N   UNL     1       2.021   5.089  20.925  0.00  0.00    +0.000 NA
ATOM     17  C   UNL     1       1.836   3.790  21.193  0.00  0.00    +0.000 A 
ATOM     18  N   UNL     1       2.196   2.749  20.444  0.00  0.00    +0.000 NA
ATOM     19  C   UNL     1       2.826   3.118  19.315  0.00  0.00    +0.000 A 
ATOM     20  S   UNL     1       3.380   1.941  18.214  0.00  0.00    +0.000 S 
ATOM     21  C   UNL     1       4.011   3.135  17.166  0.00  0.00    +0.000 A 
ATOM     22  C   UNL     1       3.803   4.409  17.654  0.00  0.00    +0.000 A 
ATOM     23  C   UNL     1       3.101   4.415  18.908  0.00  0.00    +0.000 A 
ENDBRANCH  14  15
ENDBRANCH  13  14
ENDBRANCH  11  13
TORSDOF 3
ENDMDL
MODEL 9
REMARK VINA RESULT:      -7.6      2.999      7.937
REMARK  Name = 
REMARK  4 active torsions:
REMARK  status: ('A' for Active; 'I' for Inactive)
REMARK    1  A    between atoms: C_1  and  C_2
REMARK    2  A    between atoms: C_11  and  C_13
REMARK    3  A    between atoms: C_13  and  O_14
REMARK    4  A    between atoms: O_14  and  C_15
REMARK                            x       y       z     vdW  Elec       q    Type
REMARK                         _______ _______ _______ _____ _____    ______ ____
ROOT
ATOM      1  C   UNL     1      -1.320  10.168  17.547  0.00  0.00    +0.000 C 
ATOM      2  C   UNL     1      -0.327  10.749  18.560  0.00  0.00    +0.000 C 
ATOM      3  C   UNL     1      -1.092  11.492  19.673  0.00  0.00    +0.000 C 
ATOM      4  C   UNL     1      -0.660  10.757  20.899  0.00  0.00    +0.000 A 
ATOM      5  C   UNL     1      -1.085  11.026  22.195  0.00  0.00    +0.000 A 
ATOM      6  C   UNL     1      -0.553  10.275  23.239  0.00  0.00    +0.000 A 
ATOM      7  C   UNL     1       0.398   9.289  22.969  0.00  0.00    +0.000 A 
ATOM      8  C   UNL     1       0.824   9.037  21.658  0.00  0.00    +0.000 A 
ATOM      9  C   UNL     1       0.278   9.762  20.611  0.00  0.00    +0.000 A 
ATOM     10  N   UNL     1       0.520   9.717  19.219  0.00  0.00    +0.000 N 
ATOM     11  C   UNL     1       1.431   8.989  18.468  0.00  0.00    +0.000 C 
ATOM     12  O   UNL     1       1.595   9.233  17.264  0.00  0.00    +0.000 OA
ENDROOT
BRANCH  11  13
ATOM     13  C   UNL     1       2.217   7.833  19.082  0.00  0.00    +0.000 C 
BRANCH  13  14
ATOM     14  O   UNL     1       3.433   7.563  18.383  0.00  0.00    +0.000 OA
BRANCH  14  15
ATOM     15  C   UNL     1       3.458   6.271  17.883  0.00  0.00    +0.000 A 
ATOM     16  N   UNL     1       2.425   5.454  18.178  0.00  0.00    +0.000 NA
ATOM     17  C   UNL     1       2.476   4.188  17.746  0.00  0.00    +0.000 A 
ATOM     18  N   UNL     1       3.443   3.614  17.033  0.00  0.00    +0.000 NA
ATOM     19  C   UNL     1       4.460   4.453  16.770  0.00  0.00    +0.000 A 
ATOM     20  S   UNL     1       5.809   3.920  15.875  0.00  0.00    +0.000 S 
ATOM     21  C   UNL     1       6.563   5.449  15.992  0.00  0.00    +0.000 A 
ATOM     22  C   UNL     1       5.797   6.348  16.706  0.00  0.00    +0.000 A 
ATOM     23  C   UNL     1       4.557   5.781  17.160  0.00  0.00    +0.000 A 
ENDBRANCH  14  15
ENDBRANCH  13  14
ENDBRANCH  11  13
TORSDOF 3
ENDMDL
