MODEL 1
REMARK VINA RESULT:      -8.9      0.000      0.000
REMARK  Name = 
REMARK  5 active torsions:
REMARK  status: ('A' for Active; 'I' for Inactive)
REMARK    1  A    between atoms: N_1  and  C_2
REMARK    2  A    between atoms: C_3  and  C_4
REMARK    3  A    between atoms: N_6  and  N_7
REMARK    4  A    between atoms: C_8  and  C_9
REMARK    5  A    between atoms: C_19  and  C_20
REMARK                            x       y       z     vdW  Elec       q    Type
REMARK                         _______ _______ _______ _____ _____    ______ ____
ROOT
ATOM      1  C   UNL     1       5.658   4.417  16.842  0.00  0.00    +0.000 A 
ATOM      2  C   UNL     1       6.025   5.649  17.359  0.00  0.00    +0.000 A 
ATOM      3  O   UNL     1       5.155   5.977  18.377  0.00  0.00    +0.000 OA
ATOM      4  C   UNL     1       4.257   4.959  18.505  0.00  0.00    +0.000 A 
ATOM      5  N   UNL     1       3.270   4.964  19.419  0.00  0.00    +0.000 NA
ATOM      6  C   UNL     1       2.490   3.841  19.389  0.00  0.00    +0.000 A 
ATOM      7  C   UNL     1       2.684   2.776  18.500  0.00  0.00    +0.000 A 
ATOM      8  C   UNL     1       3.717   2.826  17.569  0.00  0.00    +0.000 A 
ATOM      9  C   UNL     1       4.533   3.967  17.575  0.00  0.00    +0.000 A 
ENDROOT
BRANCH   2  10
ATOM     10  C   UNL     1       7.096   6.584  17.039  0.00  0.00    +0.000 C 
ATOM     11  O   UNL     1       7.854   6.436  16.083  0.00  0.00    +0.000 OA
ATOM     12  N   UNL     1       7.169   7.651  17.940  0.00  0.00    +0.000 N 
ATOM     13  H   UNL     1       6.502   7.682  18.705  0.00  0.00    +0.000 HD
BRANCH  12  14
ATOM     14  N   UNL     1       8.122   8.624  17.821  0.00  0.00    +0.000 NA
ATOM     15  C   UNL     1       8.429   9.258  18.908  0.00  0.00    +0.000 C 
BRANCH  15  16
ATOM     16  C   UNL     1       9.445  10.339  18.922  0.00  0.00    +0.000 A 
ATOM     17  C   UNL     1       9.923  10.868  17.717  0.00  0.00    +0.000 A 
ATOM     18  C   UNL     1      10.838  11.923  17.731  0.00  0.00    +0.000 A 
ATOM     19  C   UNL     1      11.276  12.436  18.948  0.00  0.00    +0.000 A 
ATOM     20  F   UNL     1      12.138  13.461  18.959  0.00  0.00    +0.000 F 
ATOM     21  C   UNL     1      10.826  11.903  20.152  0.00  0.00    +0.000 A 
ATOM     22  C   UNL     1       9.904  10.850  20.143  0.00  0.00    +0.000 A 
ENDBRANCH  15  16
ENDBRANCH  12  14
ENDBRANCH   2  10
BRANCH   6  23
ATOM     23  C   UNL     1       1.333   3.717  20.378  0.00  0.00    +0.000 C 
ATOM     24  F   UNL     1       0.748   4.897  20.719  0.00  0.00    +0.000 F 
ATOM     25  F   UNL     1       0.328   2.927  19.897  0.00  0.00    +0.000 F 
ATOM     26  F   UNL     1       1.719   3.135  21.551  0.00  0.00    +0.000 F 
ENDBRANCH   6  23
BRANCH   1  27
ATOM     27  N   UNL     1       6.228   3.722  15.838  0.00  0.00    +0.000 N 
ATOM     28  H   UNL     1       6.991   3.065  15.999  0.00  0.00    +0.000 HD
ATOM     29  H   UNL     1       5.821   3.670  14.909  0.00  0.00    +0.000 HD
ENDBRANCH   1  27
TORSDOF 5
ENDMDL
MODEL 2
REMARK VINA RESULT:      -8.9      0.451      1.146
REMARK  Name = 
REMARK  5 active torsions:
REMARK  status: ('A' for Active; 'I' for Inactive)
REMARK    1  A    between atoms: N_1  and  C_2
REMARK    2  A    between atoms: C_3  and  C_4
REMARK    3  A    between atoms: N_6  and  N_7
REMARK    4  A    between atoms: C_8  and  C_9
REMARK    5  A    between atoms: C_19  and  C_20
REMARK                            x       y       z     vdW  Elec       q    Type
REMARK                         _______ _______ _______ _____ _____    ______ ____
ROOT
ATOM      1  C   UNL     1       5.799   4.413  16.917  0.00  0.00    +0.000 A 
ATOM      2  C   UNL     1       6.163   5.637  17.456  0.00  0.00    +0.000 A 
ATOM      3  O   UNL     1       5.369   5.887  18.555  0.00  0.00    +0.000 OA
ATOM      4  C   UNL     1       4.525   4.829  18.711  0.00  0.00    +0.000 A 
ATOM      5  N   UNL     1       3.618   4.756  19.703  0.00  0.00    +0.000 NA
ATOM      6  C   UNL     1       2.880   3.605  19.689  0.00  0.00    +0.000 A 
ATOM      7  C   UNL     1       3.039   2.586  18.741  0.00  0.00    +0.000 A 
ATOM      8  C   UNL     1       3.988   2.716  17.730  0.00  0.00    +0.000 A 
ATOM      9  C   UNL     1       4.758   3.887  17.719  0.00  0.00    +0.000 A 
ENDROOT
BRANCH   2  10
ATOM     10  C   UNL     1       7.167   6.627  17.091  0.00  0.00    +0.000 C 
ATOM     11  O   UNL     1       7.856   6.542  16.076  0.00  0.00    +0.000 OA
ATOM     12  N   UNL     1       7.265   7.666  18.020  0.00  0.00    +0.000 N 
ATOM     13  H   UNL     1       6.657   7.644  18.833  0.00  0.00    +0.000 HD
BRANCH  12  14
ATOM     14  N   UNL     1       8.166   8.683  17.865  0.00  0.00    +0.000 NA
ATOM     15  C   UNL     1       8.534   9.290  18.949  0.00  0.00    +0.000 C 
BRANCH  15  16
ATOM     16  C   UNL     1       9.505  10.411  18.925  0.00  0.00    +0.000 A 
ATOM     17  C   UNL     1      10.013  10.926  20.124  0.00  0.00    +0.000 A 
ATOM     18  C   UNL     1      10.969  11.943  20.098  0.00  0.00    +0.000 A 
ATOM     19  C   UNL     1      11.403  12.448  18.877  0.00  0.00    +0.000 A 
ATOM     20  F   UNL     1      12.333  13.410  18.854  0.00  0.00    +0.000 F 
ATOM     21  C   UNL     1      10.887  11.961  17.679  0.00  0.00    +0.000 A 
ATOM     22  C   UNL     1       9.935  10.936  17.699  0.00  0.00    +0.000 A 
ENDBRANCH  15  16
ENDBRANCH  12  14
ENDBRANCH   2  10
BRANCH   6  23
ATOM     23  C   UNL     1       1.816   3.393  20.762  0.00  0.00    +0.000 C 
ATOM     24  F   UNL     1       2.201   3.741  22.020  0.00  0.00    +0.000 F 
ATOM     25  F   UNL     1       0.679   4.108  20.508  0.00  0.00    +0.000 F 
ATOM     26  F   UNL     1       1.414   2.090  20.839  0.00  0.00    +0.000 F 
ENDBRANCH   6  23
BRANCH   1  27
ATOM     27  N   UNL     1       6.309   3.784  15.840  0.00  0.00    +0.000 N 
ATOM     28  H   UNL     1       5.718   3.413  15.098  0.00  0.00    +0.000 HD
ATOM     29  H   UNL     1       7.300   3.804  15.613  0.00  0.00    +0.000 HD
ENDBRANCH   1  27
TORSDOF 5
ENDMDL
MODEL 3
REMARK VINA RESULT:      -8.9      0.916      1.187
REMARK  Name = 
REMARK  5 active torsions:
REMARK  status: ('A' for Active; 'I' for Inactive)
REMARK    1  A    between atoms: N_1  and  C_2
REMARK    2  A    between atoms: C_3  and  C_4
REMARK    3  A    between atoms: N_6  and  N_7
REMARK    4  A    between atoms: C_8  and  C_9
REMARK    5  A    between atoms: C_19  and  C_20
REMARK                            x       y       z     vdW  Elec       q    Type
REMARK                         _______ _______ _______ _____ _____    ______ ____
ROOT
ATOM      1  C   UNL     1       5.790   4.852  17.168  0.00  0.00    +0.000 A 
ATOM      2  C   UNL     1       6.241   5.620  18.229  0.00  0.00    +0.000 A 
ATOM      3  O   UNL     1       5.325   5.534  19.256  0.00  0.00    +0.000 OA
ATOM      4  C   UNL     1       4.316   4.713  18.850  0.00  0.00    +0.000 A 
ATOM      5  N   UNL     1       3.259   4.412  19.625  0.00  0.00    +0.000 NA
ATOM      6  C   UNL     1       2.368   3.560  19.034  0.00  0.00    +0.000 A 
ATOM      7  C   UNL     1       2.524   3.038  17.743  0.00  0.00    +0.000 A 
ATOM      8  C   UNL     1       3.634   3.388  16.979  0.00  0.00    +0.000 A 
ATOM      9  C   UNL     1       4.563   4.263  17.560  0.00  0.00    +0.000 A 
ENDROOT
BRANCH   2  10
ATOM     10  C   UNL     1       7.429   6.438  18.432  0.00  0.00    +0.000 C 
ATOM     11  O   UNL     1       8.346   6.116  19.186  0.00  0.00    +0.000 OA
ATOM     12  N   UNL     1       7.404   7.622  17.688  0.00  0.00    +0.000 N 
ATOM     13  H   UNL     1       6.598   7.803  17.099  0.00  0.00    +0.000 HD
BRANCH  12  14
ATOM     14  N   UNL     1       8.421   8.533  17.760  0.00  0.00    +0.000 NA
ATOM     15  C   UNL     1       8.337   9.409  18.710  0.00  0.00    +0.000 C 
BRANCH  15  16
ATOM     16  C   UNL     1       9.370  10.457  18.900  0.00  0.00    +0.000 A 
ATOM     17  C   UNL     1      10.006  11.025  17.790  0.00  0.00    +0.000 A 
ATOM     18  C   UNL     1      10.938  12.051  17.968  0.00  0.00    +0.000 A 
ATOM     19  C   UNL     1      11.235  12.494  19.253  0.00  0.00    +0.000 A 
ATOM     20  F   UNL     1      12.113  13.490  19.420  0.00  0.00    +0.000 F 
ATOM     21  C   UNL     1      10.627  11.920  20.365  0.00  0.00    +0.000 A 
ATOM     22  C   UNL     1       9.687  10.898  20.192  0.00  0.00    +0.000 A 
ENDBRANCH  15  16
ENDBRANCH  12  14
ENDBRANCH   2  10
BRANCH   6  23
ATOM     23  C   UNL     1       1.123   3.135  19.807  0.00  0.00    +0.000 C 
ATOM     24  F   UNL     1       1.366   2.337  20.882  0.00  0.00    +0.000 F 
ATOM     25  F   UNL     1       0.425   4.207  20.289  0.00  0.00    +0.000 F 
ATOM     26  F   UNL     1       0.238   2.451  19.023  0.00  0.00    +0.000 F 
ENDBRANCH   6  23
BRANCH   1  27
ATOM     27  N   UNL     1       6.368   4.655  15.967  0.00  0.00    +0.000 N 
ATOM     28  H   UNL     1       7.329   4.328  15.875  0.00  0.00    +0.000 HD
ATOM     29  H   UNL     1       5.837   4.638  15.101  0.00  0.00    +0.000 HD
ENDBRANCH   1  27
TORSDOF 5
ENDMDL
MODEL 4
REMARK VINA RESULT:      -8.7      0.962      1.432
REMARK  Name = 
REMARK  5 active torsions:
REMARK  status: ('A' for Active; 'I' for Inactive)
REMARK    1  A    between atoms: N_1  and  C_2
REMARK    2  A    between atoms: C_3  and  C_4
REMARK    3  A    between atoms: N_6  and  N_7
REMARK    4  A    between atoms: C_8  and  C_9
REMARK    5  A    between atoms: C_19  and  C_20
REMARK                            x       y       z     vdW  Elec       q    Type
REMARK                         _______ _______ _______ _____ _____    ______ ____
ROOT
ATOM      1  C   UNL     1       5.898   4.708  17.129  0.00  0.00    +0.000 A 
ATOM      2  C   UNL     1       6.215   5.692  18.051  0.00  0.00    +0.000 A 
ATOM      3  O   UNL     1       5.234   5.721  19.019  0.00  0.00    +0.000 OA
ATOM      4  C   UNL     1       4.317   4.760  18.715  0.00  0.00    +0.000 A 
ATOM      5  N   UNL     1       3.228   4.521  19.469  0.00  0.00    +0.000 NA
ATOM      6  C   UNL     1       2.445   3.506  18.996  0.00  0.00    +0.000 A 
ATOM      7  C   UNL     1       2.731   2.770  17.839  0.00  0.00    +0.000 A 
ATOM      8  C   UNL     1       3.868   3.063  17.091  0.00  0.00    +0.000 A 
ATOM      9  C   UNL     1       4.689   4.102  17.551  0.00  0.00    +0.000 A 
ENDROOT
BRANCH   2  10
ATOM     10  C   UNL     1       7.326   6.627  18.166  0.00  0.00    +0.000 C 
ATOM     11  O   UNL     1       8.280   6.447  18.920  0.00  0.00    +0.000 OA
ATOM     12  N   UNL     1       7.180   7.745  17.339  0.00  0.00    +0.000 N 
ATOM     13  H   UNL     1       6.351   7.808  16.757  0.00  0.00    +0.000 HD
BRANCH  12  14
ATOM     14  N   UNL     1       8.109   8.748  17.321  0.00  0.00    +0.000 NA
ATOM     15  C   UNL     1       8.102   9.552  18.336  0.00  0.00    +0.000 C 
BRANCH  15  16
ATOM     16  C   UNL     1       9.054  10.684  18.443  0.00  0.00    +0.000 A 
ATOM     17  C   UNL     1      10.139  10.609  19.325  0.00  0.00    +0.000 A 
ATOM     18  C   UNL     1      11.066  11.651  19.384  0.00  0.00    +0.000 A 
ATOM     19  C   UNL     1      10.899  12.766  18.569  0.00  0.00    +0.000 A 
ATOM     20  F   UNL     1      11.799  13.756  18.612  0.00  0.00    +0.000 F 
ATOM     21  C   UNL     1       9.812  12.863  17.705  0.00  0.00    +0.000 A 
ATOM     22  C   UNL     1       8.884  11.818  17.637  0.00  0.00    +0.000 A 
ENDBRANCH  15  16
ENDBRANCH  12  14
ENDBRANCH   2  10
BRANCH   6  23
ATOM     23  C   UNL     1       1.178   3.130  19.761  0.00  0.00    +0.000 C 
ATOM     24  F   UNL     1       0.247   2.464  19.025  0.00  0.00    +0.000 F 
ATOM     25  F   UNL     1       1.444   2.332  20.838  0.00  0.00    +0.000 F 
ATOM     26  F   UNL     1       0.541   4.225  20.271  0.00  0.00    +0.000 F 
ENDBRANCH   6  23
BRANCH   1  27
ATOM     27  N   UNL     1       6.576   4.341  16.023  0.00  0.00    +0.000 N 
ATOM     28  H   UNL     1       6.209   4.497  15.085  0.00  0.00    +0.000 HD
ATOM     29  H   UNL     1       7.553   4.063  16.048  0.00  0.00    +0.000 HD
ENDBRANCH   1  27
TORSDOF 5
ENDMDL
MODEL 5
REMARK VINA RESULT:      -8.5      1.175      1.557
REMARK  Name = 
REMARK  5 active torsions:
REMARK  status: ('A' for Active; 'I' for Inactive)
REMARK    1  A    between atoms: N_1  and  C_2
REMARK    2  A    between atoms: C_3  and  C_4
REMARK    3  A    between atoms: N_6  and  N_7
REMARK    4  A    between atoms: C_8  and  C_9
REMARK    5  A    between atoms: C_19  and  C_20
REMARK                            x       y       z     vdW  Elec       q    Type
REMARK                         _______ _______ _______ _____ _____    ______ ____
ROOT
ATOM      1  C   UNL     1       5.553   5.478  16.873  0.00  0.00    +0.000 A 
ATOM      2  C   UNL     1       6.218   5.933  18.000  0.00  0.00    +0.000 A 
ATOM      3  O   UNL     1       5.559   5.470  19.118  0.00  0.00    +0.000 OA
ATOM      4  C   UNL     1       4.499   4.723  18.701  0.00  0.00    +0.000 A 
ATOM      5  N   UNL     1       3.649   4.117  19.550  0.00  0.00    +0.000 NA
ATOM      6  C   UNL     1       2.663   3.406  18.925  0.00  0.00    +0.000 A 
ATOM      7  C   UNL     1       2.532   3.304  17.534  0.00  0.00    +0.000 A 
ATOM      8  C   UNL     1       3.435   3.957  16.700  0.00  0.00    +0.000 A 
ATOM      9  C   UNL     1       4.457   4.697  17.313  0.00  0.00    +0.000 A 
ENDROOT
BRANCH   2  10
ATOM     10  C   UNL     1       7.408   6.753  18.191  0.00  0.00    +0.000 C 
ATOM     11  O   UNL     1       8.323   6.442  18.951  0.00  0.00    +0.000 OA
ATOM     12  N   UNL     1       7.385   7.924  17.428  0.00  0.00    +0.000 N 
ATOM     13  H   UNL     1       6.579   8.097  16.835  0.00  0.00    +0.000 HD
BRANCH  12  14
ATOM     14  N   UNL     1       8.403   8.835  17.485  0.00  0.00    +0.000 NA
ATOM     15  C   UNL     1       8.202   9.870  18.238  0.00  0.00    +0.000 C 
BRANCH  15  16
ATOM     16  C   UNL     1       9.222  10.936  18.389  0.00  0.00    +0.000 A 
ATOM     17  C   UNL     1      10.302  10.756  19.262  0.00  0.00    +0.000 A 
ATOM     18  C   UNL     1      11.291  11.737  19.361  0.00  0.00    +0.000 A 
ATOM     19  C   UNL     1      11.190  12.895  18.597  0.00  0.00    +0.000 A 
ATOM     20  F   UNL     1      12.149  13.825  18.678  0.00  0.00    +0.000 F 
ATOM     21  C   UNL     1      10.108  13.096  17.744  0.00  0.00    +0.000 A 
ATOM     22  C   UNL     1       9.118  12.113  17.635  0.00  0.00    +0.000 A 
ENDBRANCH  15  16
ENDBRANCH  12  14
ENDBRANCH   2  10
BRANCH   6  23
ATOM     23  C   UNL     1       1.632   2.666  19.774  0.00  0.00    +0.000 C 
ATOM     24  F   UNL     1       1.937   2.585  21.097  0.00  0.00    +0.000 F 
ATOM     25  F   UNL     1       0.398   3.250  19.710  0.00  0.00    +0.000 F 
ATOM     26  F   UNL     1       1.444   1.381  19.352  0.00  0.00    +0.000 F 
ENDBRANCH   6  23
BRANCH   1  27
ATOM     27  N   UNL     1       5.849   5.694  15.577  0.00  0.00    +0.000 N 
ATOM     28  H   UNL     1       5.147   6.000  14.904  0.00  0.00    +0.000 HD
ATOM     29  H   UNL     1       6.804   5.747  15.236  0.00  0.00    +0.000 HD
ENDBRANCH   1  27
TORSDOF 5
ENDMDL
MODEL 6
REMARK VINA RESULT:      -8.4      1.252      1.559
REMARK  Name = 
REMARK  5 active torsions:
REMARK  status: ('A' for Active; 'I' for Inactive)
REMARK    1  A    between atoms: N_1  and  C_2
REMARK    2  A    between atoms: C_3  and  C_4
REMARK    3  A    between atoms: N_6  and  N_7
REMARK    4  A    between atoms: C_8  and  C_9
REMARK    5  A    between atoms: C_19  and  C_20
REMARK                            x       y       z     vdW  Elec       q    Type
REMARK                         _______ _______ _______ _____ _____    ______ ____
ROOT
ATOM      1  C   UNL     1       6.509   4.720  18.190  0.00  0.00    +0.000 A 
ATOM      2  C   UNL     1       6.367   6.064  17.884  0.00  0.00    +0.000 A 
ATOM      3  O   UNL     1       5.122   6.482  18.305  0.00  0.00    +0.000 OA
ATOM      4  C   UNL     1       4.494   5.417  18.877  0.00  0.00    +0.000 A 
ATOM      5  N   UNL     1       3.256   5.490  19.399  0.00  0.00    +0.000 NA
ATOM      6  C   UNL     1       2.817   4.313  19.937  0.00  0.00    +0.000 A 
ATOM      7  C   UNL     1       3.569   3.131  19.954  0.00  0.00    +0.000 A 
ATOM      8  C   UNL     1       4.843   3.108  19.393  0.00  0.00    +0.000 A 
ATOM      9  C   UNL     1       5.319   4.301  18.832  0.00  0.00    +0.000 A 
ENDROOT
BRANCH   2  10
ATOM     10  C   UNL     1       7.242   7.039  17.247  0.00  0.00    +0.000 C 
ATOM     11  O   UNL     1       7.831   6.823  16.189  0.00  0.00    +0.000 OA
ATOM     12  N   UNL     1       7.344   8.230  17.972  0.00  0.00    +0.000 N 
ATOM     13  H   UNL     1       6.825   8.310  18.841  0.00  0.00    +0.000 HD
BRANCH  12  14
ATOM     14  N   UNL     1       8.136   9.260  17.548  0.00  0.00    +0.000 NA
ATOM     15  C   UNL     1       8.593  10.046  18.471  0.00  0.00    +0.000 C 
BRANCH  15  16
ATOM     16  C   UNL     1       9.462  11.205  18.151  0.00  0.00    +0.000 A 
ATOM     17  C   UNL     1       8.893  12.448  17.851  0.00  0.00    +0.000 A 
ATOM     18  C   UNL     1       9.713  13.552  17.605  0.00  0.00    +0.000 A 
ATOM     19  C   UNL     1      11.095  13.404  17.650  0.00  0.00    +0.000 A 
ATOM     20  F   UNL     1      11.880  14.467  17.433  0.00  0.00    +0.000 F 
ATOM     21  C   UNL     1      11.674  12.167  17.923  0.00  0.00    +0.000 A 
ATOM     22  C   UNL     1      10.856  11.060  18.178  0.00  0.00    +0.000 A 
ENDBRANCH  15  16
ENDBRANCH  12  14
ENDBRANCH   2  10
BRANCH   6  23
ATOM     23  C   UNL     1       1.427   4.258  20.566  0.00  0.00    +0.000 C 
ATOM     24  F   UNL     1       0.476   3.667  19.793  0.00  0.00    +0.000 F 
ATOM     25  F   UNL     1       1.423   3.576  21.750  0.00  0.00    +0.000 F 
ATOM     26  F   UNL     1       0.948   5.502  20.866  0.00  0.00    +0.000 F 
ENDBRANCH   6  23
BRANCH   1  27
ATOM     27  N   UNL     1       7.561   3.912  17.956  0.00  0.00    +0.000 N 
ATOM     28  H   UNL     1       8.484   4.276  17.721  0.00  0.00    +0.000 HD
ATOM     29  H   UNL     1       7.548   2.920  18.177  0.00  0.00    +0.000 HD
ENDBRANCH   1  27
TORSDOF 5
ENDMDL
MODEL 7
REMARK VINA RESULT:      -8.4      1.285      1.460
REMARK  Name = 
REMARK  5 active torsions:
REMARK  status: ('A' for Active; 'I' for Inactive)
REMARK    1  A    between atoms: N_1  and  C_2
REMARK    2  A    between atoms: C_3  and  C_4
REMARK    3  A    between atoms: N_6  and  N_7
REMARK    4  A    between atoms: C_8  and  C_9
REMARK    5  A    between atoms: C_19  and  C_20
REMARK                            x       y       z     vdW  Elec       q    Type
REMARK                         _______ _______ _______ _____ _____    ______ ____
ROOT
ATOM      1  C   UNL     1       6.152   4.766  18.305  0.00  0.00    +0.000 A 
ATOM      2  C   UNL     1       5.783   6.051  17.944  0.00  0.00    +0.000 A 
ATOM      3  O   UNL     1       4.452   6.231  18.252  0.00  0.00    +0.000 OA
ATOM      4  C   UNL     1       3.991   5.076  18.809  0.00  0.00    +0.000 A 
ATOM      5  N   UNL     1       2.722   4.921  19.230  0.00  0.00    +0.000 NA
ATOM      6  C   UNL     1       2.470   3.691  19.771  0.00  0.00    +0.000 A 
ATOM      7  C   UNL     1       3.428   2.676  19.887  0.00  0.00    +0.000 A 
ATOM      8  C   UNL     1       4.726   2.886  19.428  0.00  0.00    +0.000 A 
ATOM      9  C   UNL     1       5.012   4.138  18.866  0.00  0.00    +0.000 A 
ENDROOT
BRANCH   2  10
ATOM     10  C   UNL     1       6.509   7.164  17.345  0.00  0.00    +0.000 C 
ATOM     11  O   UNL     1       6.222   7.640  16.248  0.00  0.00    +0.000 OA
ATOM     12  N   UNL     1       7.562   7.616  18.145  0.00  0.00    +0.000 N 
ATOM     13  H   UNL     1       7.726   7.152  19.034  0.00  0.00    +0.000 HD
BRANCH  12  14
ATOM     14  N   UNL     1       8.376   8.640  17.746  0.00  0.00    +0.000 NA
ATOM     15  C   UNL     1       8.408   9.678  18.520  0.00  0.00    +0.000 C 
BRANCH  15  16
ATOM     16  C   UNL     1       9.246  10.861  18.206  0.00  0.00    +0.000 A 
ATOM     17  C   UNL     1      10.640  10.782  18.312  0.00  0.00    +0.000 A 
ATOM     18  C   UNL     1      11.431  11.879  17.962  0.00  0.00    +0.000 A 
ATOM     19  C   UNL     1      10.824  13.050  17.518  0.00  0.00    +0.000 A 
ATOM     20  F   UNL     1      11.585  14.093  17.164  0.00  0.00    +0.000 F 
ATOM     21  C   UNL     1       9.439  13.148  17.431  0.00  0.00    +0.000 A 
ATOM     22  C   UNL     1       8.642  12.049  17.773  0.00  0.00    +0.000 A 
ENDBRANCH  15  16
ENDBRANCH  12  14
ENDBRANCH   2  10
BRANCH   6  23
ATOM     23  C   UNL     1       1.068   3.384  20.291  0.00  0.00    +0.000 C 
ATOM     24  F   UNL     1       0.299   4.479  20.533  0.00  0.00    +0.000 F 
ATOM     25  F   UNL     1       0.354   2.610  19.420  0.00  0.00    +0.000 F 
ATOM     26  F   UNL     1       1.096   2.678  21.460  0.00  0.00    +0.000 F 
ENDBRANCH   6  23
BRANCH   1  27
ATOM     27  N   UNL     1       7.353   4.169  18.181  0.00  0.00    +0.000 N 
ATOM     28  H   UNL     1       8.198   4.557  18.599  0.00  0.00    +0.000 HD
ATOM     29  H   UNL     1       7.459   3.220  17.833  0.00  0.00    +0.000 HD
ENDBRANCH   1  27
TORSDOF 5
ENDMDL
MODEL 8
REMARK VINA RESULT:      -8.4      4.137      5.073
REMARK  Name = 
REMARK  5 active torsions:
REMARK  status: ('A' for Active; 'I' for Inactive)
REMARK    1  A    between atoms: N_1  and  C_2
REMARK    2  A    between atoms: C_3  and  C_4
REMARK    3  A    between atoms: N_6  and  N_7
REMARK    4  A    between atoms: C_8  and  C_9
REMARK    5  A    between atoms: C_19  and  C_20
REMARK                            x       y       z     vdW  Elec       q    Type
REMARK                         _______ _______ _______ _____ _____    ______ ____
ROOT
ATOM      1  C   UNL     1       6.487   4.948  17.606  0.00  0.00    +0.000 A 
ATOM      2  C   UNL     1       7.378   6.001  17.472  0.00  0.00    +0.000 A 
ATOM      3  O   UNL     1       7.716   6.125  16.141  0.00  0.00    +0.000 OA
ATOM      4  C   UNL     1       7.039   5.169  15.445  0.00  0.00    +0.000 A 
ATOM      5  N   UNL     1       7.142   5.022  14.112  0.00  0.00    +0.000 NA
ATOM      6  C   UNL     1       6.368   4.013  13.610  0.00  0.00    +0.000 A 
ATOM      7  C   UNL     1       5.539   3.199  14.392  0.00  0.00    +0.000 A 
ATOM      8  C   UNL     1       5.475   3.389  15.769  0.00  0.00    +0.000 A 
ATOM      9  C   UNL     1       6.260   4.416  16.313  0.00  0.00    +0.000 A 
ENDROOT
BRANCH   2  10
ATOM     10  C   UNL     1       7.969   6.931  18.424  0.00  0.00    +0.000 C 
ATOM     11  O   UNL     1       8.315   6.604  19.557  0.00  0.00    +0.000 OA
ATOM     12  N   UNL     1       8.089   8.227  17.911  0.00  0.00    +0.000 N 
ATOM     13  H   UNL     1       7.767   8.401  16.964  0.00  0.00    +0.000 HD
BRANCH  12  14
ATOM     14  N   UNL     1       8.602   9.249  18.660  0.00  0.00    +0.000 NA
ATOM     15  C   UNL     1       9.009  10.289  18.004  0.00  0.00    +0.000 C 
BRANCH  15  16
ATOM     16  C   UNL     1       9.589  11.468  18.692  0.00  0.00    +0.000 A 
ATOM     17  C   UNL     1      10.165  11.328  19.961  0.00  0.00    +0.000 A 
ATOM     18  C   UNL     1      10.761  12.428  20.583  0.00  0.00    +0.000 A 
ATOM     19  C   UNL     1      10.769  13.661  19.939  0.00  0.00    +0.000 A 
ATOM     20  F   UNL     1      11.358  14.708  20.528  0.00  0.00    +0.000 F 
ATOM     21  C   UNL     1      10.179  13.818  18.688  0.00  0.00    +0.000 A 
ATOM     22  C   UNL     1       9.587  12.717  18.057  0.00  0.00    +0.000 A 
ENDBRANCH  15  16
ENDBRANCH  12  14
ENDBRANCH   2  10
BRANCH   6  23
ATOM     23  C   UNL     1       6.390   3.741  12.108  0.00  0.00    +0.000 C 
ATOM     24  F   UNL     1       5.167   3.742  11.512  0.00  0.00    +0.000 F 
ATOM     25  F   UNL     1       7.138   4.661  11.428  0.00  0.00    +0.000 F 
ATOM     26  F   UNL     1       6.951   2.531  11.812  0.00  0.00    +0.000 F 
ENDBRANCH   6  23
BRANCH   1  27
ATOM     27  N   UNL     1       5.905   4.476  18.725  0.00  0.00    +0.000 N 
ATOM     28  H   UNL     1       5.322   5.062  19.322  0.00  0.00    +0.000 HD
ATOM     29  H   UNL     1       5.856   3.484  18.940  0.00  0.00    +0.000 HD
ENDBRANCH   1  27
TORSDOF 5
ENDMDL
MODEL 9
REMARK VINA RESULT:      -8.4      4.132      5.032
REMARK  Name = 
REMARK  5 active torsions:
REMARK  status: ('A' for Active; 'I' for Inactive)
REMARK    1  A    between atoms: N_1  and  C_2
REMARK    2  A    between atoms: C_3  and  C_4
REMARK    3  A    between atoms: N_6  and  N_7
REMARK    4  A    between atoms: C_8  and  C_9
REMARK    5  A    between atoms: C_19  and  C_20
REMARK                            x       y       z     vdW  Elec       q    Type
REMARK                         _______ _______ _______ _____ _____    ______ ____
ROOT
ATOM      1  C   UNL     1       6.175   5.250  17.473  0.00  0.00    +0.000 A 
ATOM      2  C   UNL     1       7.260   6.108  17.396  0.00  0.00    +0.000 A 
ATOM      3  O   UNL     1       7.754   6.079  16.109  0.00  0.00    +0.000 OA
ATOM      4  C   UNL     1       6.983   5.221  15.384  0.00  0.00    +0.000 A 
ATOM      5  N   UNL     1       7.196   4.969  14.079  0.00  0.00    +0.000 NA
ATOM      6  C   UNL     1       6.301   4.090  13.537  0.00  0.00    +0.000 A 
ATOM      7  C   UNL     1       5.253   3.498  14.254  0.00  0.00    +0.000 A 
ATOM      8  C   UNL     1       5.082   3.788  15.605  0.00  0.00    +0.000 A 
ATOM      9  C   UNL     1       5.987   4.685  16.188  0.00  0.00    +0.000 A 
ENDROOT
BRANCH   2  10
ATOM     10  C   UNL     1       7.916   6.974  18.367  0.00  0.00    +0.000 C 
ATOM     11  O   UNL     1       8.288   6.584  19.472  0.00  0.00    +0.000 OA
ATOM     12  N   UNL     1       8.063   8.287  17.908  0.00  0.00    +0.000 N 
ATOM     13  H   UNL     1       7.715   8.515  16.982  0.00  0.00    +0.000 HD
BRANCH  12  14
ATOM     14  N   UNL     1       8.636   9.256  18.683  0.00  0.00    +0.000 NA
ATOM     15  C   UNL     1       8.967  10.352  18.077  0.00  0.00    +0.000 C 
BRANCH  15  16
ATOM     16  C   UNL     1       9.599  11.484  18.797  0.00  0.00    +0.000 A 
ATOM     17  C   UNL     1       9.851  12.688  18.129  0.00  0.00    +0.000 A 
ATOM     18  C   UNL     1      10.395  13.772  18.823  0.00  0.00    +0.000 A 
ATOM     19  C   UNL     1      10.693  13.642  20.175  0.00  0.00    +0.000 A 
ATOM     20  F   UNL     1      11.195  14.688  20.843  0.00  0.00    +0.000 F 
ATOM     21  C   UNL     1      10.469  12.442  20.844  0.00  0.00    +0.000 A 
ATOM     22  C   UNL     1       9.918  11.356  20.156  0.00  0.00    +0.000 A 
ENDBRANCH  15  16
ENDBRANCH  12  14
ENDBRANCH   2  10
BRANCH   6  23
ATOM     23  C   UNL     1       6.428   3.719  12.062  0.00  0.00    +0.000 C 
ATOM     24  F   UNL     1       7.211   4.556  11.330  0.00  0.00    +0.000 F 
ATOM     25  F   UNL     1       6.953   2.469  11.888  0.00  0.00    +0.000 F 
ATOM     26  F   UNL     1       5.216   3.691  11.432  0.00  0.00    +0.000 F 
ENDBRANCH   6  23
BRANCH   1  27
ATOM     27  N   UNL     1       5.398   4.971  18.538  0.00  0.00    +0.000 N 
ATOM     28  H   UNL     1       5.789   4.684  19.434  0.00  0.00    +0.000 HD
ATOM     29  H   UNL     1       4.410   5.204  18.569  0.00  0.00    +0.000 HD
ENDBRANCH   1  27
TORSDOF 5
ENDMDL
