MODEL 1
REMARK VINA RESULT:      -7.4      0.000      0.000
REMARK  Name = 
REMARK  5 active torsions:
REMARK  status: ('A' for Active; 'I' for Inactive)
REMARK    1  A    between atoms: C_1  and  N_2
REMARK    2  A    between atoms: C_6  and  C_7
REMARK    3  A    between atoms: C_7  and  O_9
REMARK    4  A    between atoms: N_13  and  C_14
REMARK    5  A    between atoms: C_14  and  C_15
REMARK                            x       y       z     vdW  Elec       q    Type
REMARK                         _______ _______ _______ _____ _____    ______ ____
ROOT
ATOM      1  C   UNL     1       2.552   7.433  19.001  0.00  0.00    +0.000 C 
ATOM      2  N   UNL     1       2.400   6.062  19.462  0.00  0.00    +0.000 N 
ATOM      3  C   UNL     1       1.714   5.779  20.633  0.00  0.00    +0.000 C 
ATOM      4  O   UNL     1       1.063   6.562  21.304  0.00  0.00    +0.000 OA
ATOM      5  C   UNL     1       1.936   4.341  20.981  0.00  0.00    +0.000 C 
ATOM      6  C   UNL     1       2.493   3.729  19.695  0.00  0.00    +0.000 C 
ATOM      7  C   UNL     1       3.143   4.906  18.909  0.00  0.00    +0.000 C 
ATOM      8  C   UNL     1       2.854   4.765  17.398  0.00  0.00    +0.000 C 
ATOM      9  C   UNL     1       3.744   3.724  16.728  0.00  0.00    +0.000 C 
ATOM     10  N   UNL     1       5.177   3.995  16.887  0.00  0.00    +0.000 NA
ATOM     11  C   UNL     1       5.541   4.113  18.307  0.00  0.00    +0.000 C 
ATOM     12  C   UNL     1       4.668   5.085  19.118  0.00  0.00    +0.000 C 
ENDROOT
BRANCH   6  13
ATOM     13  C   UNL     1       3.393   2.576  20.043  0.00  0.00    +0.000 C 
ATOM     14  O   UNL     1       3.814   1.720  19.284  0.00  0.00    +0.000 OA
BRANCH  13  15
ATOM     15  O   UNL     1       3.698   2.536  21.353  0.00  0.00    +0.000 OA
ATOM     16  H   UNL     1       4.622   2.208  21.389  0.00  0.00    +0.000 HD
ENDBRANCH  13  15
ENDBRANCH   6  13
BRANCH  10  17
ATOM     17  C   UNL     1       5.665   5.150  16.116  0.00  0.00    +0.000 C 
BRANCH  17  18
ATOM     18  C   UNL     1       6.182   4.798  14.735  0.00  0.00    +0.000 A 
ATOM     19  C   UNL     1       7.388   5.347  14.271  0.00  0.00    +0.000 A 
ATOM     20  C   UNL     1       7.879   5.011  13.009  0.00  0.00    +0.000 A 
ATOM     21  C   UNL     1       7.168   4.123  12.207  0.00  0.00    +0.000 A 
ATOM     22  F   UNL     1       7.666   3.809  11.002  0.00  0.00    +0.000 F 
ATOM     23  C   UNL     1       5.967   3.572  12.649  0.00  0.00    +0.000 A 
ATOM     24 CL   UNL     1       5.093   2.469  11.659  0.00  0.00    +0.000 Cl
ATOM     25  C   UNL     1       5.471   3.911  13.908  0.00  0.00    +0.000 A 
ENDBRANCH  17  18
ENDBRANCH  10  17
TORSDOF 4
ENDMDL
MODEL 2
REMARK VINA RESULT:      -7.4      1.464      2.807
REMARK  Name = 
REMARK  5 active torsions:
REMARK  status: ('A' for Active; 'I' for Inactive)
REMARK    1  A    between atoms: C_1  and  N_2
REMARK    2  A    between atoms: C_6  and  C_7
REMARK    3  A    between atoms: C_7  and  O_9
REMARK    4  A    between atoms: N_13  and  C_14
REMARK    5  A    between atoms: C_14  and  C_15
REMARK                            x       y       z     vdW  Elec       q    Type
REMARK                         _______ _______ _______ _____ _____    ______ ____
ROOT
ATOM      1  C   UNL     1       4.774   1.764  20.203  0.00  0.00    +0.000 C 
ATOM      2  N   UNL     1       4.002   2.990  20.317  0.00  0.00    +0.000 N 
ATOM      3  C   UNL     1       2.928   3.074  21.190  0.00  0.00    +0.000 C 
ATOM      4  O   UNL     1       2.603   2.248  22.027  0.00  0.00    +0.000 OA
ATOM      5  C   UNL     1       2.182   4.341  20.911  0.00  0.00    +0.000 C 
ATOM      6  C   UNL     1       3.152   5.163  20.061  0.00  0.00    +0.000 C 
ATOM      7  C   UNL     1       4.101   4.133  19.380  0.00  0.00    +0.000 C 
ATOM      8  C   UNL     1       5.548   4.673  19.355  0.00  0.00    +0.000 C 
ATOM      9  C   UNL     1       5.765   5.713  18.261  0.00  0.00    +0.000 C 
ATOM     10  N   UNL     1       5.448   5.218  16.917  0.00  0.00    +0.000 NA
ATOM     11  C   UNL     1       4.069   4.712  16.849  0.00  0.00    +0.000 C 
ATOM     12  C   UNL     1       3.697   3.701  17.947  0.00  0.00    +0.000 C 
ENDROOT
BRANCH   6  13
ATOM     13  C   UNL     1       2.370   6.064  19.146  0.00  0.00    +0.000 C 
ATOM     14  O   UNL     1       2.657   7.202  18.819  0.00  0.00    +0.000 OA
BRANCH  13  15
ATOM     15  O   UNL     1       1.234   5.493  18.708  0.00  0.00    +0.000 OA
ATOM     16  H   UNL     1       0.518   5.927  19.219  0.00  0.00    +0.000 HD
ENDBRANCH  13  15
ENDBRANCH   6  13
BRANCH  10  17
ATOM     17  C   UNL     1       6.404   4.227  16.395  0.00  0.00    +0.000 C 
BRANCH  17  18
ATOM     18  C   UNL     1       6.643   4.327  14.901  0.00  0.00    +0.000 A 
ATOM     19  C   UNL     1       7.621   5.201  14.399  0.00  0.00    +0.000 A 
ATOM     20  C   UNL     1       7.858   5.282  13.026  0.00  0.00    +0.000 A 
ATOM     21  C   UNL     1       7.123   4.489  12.151  0.00  0.00    +0.000 A 
ATOM     22  F   UNL     1       7.377   4.579  10.837  0.00  0.00    +0.000 F 
ATOM     23  C   UNL     1       6.145   3.620  12.631  0.00  0.00    +0.000 A 
ATOM     24 CL   UNL     1       5.242   2.634  11.547  0.00  0.00    +0.000 Cl
ATOM     25  C   UNL     1       5.901   3.541  14.002  0.00  0.00    +0.000 A 
ENDBRANCH  17  18
ENDBRANCH  10  17
TORSDOF 4
ENDMDL
MODEL 3
REMARK VINA RESULT:      -6.8      1.154      1.643
REMARK  Name = 
REMARK  5 active torsions:
REMARK  status: ('A' for Active; 'I' for Inactive)
REMARK    1  A    between atoms: C_1  and  N_2
REMARK    2  A    between atoms: C_6  and  C_7
REMARK    3  A    between atoms: C_7  and  O_9
REMARK    4  A    between atoms: N_13  and  C_14
REMARK    5  A    between atoms: C_14  and  C_15
REMARK                            x       y       z     vdW  Elec       q    Type
REMARK                         _______ _______ _______ _____ _____    ______ ____
ROOT
ATOM      1  C   UNL     1       2.502   7.589  19.163  0.00  0.00    +0.000 C 
ATOM      2  N   UNL     1       2.243   6.228  19.603  0.00  0.00    +0.000 N 
ATOM      3  C   UNL     1       1.456   5.979  20.718  0.00  0.00    +0.000 C 
ATOM      4  O   UNL     1       0.800   6.796  21.343  0.00  0.00    +0.000 OA
ATOM      5  C   UNL     1       1.573   4.531  21.073  0.00  0.00    +0.000 C 
ATOM      6  C   UNL     1       2.191   3.893  19.828  0.00  0.00    +0.000 C 
ATOM      7  C   UNL     1       2.961   5.034  19.100  0.00  0.00    +0.000 C 
ATOM      8  C   UNL     1       2.778   4.912  17.571  0.00  0.00    +0.000 C 
ATOM      9  C   UNL     1       3.659   3.826  16.962  0.00  0.00    +0.000 C 
ATOM     10  N   UNL     1       5.087   4.018  17.230  0.00  0.00    +0.000 NA
ATOM     11  C   UNL     1       5.350   4.113  18.673  0.00  0.00    +0.000 C 
ATOM     12  C   UNL     1       4.473   5.130  19.423  0.00  0.00    +0.000 C 
ENDROOT
BRANCH   6  13
ATOM     13  C   UNL     1       2.999   2.691  20.235  0.00  0.00    +0.000 C 
ATOM     14  O   UNL     1       3.582   2.524  21.292  0.00  0.00    +0.000 OA
BRANCH  13  15
ATOM     15  O   UNL     1       3.060   1.759  19.267  0.00  0.00    +0.000 OA
ATOM     16  H   UNL     1       3.896   1.945  18.788  0.00  0.00    +0.000 HD
ENDBRANCH  13  15
ENDBRANCH   6  13
BRANCH  10  17
ATOM     17  C   UNL     1       5.694   5.147  16.504  0.00  0.00    +0.000 C 
BRANCH  17  18
ATOM     18  C   UNL     1       6.169   4.801  15.107  0.00  0.00    +0.000 A 
ATOM     19  C   UNL     1       5.497   3.825  14.353  0.00  0.00    +0.000 A 
ATOM     20  C   UNL     1       5.918   3.516  13.059  0.00  0.00    +0.000 A 
ATOM     21  C   UNL     1       7.011   4.183  12.513  0.00  0.00    +0.000 A 
ATOM     22  F   UNL     1       7.391   3.874  11.264  0.00  0.00    +0.000 F 
ATOM     23  C   UNL     1       7.693   5.150  13.247  0.00  0.00    +0.000 A 
ATOM     24 CL   UNL     1       9.040   5.978  12.568  0.00  0.00    +0.000 Cl
ATOM     25  C   UNL     1       7.278   5.456  14.544  0.00  0.00    +0.000 A 
ENDBRANCH  17  18
ENDBRANCH  10  17
TORSDOF 4
ENDMDL
MODEL 4
REMARK VINA RESULT:      -6.8      1.849      3.152
REMARK  Name = 
REMARK  5 active torsions:
REMARK  status: ('A' for Active; 'I' for Inactive)
REMARK    1  A    between atoms: C_1  and  N_2
REMARK    2  A    between atoms: C_6  and  C_7
REMARK    3  A    between atoms: C_7  and  O_9
REMARK    4  A    between atoms: N_13  and  C_14
REMARK    5  A    between atoms: C_14  and  C_15
REMARK                            x       y       z     vdW  Elec       q    Type
REMARK                         _______ _______ _______ _____ _____    ______ ____
ROOT
ATOM      1  C   UNL     1       4.459   1.771  20.234  0.00  0.00    +0.000 C 
ATOM      2  N   UNL     1       3.708   3.014  20.318  0.00  0.00    +0.000 N 
ATOM      3  C   UNL     1       2.598   3.118  21.142  0.00  0.00    +0.000 C 
ATOM      4  O   UNL     1       2.217   2.297  21.960  0.00  0.00    +0.000 OA
ATOM      5  C   UNL     1       1.894   4.402  20.835  0.00  0.00    +0.000 C 
ATOM      6  C   UNL     1       2.919   5.205  20.034  0.00  0.00    +0.000 C 
ATOM      7  C   UNL     1       3.875   4.157  19.392  0.00  0.00    +0.000 C 
ATOM      8  C   UNL     1       5.333   4.665  19.435  0.00  0.00    +0.000 C 
ATOM      9  C   UNL     1       5.622   5.704  18.356  0.00  0.00    +0.000 C 
ATOM     10  N   UNL     1       5.356   5.221  16.998  0.00  0.00    +0.000 NA
ATOM     11  C   UNL     1       3.971   4.746  16.865  0.00  0.00    +0.000 C 
ATOM     12  C   UNL     1       3.528   3.740  17.940  0.00  0.00    +0.000 C 
ENDROOT
BRANCH   6  13
ATOM     13  C   UNL     1       2.199   6.127  19.088  0.00  0.00    +0.000 C 
ATOM     14  O   UNL     1       1.322   5.825  18.297  0.00  0.00    +0.000 OA
BRANCH  13  15
ATOM     15  O   UNL     1       2.645   7.393  19.163  0.00  0.00    +0.000 OA
ATOM     16  H   UNL     1       2.081   7.898  18.538  0.00  0.00    +0.000 HD
ENDBRANCH  13  15
ENDBRANCH   6  13
BRANCH  10  17
ATOM     17  C   UNL     1       6.313   4.211  16.515  0.00  0.00    +0.000 C 
BRANCH  17  18
ATOM     18  C   UNL     1       6.592   4.286  15.027  0.00  0.00    +0.000 A 
ATOM     19  C   UNL     1       5.824   3.532  14.125  0.00  0.00    +0.000 A 
ATOM     20  C   UNL     1       6.064   3.612  12.753  0.00  0.00    +0.000 A 
ATOM     21  C   UNL     1       7.070   4.447  12.276  0.00  0.00    +0.000 A 
ATOM     22  F   UNL     1       7.275   4.513  10.952  0.00  0.00    +0.000 F 
ATOM     23  C   UNL     1       7.846   5.199  13.157  0.00  0.00    +0.000 A 
ATOM     24 CL   UNL     1       9.085   6.236  12.565  0.00  0.00    +0.000 Cl
ATOM     25  C   UNL     1       7.612   5.116  14.530  0.00  0.00    +0.000 A 
ENDBRANCH  17  18
ENDBRANCH  10  17
TORSDOF 4
ENDMDL
MODEL 5
REMARK VINA RESULT:      -6.7      1.756      2.666
REMARK  Name = 
REMARK  5 active torsions:
REMARK  status: ('A' for Active; 'I' for Inactive)
REMARK    1  A    between atoms: C_1  and  N_2
REMARK    2  A    between atoms: C_6  and  C_7
REMARK    3  A    between atoms: C_7  and  O_9
REMARK    4  A    between atoms: N_13  and  C_14
REMARK    5  A    between atoms: C_14  and  C_15
REMARK                            x       y       z     vdW  Elec       q    Type
REMARK                         _______ _______ _______ _____ _____    ______ ____
ROOT
ATOM      1  C   UNL     1       5.125   2.483  20.789  0.00  0.00    +0.000 C 
ATOM      2  N   UNL     1       3.760   2.866  20.468  0.00  0.00    +0.000 N 
ATOM      3  C   UNL     1       2.702   2.464  21.269  0.00  0.00    +0.000 C 
ATOM      4  O   UNL     1       2.779   1.907  22.352  0.00  0.00    +0.000 OA
ATOM      5  C   UNL     1       1.420   2.784  20.567  0.00  0.00    +0.000 C 
ATOM      6  C   UNL     1       1.836   3.758  19.464  0.00  0.00    +0.000 C 
ATOM      7  C   UNL     1       3.340   3.469  19.182  0.00  0.00    +0.000 C 
ATOM      8  C   UNL     1       4.103   4.791  18.942  0.00  0.00    +0.000 C 
ATOM      9  C   UNL     1       3.870   5.355  17.545  0.00  0.00    +0.000 C 
ATOM     10  N   UNL     1       4.239   4.424  16.474  0.00  0.00    +0.000 NA
ATOM     11  C   UNL     1       3.526   3.145  16.612  0.00  0.00    +0.000 C 
ATOM     12  C   UNL     1       3.623   2.501  18.006  0.00  0.00    +0.000 C 
ENDROOT
BRANCH   6  13
ATOM     13  C   UNL     1       0.895   3.619  18.298  0.00  0.00    +0.000 C 
ATOM     14  O   UNL     1       0.774   4.387  17.359  0.00  0.00    +0.000 OA
BRANCH  13  15
ATOM     15  O   UNL     1       0.120   2.524  18.389  0.00  0.00    +0.000 OA
ATOM     16  H   UNL     1       0.044   2.345  19.351  0.00  0.00    +0.000 HD
ENDBRANCH  13  15
ENDBRANCH   6  13
BRANCH  10  17
ATOM     17  C   UNL     1       5.688   4.211  16.326  0.00  0.00    +0.000 C 
BRANCH  17  18
ATOM     18  C   UNL     1       6.177   4.256  14.892  0.00  0.00    +0.000 A 
ATOM     19  C   UNL     1       7.278   5.056  14.546  0.00  0.00    +0.000 A 
ATOM     20  C   UNL     1       7.744   5.085  13.231  0.00  0.00    +0.000 A 
ATOM     21  C   UNL     1       7.114   4.315  12.258  0.00  0.00    +0.000 A 
ATOM     22  F   UNL     1       7.587   4.355  11.003  0.00  0.00    +0.000 F 
ATOM     23  C   UNL     1       6.017   3.520  12.582  0.00  0.00    +0.000 A 
ATOM     24 CL   UNL     1       5.243   2.563  11.380  0.00  0.00    +0.000 Cl
ATOM     25  C   UNL     1       5.545   3.493  13.895  0.00  0.00    +0.000 A 
ENDBRANCH  17  18
ENDBRANCH  10  17
TORSDOF 4
ENDMDL
MODEL 6
REMARK VINA RESULT:      -6.6      3.367      3.798
REMARK  Name = 
REMARK  5 active torsions:
REMARK  status: ('A' for Active; 'I' for Inactive)
REMARK    1  A    between atoms: C_1  and  N_2
REMARK    2  A    between atoms: C_6  and  C_7
REMARK    3  A    between atoms: C_7  and  O_9
REMARK    4  A    between atoms: N_13  and  C_14
REMARK    5  A    between atoms: C_14  and  C_15
REMARK                            x       y       z     vdW  Elec       q    Type
REMARK                         _______ _______ _______ _____ _____    ______ ____
ROOT
ATOM      1  C   UNL     1       2.954   7.852  18.210  0.00  0.00    +0.000 C 
ATOM      2  N   UNL     1       2.289   6.933  19.119  0.00  0.00    +0.000 N 
ATOM      3  C   UNL     1       1.611   7.402  20.234  0.00  0.00    +0.000 C 
ATOM      4  O   UNL     1       1.368   8.567  20.502  0.00  0.00    +0.000 OA
ATOM      5  C   UNL     1       1.254   6.237  21.102  0.00  0.00    +0.000 C 
ATOM      6  C   UNL     1       1.447   5.023  20.192  0.00  0.00    +0.000 C 
ATOM      7  C   UNL     1       2.472   5.463  19.105  0.00  0.00    +0.000 C 
ATOM      8  C   UNL     1       2.069   4.892  17.727  0.00  0.00    +0.000 C 
ATOM      9  C   UNL     1       2.427   3.417  17.578  0.00  0.00    +0.000 C 
ATOM     10  N   UNL     1       3.854   3.143  17.777  0.00  0.00    +0.000 NA
ATOM     11  C   UNL     1       4.311   3.630  19.087  0.00  0.00    +0.000 C 
ATOM     12  C   UNL     1       3.949   5.094  19.393  0.00  0.00    +0.000 C 
ENDROOT
BRANCH   6  13
ATOM     13  C   UNL     1       1.824   3.831  21.027  0.00  0.00    +0.000 C 
ATOM     14  O   UNL     1       2.481   3.834  22.055  0.00  0.00    +0.000 OA
BRANCH  13  15
ATOM     15  O   UNL     1       1.378   2.674  20.506  0.00  0.00    +0.000 OA
ATOM     16  H   UNL     1       0.481   2.554  20.884  0.00  0.00    +0.000 HD
ENDBRANCH  13  15
ENDBRANCH   6  13
BRANCH  10  17
ATOM     17  C   UNL     1       4.723   3.634  16.694  0.00  0.00    +0.000 C 
BRANCH  17  18
ATOM     18  C   UNL     1       5.669   4.741  17.115  0.00  0.00    +0.000 A 
ATOM     19  C   UNL     1       5.571   6.015  16.532  0.00  0.00    +0.000 A 
ATOM     20  C   UNL     1       6.427   7.042  16.930  0.00  0.00    +0.000 A 
ATOM     21  C   UNL     1       7.383   6.802  17.913  0.00  0.00    +0.000 A 
ATOM     22  F   UNL     1       8.187   7.809  18.284  0.00  0.00    +0.000 F 
ATOM     23  C   UNL     1       7.498   5.543  18.499  0.00  0.00    +0.000 A 
ATOM     24 CL   UNL     1       8.676   5.250  19.719  0.00  0.00    +0.000 Cl
ATOM     25  C   UNL     1       6.648   4.512  18.098  0.00  0.00    +0.000 A 
ENDBRANCH  17  18
ENDBRANCH  10  17
TORSDOF 4
ENDMDL
MODEL 7
REMARK VINA RESULT:      -6.5      2.017      3.296
REMARK  Name = 
REMARK  5 active torsions:
REMARK  status: ('A' for Active; 'I' for Inactive)
REMARK    1  A    between atoms: C_1  and  N_2
REMARK    2  A    between atoms: C_6  and  C_7
REMARK    3  A    between atoms: C_7  and  O_9
REMARK    4  A    between atoms: N_13  and  C_14
REMARK    5  A    between atoms: C_14  and  C_15
REMARK                            x       y       z     vdW  Elec       q    Type
REMARK                         _______ _______ _______ _____ _____    ______ ____
ROOT
ATOM      1  C   UNL     1       3.498   1.505  18.195  0.00  0.00    +0.000 C 
ATOM      2  N   UNL     1       2.918   2.741  18.695  0.00  0.00    +0.000 N 
ATOM      3  C   UNL     1       1.572   2.814  19.018  0.00  0.00    +0.000 C 
ATOM      4  O   UNL     1       0.783   1.884  19.070  0.00  0.00    +0.000 OA
ATOM      5  C   UNL     1       1.213   4.247  19.256  0.00  0.00    +0.000 C 
ATOM      6  C   UNL     1       2.564   4.944  19.420  0.00  0.00    +0.000 C 
ATOM      7  C   UNL     1       3.598   4.056  18.666  0.00  0.00    +0.000 C 
ATOM      8  C   UNL     1       4.922   3.985  19.459  0.00  0.00    +0.000 C 
ATOM      9  C   UNL     1       5.769   5.243  19.297  0.00  0.00    +0.000 C 
ATOM     10  N   UNL     1       6.098   5.546  17.901  0.00  0.00    +0.000 NA
ATOM     11  C   UNL     1       4.883   5.662  17.081  0.00  0.00    +0.000 C 
ATOM     12  C   UNL     1       3.904   4.482  17.208  0.00  0.00    +0.000 C 
ENDROOT
BRANCH   6  13
ATOM     13  C   UNL     1       2.445   6.372  18.963  0.00  0.00    +0.000 C 
ATOM     14  O   UNL     1       2.025   6.764  17.888  0.00  0.00    +0.000 OA
BRANCH  13  15
ATOM     15  O   UNL     1       2.895   7.247  19.880  0.00  0.00    +0.000 OA
ATOM     16  H   UNL     1       2.932   6.739  20.719  0.00  0.00    +0.000 HD
ENDBRANCH  13  15
ENDBRANCH   6  13
BRANCH  10  17
ATOM     17  C   UNL     1       7.064   4.617  17.290  0.00  0.00    +0.000 C 
BRANCH  17  18
ATOM     18  C   UNL     1       6.906   4.456  15.792  0.00  0.00    +0.000 A 
ATOM     19  C   UNL     1       5.974   3.542  15.273  0.00  0.00    +0.000 A 
ATOM     20  C   UNL     1       5.810   3.405  13.894  0.00  0.00    +0.000 A 
ATOM     21  C   UNL     1       6.575   4.182  13.028  0.00  0.00    +0.000 A 
ATOM     22  F   UNL     1       6.392   4.037  11.707  0.00  0.00    +0.000 F 
ATOM     23  C   UNL     1       7.507   5.090  13.524  0.00  0.00    +0.000 A 
ATOM     24 CL   UNL     1       8.447   6.054  12.453  0.00  0.00    +0.000 Cl
ATOM     25  C   UNL     1       7.678   5.225  14.903  0.00  0.00    +0.000 A 
ENDBRANCH  17  18
ENDBRANCH  10  17
TORSDOF 4
ENDMDL
MODEL 8
REMARK VINA RESULT:      -6.5      1.857      3.104
REMARK  Name = 
REMARK  5 active torsions:
REMARK  status: ('A' for Active; 'I' for Inactive)
REMARK    1  A    between atoms: C_1  and  N_2
REMARK    2  A    between atoms: C_6  and  C_7
REMARK    3  A    between atoms: C_7  and  O_9
REMARK    4  A    between atoms: N_13  and  C_14
REMARK    5  A    between atoms: C_14  and  C_15
REMARK                            x       y       z     vdW  Elec       q    Type
REMARK                         _______ _______ _______ _____ _____    ______ ____
ROOT
ATOM      1  C   UNL     1       2.658   1.699  19.255  0.00  0.00    +0.000 C 
ATOM      2  N   UNL     1       2.631   3.090  19.680  0.00  0.00    +0.000 N 
ATOM      3  C   UNL     1       1.671   3.541  20.572  0.00  0.00    +0.000 C 
ATOM      4  O   UNL     1       0.875   2.856  21.194  0.00  0.00    +0.000 OA
ATOM      5  C   UNL     1       1.731   5.035  20.625  0.00  0.00    +0.000 C 
ATOM      6  C   UNL     1       3.073   5.375  19.975  0.00  0.00    +0.000 C 
ATOM      7  C   UNL     1       3.413   4.175  19.043  0.00  0.00    +0.000 C 
ATOM      8  C   UNL     1       4.922   3.852  19.114  0.00  0.00    +0.000 C 
ATOM      9  C   UNL     1       5.767   4.825  18.298  0.00  0.00    +0.000 C 
ATOM     10  N   UNL     1       5.386   4.879  16.883  0.00  0.00    +0.000 NA
ATOM     11  C   UNL     1       3.963   5.214  16.728  0.00  0.00    +0.000 C 
ATOM     12  C   UNL     1       3.002   4.347  17.559  0.00  0.00    +0.000 C 
ENDROOT
BRANCH   6  13
ATOM     13  C   UNL     1       2.980   6.727  19.323  0.00  0.00    +0.000 C 
ATOM     14  O   UNL     1       3.831   7.271  18.640  0.00  0.00    +0.000 OA
BRANCH  13  15
ATOM     15  O   UNL     1       1.819   7.351  19.592  0.00  0.00    +0.000 OA
ATOM     16  H   UNL     1       1.992   7.869  20.407  0.00  0.00    +0.000 HD
ENDBRANCH  13  15
ENDBRANCH   6  13
BRANCH  10  17
ATOM     17  C   UNL     1       5.735   3.673  16.114  0.00  0.00    +0.000 C 
BRANCH  17  18
ATOM     18  C   UNL     1       6.209   3.955  14.703  0.00  0.00    +0.000 A 
ATOM     19  C   UNL     1       5.545   3.381  13.606  0.00  0.00    +0.000 A 
ATOM     20  C   UNL     1       5.965   3.653  12.304  0.00  0.00    +0.000 A 
ATOM     21  C   UNL     1       7.048   4.501  12.091  0.00  0.00    +0.000 A 
ATOM     22  F   UNL     1       7.426   4.754  10.830  0.00  0.00    +0.000 F 
ATOM     23  C   UNL     1       7.722   5.076  13.167  0.00  0.00    +0.000 A 
ATOM     24 CL   UNL     1       9.056   6.130  12.903  0.00  0.00    +0.000 Cl
ATOM     25  C   UNL     1       7.308   4.800  14.471  0.00  0.00    +0.000 A 
ENDBRANCH  17  18
ENDBRANCH  10  17
TORSDOF 4
ENDMDL
MODEL 9
REMARK VINA RESULT:      -6.5      5.860      8.582
REMARK  Name = 
REMARK  5 active torsions:
REMARK  status: ('A' for Active; 'I' for Inactive)
REMARK    1  A    between atoms: C_1  and  N_2
REMARK    2  A    between atoms: C_6  and  C_7
REMARK    3  A    between atoms: C_7  and  O_9
REMARK    4  A    between atoms: N_13  and  C_14
REMARK    5  A    between atoms: C_14  and  C_15
REMARK                            x       y       z     vdW  Elec       q    Type
REMARK                         _______ _______ _______ _____ _____    ______ ____
ROOT
ATOM      1  C   UNL     1       2.613  13.322  20.811  0.00  0.00    +0.000 C 
ATOM      2  N   UNL     1       1.468  13.389  19.918  0.00  0.00    +0.000 N 
ATOM      3  C   UNL     1       0.791  14.583  19.719  0.00  0.00    +0.000 C 
ATOM      4  O   UNL     1       1.129  15.687  20.114  0.00  0.00    +0.000 OA
ATOM      5  C   UNL     1      -0.470  14.299  18.966  0.00  0.00    +0.000 C 
ATOM      6  C   UNL     1      -0.262  12.888  18.414  0.00  0.00    +0.000 C 
ATOM      7  C   UNL     1       0.773  12.207  19.359  0.00  0.00    +0.000 C 
ATOM      8  C   UNL     1       1.762  11.349  18.539  0.00  0.00    +0.000 C 
ATOM      9  C   UNL     1       1.162  10.015  18.109  0.00  0.00    +0.000 C 
ATOM     10  N   UNL     1       0.687   9.202  19.234  0.00  0.00    +0.000 NA
ATOM     11  C   UNL     1      -0.288   9.940  20.049  0.00  0.00    +0.000 C 
ATOM     12  C   UNL     1       0.169  11.340  20.493  0.00  0.00    +0.000 C 
ENDROOT
BRANCH   6  13
ATOM     13  C   UNL     1      -1.596  12.207  18.276  0.00  0.00    +0.000 C 
ATOM     14  O   UNL     1      -2.528  12.256  19.059  0.00  0.00    +0.000 OA
BRANCH  13  15
ATOM     15  O   UNL     1      -1.681  11.461  17.159  0.00  0.00    +0.000 OA
ATOM     16  H   UNL     1      -2.634  11.460  16.927  0.00  0.00    +0.000 HD
ENDBRANCH  13  15
ENDBRANCH   6  13
BRANCH  10  17
ATOM     17  C   UNL     1       1.760   8.638  20.070  0.00  0.00    +0.000 C 
BRANCH  17  18
ATOM     18  C   UNL     1       2.127   7.209  19.724  0.00  0.00    +0.000 A 
ATOM     19  C   UNL     1       2.809   6.923  18.530  0.00  0.00    +0.000 A 
ATOM     20  C   UNL     1       3.166   5.611  18.216  0.00  0.00    +0.000 A 
ATOM     21  C   UNL     1       2.845   4.580  19.094  0.00  0.00    +0.000 A 
ATOM     22  F   UNL     1       3.208   3.329  18.774  0.00  0.00    +0.000 F 
ATOM     23  C   UNL     1       2.164   4.844  20.281  0.00  0.00    +0.000 A 
ATOM     24 CL   UNL     1       1.774   3.569  21.369  0.00  0.00    +0.000 Cl
ATOM     25  C   UNL     1       1.800   6.154  20.594  0.00  0.00    +0.000 A 
ENDBRANCH  17  18
ENDBRANCH  10  17
TORSDOF 4
ENDMDL
