MODEL 1
REMARK VINA RESULT:      -7.4      0.000      0.000
REMARK  Name = 
REMARK  5 active torsions:
REMARK  status: ('A' for Active; 'I' for Inactive)
REMARK    1  A    between atoms: C_1  and  C_2
REMARK    2  A    between atoms: C_6  and  C_7
REMARK    3  A    between atoms: C_12  and  C_13
REMARK    4  A    between atoms: N_15  and  C_16
REMARK    5  A    between atoms: N_24  and  C_25
REMARK                            x       y       z     vdW  Elec       q    Type
REMARK                         _______ _______ _______ _____ _____    ______ ____
ROOT
ATOM      1  C   UNL     1       0.443  13.926  19.692  0.00  0.00    +0.000 C 
ATOM      2  C   UNL     1       0.199  13.003  20.889  0.00  0.00    +0.000 C 
ATOM      3  C   UNL     1      -0.161  13.842  22.137  0.00  0.00    +0.000 C 
ATOM      4  O   UNL     1      -0.401  13.016  23.289  0.00  0.00    +0.000 OA
ATOM      5  C   UNL     1      -1.497  12.121  23.044  0.00  0.00    +0.000 C 
ATOM      6  C   UNL     1      -1.209  11.179  21.867  0.00  0.00    +0.000 C 
ATOM      7  C   UNL     1      -0.100  10.169  22.180  0.00  0.00    +0.000 C 
ATOM      8  N   UNL     1      -0.832  11.967  20.686  0.00  0.00    +0.000 N 
ATOM      9  C   UNL     1      -1.738  12.037  19.692  0.00  0.00    +0.000 A 
ATOM     10  N   UNL     1      -3.053  12.015  19.741  0.00  0.00    +0.000 NA
ATOM     11  C   UNL     1      -3.422  11.651  18.457  0.00  0.00    +0.000 A 
ATOM     12  C   UNL     1      -4.665  11.372  17.864  0.00  0.00    +0.000 A 
ATOM     13  C   UNL     1      -4.592  10.841  16.540  0.00  0.00    +0.000 A 
ATOM     14  C   UNL     1      -3.388  10.670  15.827  0.00  0.00    +0.000 A 
ATOM     15  C   UNL     1      -2.179  11.063  16.381  0.00  0.00    +0.000 A 
ATOM     16  C   UNL     1      -2.268  11.510  17.693  0.00  0.00    +0.000 A 
ATOM     17  O   UNL     1      -1.203  11.833  18.459  0.00  0.00    +0.000 OA
ENDROOT
BRANCH  12  18
ATOM     18  C   UNL     1      -6.006  11.657  18.467  0.00  0.00    +0.000 C 
ATOM     19  O   UNL     1      -6.912  11.950  17.686  0.00  0.00    +0.000 OA
ATOM     20  N   UNL     1      -6.214  11.687  19.861  0.00  0.00    +0.000 N 
ATOM     21  H   UNL     1      -5.386  11.513  20.425  0.00  0.00    +0.000 HD
BRANCH  20  22
ATOM     22  C   UNL     1      -7.247  12.647  20.406  0.00  0.00    +0.000 C 
ATOM     23  C   UNL     1      -7.916  12.370  21.846  0.00  0.00    +0.000 C 
ATOM     24  C   UNL     1      -7.000  13.027  22.864  0.00  0.00    +0.000 C 
ATOM     25  C   UNL     1      -6.497  12.815  24.263  0.00  0.00    +0.000 C 
ATOM     26  C   UNL     1      -4.958  12.826  24.002  0.00  0.00    +0.000 C 
ATOM     27  C   UNL     1      -4.497  13.820  22.820  0.00  0.00    +0.000 C 
ATOM     28  C   UNL     1      -5.505  14.352  21.604  0.00  0.00    +0.000 C 
ATOM     29  C   UNL     1      -6.577  14.067  20.410  0.00  0.00    +0.000 C 
ATOM     30  N   UNL     1      -6.651  14.377  22.474  0.00  0.00    +0.000 NA
ATOM     31  C   UNL     1      -6.909  15.622  23.167  0.00  0.00    +0.000 C 
ENDBRANCH  20  22
ENDBRANCH  12  18
TORSDOF 2
ENDMDL
MODEL 2
REMARK VINA RESULT:      -7.3      6.169      8.643
REMARK  Name = 
REMARK  5 active torsions:
REMARK  status: ('A' for Active; 'I' for Inactive)
REMARK    1  A    between atoms: C_1  and  C_2
REMARK    2  A    between atoms: C_6  and  C_7
REMARK    3  A    between atoms: C_12  and  C_13
REMARK    4  A    between atoms: N_15  and  C_16
REMARK    5  A    between atoms: N_24  and  C_25
REMARK                            x       y       z     vdW  Elec       q    Type
REMARK                         _______ _______ _______ _____ _____    ______ ____
ROOT
ATOM      1  C   UNL     1       4.561   3.404  16.968  0.00  0.00    +0.000 C 
ATOM      2  C   UNL     1       5.770   4.336  17.084  0.00  0.00    +0.000 C 
ATOM      3  C   UNL     1       6.257   4.746  15.676  0.00  0.00    +0.000 C 
ATOM      4  O   UNL     1       7.394   5.625  15.735  0.00  0.00    +0.000 OA
ATOM      5  C   UNL     1       7.059   6.830  16.440  0.00  0.00    +0.000 C 
ATOM      6  C   UNL     1       6.636   6.542  17.887  0.00  0.00    +0.000 C 
ATOM      7  C   UNL     1       7.799   6.038  18.750  0.00  0.00    +0.000 C 
ATOM      8  N   UNL     1       5.556   5.549  17.897  0.00  0.00    +0.000 N 
ATOM      9  C   UNL     1       4.324   5.998  18.210  0.00  0.00    +0.000 A 
ATOM     10  N   UNL     1       3.771   7.172  17.995  0.00  0.00    +0.000 NA
ATOM     11  C   UNL     1       2.731   7.216  18.908  0.00  0.00    +0.000 A 
ATOM     12  C   UNL     1       1.805   8.215  19.252  0.00  0.00    +0.000 A 
ATOM     13  C   UNL     1       1.002   7.919  20.397  0.00  0.00    +0.000 A 
ATOM     14  C   UNL     1       1.056   6.699  21.101  0.00  0.00    +0.000 A 
ATOM     15  C   UNL     1       1.890   5.676  20.675  0.00  0.00    +0.000 A 
ATOM     16  C   UNL     1       2.709   6.012  19.605  0.00  0.00    +0.000 A 
ATOM     17  O   UNL     1       3.673   5.208  19.105  0.00  0.00    +0.000 OA
ENDROOT
BRANCH  12  18
ATOM     18  C   UNL     1       1.556   9.478  18.489  0.00  0.00    +0.000 C 
ATOM     19  O   UNL     1       2.399   9.791  17.647  0.00  0.00    +0.000 OA
ATOM     20  N   UNL     1       0.467  10.328  18.775  0.00  0.00    +0.000 N 
ATOM     21  H   UNL     1      -0.126  10.025  19.542  0.00  0.00    +0.000 HD
BRANCH  20  22
ATOM     22  C   UNL     1       0.653  11.815  18.572  0.00  0.00    +0.000 C 
ATOM     23  C   UNL     1      -0.635  12.760  18.360  0.00  0.00    +0.000 C 
ATOM     24  C   UNL     1      -1.087  13.167  19.751  0.00  0.00    +0.000 C 
ATOM     25  C   UNL     1      -2.350  13.454  20.512  0.00  0.00    +0.000 C 
ATOM     26  C   UNL     1      -2.197  12.436  21.686  0.00  0.00    +0.000 C 
ATOM     27  C   UNL     1      -0.674  12.199  22.158  0.00  0.00    +0.000 C 
ATOM     28  C   UNL     1       0.656  12.501  21.201  0.00  0.00    +0.000 C 
ATOM     29  C   UNL     1       1.478  12.332  19.804  0.00  0.00    +0.000 C 
ATOM     30  N   UNL     1       0.023  13.624  20.560  0.00  0.00    +0.000 NA
ATOM     31  C   UNL     1       0.231  14.919  21.175  0.00  0.00    +0.000 C 
ENDBRANCH  20  22
ENDBRANCH  12  18
TORSDOF 2
ENDMDL
MODEL 3
REMARK VINA RESULT:      -6.9      1.518      1.810
REMARK  Name = 
REMARK  5 active torsions:
REMARK  status: ('A' for Active; 'I' for Inactive)
REMARK    1  A    between atoms: C_1  and  C_2
REMARK    2  A    between atoms: C_6  and  C_7
REMARK    3  A    between atoms: C_12  and  C_13
REMARK    4  A    between atoms: N_15  and  C_16
REMARK    5  A    between atoms: N_24  and  C_25
REMARK                            x       y       z     vdW  Elec       q    Type
REMARK                         _______ _______ _______ _____ _____    ______ ____
ROOT
ATOM      1  C   UNL     1       1.480  11.690  18.697  0.00  0.00    +0.000 C 
ATOM      2  C   UNL     1       1.063  10.795  19.868  0.00  0.00    +0.000 C 
ATOM      3  C   UNL     1       1.246  11.554  21.202  0.00  0.00    +0.000 C 
ATOM      4  O   UNL     1       0.865  10.751  22.333  0.00  0.00    +0.000 OA
ATOM      5  C   UNL     1      -0.519  10.378  22.238  0.00  0.00    +0.000 C 
ATOM      6  C   UNL     1      -0.797   9.544  20.980  0.00  0.00    +0.000 C 
ATOM      7  C   UNL     1      -0.146   8.158  21.038  0.00  0.00    +0.000 C 
ATOM      8  N   UNL     1      -0.311  10.262  19.795  0.00  0.00    +0.000 N 
ATOM      9  C   UNL     1      -1.246  10.789  18.982  0.00  0.00    +0.000 A 
ATOM     10  N   UNL     1      -2.441  11.265  19.261  0.00  0.00    +0.000 NA
ATOM     11  C   UNL     1      -3.102  11.224  18.045  0.00  0.00    +0.000 A 
ATOM     12  C   UNL     1      -4.424  11.512  17.668  0.00  0.00    +0.000 A 
ATOM     13  C   UNL     1      -4.756  11.154  16.325  0.00  0.00    +0.000 A 
ATOM     14  C   UNL     1      -3.832  10.622  15.402  0.00  0.00    +0.000 A 
ATOM     15  C   UNL     1      -2.501  10.456  15.754  0.00  0.00    +0.000 A 
ATOM     16  C   UNL     1      -2.219  10.745  17.083  0.00  0.00    +0.000 A 
ATOM     17  O   UNL     1      -1.016  10.544  17.664  0.00  0.00    +0.000 OA
ENDROOT
BRANCH  12  18
ATOM     18  C   UNL     1      -5.443  12.213  18.512  0.00  0.00    +0.000 C 
ATOM     19  O   UNL     1      -6.283  12.889  17.917  0.00  0.00    +0.000 OA
ATOM     20  N   UNL     1      -5.398  12.189  19.921  0.00  0.00    +0.000 N 
ATOM     21  H   UNL     1      -4.619  11.672  20.319  0.00  0.00    +0.000 HD
BRANCH  20  22
ATOM     22  C   UNL     1      -5.890  13.407  20.670  0.00  0.00    +0.000 C 
ATOM     23  C   UNL     1      -6.455  13.249  22.171  0.00  0.00    +0.000 C 
ATOM     24  C   UNL     1      -5.249  13.371  23.085  0.00  0.00    +0.000 C 
ATOM     25  C   UNL     1      -4.727  12.818  24.380  0.00  0.00    +0.000 C 
ATOM     26  C   UNL     1      -3.353  12.254  23.900  0.00  0.00    +0.000 C 
ATOM     27  C   UNL     1      -2.659  13.117  22.729  0.00  0.00    +0.000 C 
ATOM     28  C   UNL     1      -3.490  14.140  21.708  0.00  0.00    +0.000 C 
ATOM     29  C   UNL     1      -4.707  14.439  20.667  0.00  0.00    +0.000 C 
ATOM     30  N   UNL     1      -4.428  14.511  22.735  0.00  0.00    +0.000 NA
ATOM     31  C   UNL     1      -4.084  15.667  23.536  0.00  0.00    +0.000 C 
ENDBRANCH  20  22
ENDBRANCH  12  18
TORSDOF 2
ENDMDL
MODEL 4
REMARK VINA RESULT:      -6.7      2.122      6.246
REMARK  Name = 
REMARK  5 active torsions:
REMARK  status: ('A' for Active; 'I' for Inactive)
REMARK    1  A    between atoms: C_1  and  C_2
REMARK    2  A    between atoms: C_6  and  C_7
REMARK    3  A    between atoms: C_12  and  C_13
REMARK    4  A    between atoms: N_15  and  C_16
REMARK    5  A    between atoms: N_24  and  C_25
REMARK                            x       y       z     vdW  Elec       q    Type
REMARK                         _______ _______ _______ _____ _____    ______ ____
ROOT
ATOM      1  C   UNL     1      -5.444  12.700  24.569  0.00  0.00    +0.000 C 
ATOM      2  C   UNL     1      -5.609  14.115  24.009  0.00  0.00    +0.000 C 
ATOM      3  C   UNL     1      -4.330  14.941  24.277  0.00  0.00    +0.000 C 
ATOM      4  O   UNL     1      -4.438  16.281  23.767  0.00  0.00    +0.000 OA
ATOM      5  C   UNL     1      -4.644  16.260  22.347  0.00  0.00    +0.000 C 
ATOM      6  C   UNL     1      -5.941  15.530  21.971  0.00  0.00    +0.000 C 
ATOM      7  C   UNL     1      -7.195  16.291  22.416  0.00  0.00    +0.000 C 
ATOM      8  N   UNL     1      -5.945  14.191  22.574  0.00  0.00    +0.000 N 
ATOM      9  C   UNL     1      -5.767  13.150  21.737  0.00  0.00    +0.000 A 
ATOM     10  N   UNL     1      -5.078  13.071  20.619  0.00  0.00    +0.000 NA
ATOM     11  C   UNL     1      -5.620  11.970  19.978  0.00  0.00    +0.000 A 
ATOM     12  C   UNL     1      -5.395  11.393  18.717  0.00  0.00    +0.000 A 
ATOM     13  C   UNL     1      -6.312  10.358  18.358  0.00  0.00    +0.000 A 
ATOM     14  C   UNL     1      -7.328   9.877  19.211  0.00  0.00    +0.000 A 
ATOM     15  C   UNL     1      -7.460  10.375  20.499  0.00  0.00    +0.000 A 
ATOM     16  C   UNL     1      -6.604  11.426  20.798  0.00  0.00    +0.000 A 
ATOM     17  O   UNL     1      -6.640  12.131  21.951  0.00  0.00    +0.000 OA
ENDROOT
BRANCH  12  18
ATOM     18  C   UNL     1      -4.260  11.717  17.796  0.00  0.00    +0.000 C 
ATOM     19  O   UNL     1      -4.413  11.432  16.608  0.00  0.00    +0.000 OA
ATOM     20  N   UNL     1      -3.034  12.232  18.265  0.00  0.00    +0.000 N 
ATOM     21  H   UNL     1      -2.974  12.356  19.272  0.00  0.00    +0.000 HD
BRANCH  20  22
ATOM     22  C   UNL     1      -1.771  11.846  17.528  0.00  0.00    +0.000 C 
ATOM     23  C   UNL     1      -0.418  12.691  17.759  0.00  0.00    +0.000 C 
ATOM     24  C   UNL     1       0.272  12.054  18.951  0.00  0.00    +0.000 C 
ATOM     25  C   UNL     1       1.113  12.440  20.135  0.00  0.00    +0.000 C 
ATOM     26  C   UNL     1       0.242  11.852  21.289  0.00  0.00    +0.000 C 
ATOM     27  C   UNL     1      -0.532  10.492  20.903  0.00  0.00    +0.000 C 
ATOM     28  C   UNL     1      -0.880  10.029  19.341  0.00  0.00    +0.000 C 
ATOM     29  C   UNL     1      -1.503  10.336  17.866  0.00  0.00    +0.000 C 
ATOM     30  N   UNL     1       0.331  10.613  18.827  0.00  0.00    +0.000 NA
ATOM     31  C   UNL     1       1.491   9.749  18.772  0.00  0.00    +0.000 C 
ENDBRANCH  20  22
ENDBRANCH  12  18
TORSDOF 2
ENDMDL
MODEL 5
REMARK VINA RESULT:      -6.7      5.911      8.741
REMARK  Name = 
REMARK  5 active torsions:
REMARK  status: ('A' for Active; 'I' for Inactive)
REMARK    1  A    between atoms: C_1  and  C_2
REMARK    2  A    between atoms: C_6  and  C_7
REMARK    3  A    between atoms: C_12  and  C_13
REMARK    4  A    between atoms: N_15  and  C_16
REMARK    5  A    between atoms: N_24  and  C_25
REMARK                            x       y       z     vdW  Elec       q    Type
REMARK                         _______ _______ _______ _____ _____    ______ ____
ROOT
ATOM      1  C   UNL     1       3.503   3.467  17.049  0.00  0.00    +0.000 C 
ATOM      2  C   UNL     1       4.833   4.223  16.994  0.00  0.00    +0.000 C 
ATOM      3  C   UNL     1       5.219   4.506  15.525  0.00  0.00    +0.000 C 
ATOM      4  O   UNL     1       6.465   5.217  15.422  0.00  0.00    +0.000 OA
ATOM      5  C   UNL     1       6.374   6.483  16.093  0.00  0.00    +0.000 C 
ATOM      6  C   UNL     1       6.073   6.314  17.588  0.00  0.00    +0.000 C 
ATOM      7  C   UNL     1       7.241   5.685  18.356  0.00  0.00    +0.000 C 
ATOM      8  N   UNL     1       4.874   5.484  17.759  0.00  0.00    +0.000 N 
ATOM      9  C   UNL     1       3.756   6.114  18.170  0.00  0.00    +0.000 A 
ATOM     10  N   UNL     1       3.349   7.345  17.949  0.00  0.00    +0.000 NA
ATOM     11  C   UNL     1       2.427   7.571  18.958  0.00  0.00    +0.000 A 
ATOM     12  C   UNL     1       1.689   8.703  19.340  0.00  0.00    +0.000 A 
ATOM     13  C   UNL     1       0.979   8.569  20.573  0.00  0.00    +0.000 A 
ATOM     14  C   UNL     1       0.941   7.381  21.332  0.00  0.00    +0.000 A 
ATOM     15  C   UNL     1       1.578   6.235  20.879  0.00  0.00    +0.000 A 
ATOM     16  C   UNL     1       2.316   6.411  19.717  0.00  0.00    +0.000 A 
ATOM     17  O   UNL     1       3.103   5.459  19.166  0.00  0.00    +0.000 OA
ENDROOT
BRANCH  12  18
ATOM     18  C   UNL     1       1.533   9.959  18.539  0.00  0.00    +0.000 C 
ATOM     19  O   UNL     1       2.028   9.960  17.411  0.00  0.00    +0.000 OA
ATOM     20  N   UNL     1       0.941  11.122  19.071  0.00  0.00    +0.000 N 
ATOM     21  H   UNL     1       0.638  11.049  20.038  0.00  0.00    +0.000 HD
BRANCH  20  22
ATOM     22  C   UNL     1       1.451  12.463  18.593  0.00  0.00    +0.000 C 
ATOM     23  C   UNL     1       0.406  13.593  18.113  0.00  0.00    +0.000 C 
ATOM     24  C   UNL     1       0.022  14.363  19.364  0.00  0.00    +0.000 C 
ATOM     25  C   UNL     1      -1.166  15.058  19.967  0.00  0.00    +0.000 C 
ATOM     26  C   UNL     1      -1.266  14.296  21.325  0.00  0.00    +0.000 C 
ATOM     27  C   UNL     1       0.157  13.847  21.936  0.00  0.00    +0.000 C 
ATOM     28  C   UNL     1       1.543  13.662  21.030  0.00  0.00    +0.000 C 
ATOM     29  C   UNL     1       2.341  13.039  19.752  0.00  0.00    +0.000 C 
ATOM     30  N   UNL     1       1.185  14.735  20.140  0.00  0.00    +0.000 NA
ATOM     31  C   UNL     1       1.657  16.056  20.501  0.00  0.00    +0.000 C 
ENDBRANCH  20  22
ENDBRANCH  12  18
TORSDOF 2
ENDMDL
MODEL 6
REMARK VINA RESULT:      -6.7      7.271     11.231
REMARK  Name = 
REMARK  5 active torsions:
REMARK  status: ('A' for Active; 'I' for Inactive)
REMARK    1  A    between atoms: C_1  and  C_2
REMARK    2  A    between atoms: C_6  and  C_7
REMARK    3  A    between atoms: C_12  and  C_13
REMARK    4  A    between atoms: N_15  and  C_16
REMARK    5  A    between atoms: N_24  and  C_25
REMARK                            x       y       z     vdW  Elec       q    Type
REMARK                         _______ _______ _______ _____ _____    ______ ____
ROOT
ATOM      1  C   UNL     1       9.338  10.716  19.348  0.00  0.00    +0.000 C 
ATOM      2  C   UNL     1       9.905  12.121  19.128  0.00  0.00    +0.000 C 
ATOM      3  C   UNL     1       9.429  12.674  17.765  0.00  0.00    +0.000 C 
ATOM      4  O   UNL     1       9.937  13.996  17.514  0.00  0.00    +0.000 OA
ATOM      5  C   UNL     1       9.484  14.906  18.529  0.00  0.00    +0.000 C 
ATOM      6  C   UNL     1       9.974  14.493  19.923  0.00  0.00    +0.000 C 
ATOM      7  C   UNL     1      11.491  14.643  20.082  0.00  0.00    +0.000 C 
ATOM      8  N   UNL     1       9.592  13.100  20.187  0.00  0.00    +0.000 N 
ATOM      9  C   UNL     1       8.603  12.903  21.081  0.00  0.00    +0.000 A 
ATOM     10  N   UNL     1       7.562  13.653  21.370  0.00  0.00    +0.000 NA
ATOM     11  C   UNL     1       7.181  13.212  22.627  0.00  0.00    +0.000 A 
ATOM     12  C   UNL     1       6.199  13.645  23.533  0.00  0.00    +0.000 A 
ATOM     13  C   UNL     1       6.258  13.031  24.821  0.00  0.00    +0.000 A 
ATOM     14  C   UNL     1       7.171  12.012  25.165  0.00  0.00    +0.000 A 
ATOM     15  C   UNL     1       8.056  11.512  24.222  0.00  0.00    +0.000 A 
ATOM     16  C   UNL     1       8.026  12.172  23.001  0.00  0.00    +0.000 A 
ATOM     17  O   UNL     1       8.878  11.923  21.982  0.00  0.00    +0.000 OA
ENDROOT
BRANCH  12  18
ATOM     18  C   UNL     1       5.089  14.604  23.229  0.00  0.00    +0.000 C 
ATOM     19  O   UNL     1       4.621  15.228  24.183  0.00  0.00    +0.000 OA
ATOM     20  N   UNL     1       4.533  14.728  21.940  0.00  0.00    +0.000 N 
ATOM     21  H   UNL     1       4.931  14.111  21.237  0.00  0.00    +0.000 HD
BRANCH  20  22
ATOM     22  C   UNL     1       3.063  15.065  21.828  0.00  0.00    +0.000 C 
ATOM     23  C   UNL     1       2.604  16.391  21.036  0.00  0.00    +0.000 C 
ATOM     24  C   UNL     1       2.456  15.978  19.582  0.00  0.00    +0.000 C 
ATOM     25  C   UNL     1       2.662  16.535  18.202  0.00  0.00    +0.000 C 
ATOM     26  C   UNL     1       3.633  15.461  17.618  0.00  0.00    +0.000 C 
ATOM     27  C   UNL     1       3.362  13.966  18.159  0.00  0.00    +0.000 C 
ATOM     28  C   UNL     1       2.569  13.619  19.582  0.00  0.00    +0.000 C 
ATOM     29  C   UNL     1       2.367  13.812  21.188  0.00  0.00    +0.000 C 
ATOM     30  N   UNL     1       1.695  14.755  19.450  0.00  0.00    +0.000 NA
ATOM     31  C   UNL     1       0.445  14.529  18.755  0.00  0.00    +0.000 C 
ENDBRANCH  20  22
ENDBRANCH  12  18
TORSDOF 2
ENDMDL
MODEL 7
REMARK VINA RESULT:      -6.7      5.520      9.416
REMARK  Name = 
REMARK  5 active torsions:
REMARK  status: ('A' for Active; 'I' for Inactive)
REMARK    1  A    between atoms: C_1  and  C_2
REMARK    2  A    between atoms: C_6  and  C_7
REMARK    3  A    between atoms: C_12  and  C_13
REMARK    4  A    between atoms: N_15  and  C_16
REMARK    5  A    between atoms: N_24  and  C_25
REMARK                            x       y       z     vdW  Elec       q    Type
REMARK                         _______ _______ _______ _____ _____    ______ ____
ROOT
ATOM      1  C   UNL     1       2.349  14.518  22.025  0.00  0.00    +0.000 C 
ATOM      2  C   UNL     1       1.885  14.786  20.591  0.00  0.00    +0.000 C 
ATOM      3  C   UNL     1       3.078  15.263  19.731  0.00  0.00    +0.000 C 
ATOM      4  O   UNL     1       2.689  15.527  18.372  0.00  0.00    +0.000 OA
ATOM      5  C   UNL     1       2.169  14.337  17.760  0.00  0.00    +0.000 C 
ATOM      6  C   UNL     1       0.924  13.819  18.492  0.00  0.00    +0.000 C 
ATOM      7  C   UNL     1      -0.281  14.752  18.334  0.00  0.00    +0.000 C 
ATOM      8  N   UNL     1       1.225  13.650  19.919  0.00  0.00    +0.000 N 
ATOM      9  C   UNL     1       1.338  12.384  20.367  0.00  0.00    +0.000 A 
ATOM     10  N   UNL     1       1.758  11.301  19.750  0.00  0.00    +0.000 NA
ATOM     11  C   UNL     1       1.227  10.267  20.503  0.00  0.00    +0.000 A 
ATOM     12  C   UNL     1       1.231   8.872  20.345  0.00  0.00    +0.000 A 
ATOM     13  C   UNL     1       0.393   8.162  21.259  0.00  0.00    +0.000 A 
ATOM     14  C   UNL     1      -0.333   8.778  22.300  0.00  0.00    +0.000 A 
ATOM     15  C   UNL     1      -0.231  10.144  22.517  0.00  0.00    +0.000 A 
ATOM     16  C   UNL     1       0.532  10.819  21.575  0.00  0.00    +0.000 A 
ATOM     17  O   UNL     1       0.671  12.163  21.531  0.00  0.00    +0.000 OA
ENDROOT
BRANCH  12  18
ATOM     18  C   UNL     1       2.077   8.102  19.378  0.00  0.00    +0.000 C 
ATOM     19  O   UNL     1       2.182   8.567  18.242  0.00  0.00    +0.000 OA
ATOM     20  N   UNL     1       2.652   6.857  19.707  0.00  0.00    +0.000 N 
ATOM     21  H   UNL     1       2.440   6.517  20.641  0.00  0.00    +0.000 HD
BRANCH  20  22
ATOM     22  C   UNL     1       2.812   5.834  18.605  0.00  0.00    +0.000 C 
ATOM     23  C   UNL     1       3.966   4.715  18.714  0.00  0.00    +0.000 C 
ATOM     24  C   UNL     1       3.354   3.558  19.482  0.00  0.00    +0.000 C 
ATOM     25  C   UNL     1       3.744   2.505  20.481  0.00  0.00    +0.000 C 
ATOM     26  C   UNL     1       2.713   2.810  21.613  0.00  0.00    +0.000 C 
ATOM     27  C   UNL     1       1.282   3.324  21.079  0.00  0.00    +0.000 C 
ATOM     28  C   UNL     1       1.040   4.023  19.586  0.00  0.00    +0.000 C 
ATOM     29  C   UNL     1       1.418   5.127  18.449  0.00  0.00    +0.000 C 
ATOM     30  N   UNL     1       2.049   3.205  18.966  0.00  0.00    +0.000 NA
ATOM     31  C   UNL     1       1.601   1.951  18.397  0.00  0.00    +0.000 C 
ENDBRANCH  20  22
ENDBRANCH  12  18
TORSDOF 2
ENDMDL
MODEL 8
REMARK VINA RESULT:      -6.6      5.080      8.989
REMARK  Name = 
REMARK  5 active torsions:
REMARK  status: ('A' for Active; 'I' for Inactive)
REMARK    1  A    between atoms: C_1  and  C_2
REMARK    2  A    between atoms: C_6  and  C_7
REMARK    3  A    between atoms: C_12  and  C_13
REMARK    4  A    between atoms: N_15  and  C_16
REMARK    5  A    between atoms: N_24  and  C_25
REMARK                            x       y       z     vdW  Elec       q    Type
REMARK                         _______ _______ _______ _____ _____    ______ ____
ROOT
ATOM      1  C   UNL     1      -0.106  14.136  21.808  0.00  0.00    +0.000 C 
ATOM      2  C   UNL     1       1.050  14.738  21.006  0.00  0.00    +0.000 C 
ATOM      3  C   UNL     1       2.296  14.890  21.909  0.00  0.00    +0.000 C 
ATOM      4  O   UNL     1       3.411  15.453  21.197  0.00  0.00    +0.000 OA
ATOM      5  C   UNL     1       3.780  14.607  20.096  0.00  0.00    +0.000 C 
ATOM      6  C   UNL     1       2.633  14.454  19.088  0.00  0.00    +0.000 C 
ATOM      7  C   UNL     1       2.330  15.756  18.339  0.00  0.00    +0.000 C 
ATOM      8  N   UNL     1       1.422  14.000  19.784  0.00  0.00    +0.000 N 
ATOM      9  C   UNL     1       1.045  12.724  19.571  0.00  0.00    +0.000 A 
ATOM     10  N   UNL     1       1.772  11.657  19.318  0.00  0.00    +0.000 NA
ATOM     11  C   UNL     1       0.871  10.776  18.743  0.00  0.00    +0.000 A 
ATOM     12  C   UNL     1       1.015   9.499  18.176  0.00  0.00    +0.000 A 
ATOM     13  C   UNL     1      -0.149   9.003  17.512  0.00  0.00    +0.000 A 
ATOM     14  C   UNL     1      -1.384   9.683  17.478  0.00  0.00    +0.000 A 
ATOM     15  C   UNL     1      -1.543  10.888  18.145  0.00  0.00    +0.000 A 
ATOM     16  C   UNL     1      -0.381  11.382  18.722  0.00  0.00    +0.000 A 
ATOM     17  O   UNL     1      -0.285  12.589  19.322  0.00  0.00    +0.000 OA
ENDROOT
BRANCH  12  18
ATOM     18  C   UNL     1       2.226   8.624  18.283  0.00  0.00    +0.000 C 
ATOM     19  O   UNL     1       3.259   9.044  17.760  0.00  0.00    +0.000 OA
ATOM     20  N   UNL     1       2.177   7.341  18.864  0.00  0.00    +0.000 N 
ATOM     21  H   UNL     1       1.261   7.050  19.193  0.00  0.00    +0.000 HD
BRANCH  20  22
ATOM     22  C   UNL     1       3.098   6.275  18.313  0.00  0.00    +0.000 C 
ATOM     23  C   UNL     1       4.081   5.473  19.308  0.00  0.00    +0.000 C 
ATOM     24  C   UNL     1       3.279   4.291  19.822  0.00  0.00    +0.000 C 
ATOM     25  C   UNL     1       3.114   3.468  21.068  0.00  0.00    +0.000 C 
ATOM     26  C   UNL     1       1.580   3.638  21.304  0.00  0.00    +0.000 C 
ATOM     27  C   UNL     1       0.713   3.745  19.950  0.00  0.00    +0.000 C 
ATOM     28  C   UNL     1       1.338   4.211  18.478  0.00  0.00    +0.000 C 
ATOM     29  C   UNL     1       2.185   5.250  17.550  0.00  0.00    +0.000 C 
ATOM     30  N   UNL     1       2.610   3.592  18.746  0.00  0.00    +0.000 NA
ATOM     31  C   UNL     1       2.759   2.216  18.320  0.00  0.00    +0.000 C 
ENDBRANCH  20  22
ENDBRANCH  12  18
TORSDOF 2
ENDMDL
MODEL 9
REMARK VINA RESULT:      -6.6      2.331      6.552
REMARK  Name = 
REMARK  5 active torsions:
REMARK  status: ('A' for Active; 'I' for Inactive)
REMARK    1  A    between atoms: C_1  and  C_2
REMARK    2  A    between atoms: C_6  and  C_7
REMARK    3  A    between atoms: C_12  and  C_13
REMARK    4  A    between atoms: N_15  and  C_16
REMARK    5  A    between atoms: N_24  and  C_25
REMARK                            x       y       z     vdW  Elec       q    Type
REMARK                         _______ _______ _______ _____ _____    ______ ____
ROOT
ATOM      1  C   UNL     1      -5.454  13.047  23.760  0.00  0.00    +0.000 C 
ATOM      2  C   UNL     1      -4.496  14.240  23.699  0.00  0.00    +0.000 C 
ATOM      3  C   UNL     1      -3.449  14.135  24.831  0.00  0.00    +0.000 C 
ATOM      4  O   UNL     1      -2.525  15.237  24.813  0.00  0.00    +0.000 OA
ATOM      5  C   UNL     1      -1.808  15.267  23.569  0.00  0.00    +0.000 C 
ATOM      6  C   UNL     1      -2.752  15.452  22.374  0.00  0.00    +0.000 C 
ATOM      7  C   UNL     1      -3.401  16.840  22.346  0.00  0.00    +0.000 C 
ATOM      8  N   UNL     1      -3.801  14.424  22.410  0.00  0.00    +0.000 N 
ATOM      9  C   UNL     1      -3.719  13.444  21.489  0.00  0.00    +0.000 A 
ATOM     10  N   UNL     1      -2.664  12.903  20.919  0.00  0.00    +0.000 NA
ATOM     11  C   UNL     1      -3.175  12.322  19.770  0.00  0.00    +0.000 A 
ATOM     12  C   UNL     1      -2.573  11.659  18.689  0.00  0.00    +0.000 A 
ATOM     13  C   UNL     1      -3.449  11.373  17.597  0.00  0.00    +0.000 A 
ATOM     14  C   UNL     1      -4.832  11.653  17.605  0.00  0.00    +0.000 A 
ATOM     15  C   UNL     1      -5.433  12.199  18.729  0.00  0.00    +0.000 A 
ATOM     16  C   UNL     1      -4.550  12.531  19.747  0.00  0.00    +0.000 A 
ATOM     17  O   UNL     1      -4.906  13.176  20.881  0.00  0.00    +0.000 OA
ENDROOT
BRANCH  12  18
ATOM     18  C   UNL     1      -1.156  11.177  18.635  0.00  0.00    +0.000 C 
ATOM     19  O   UNL     1      -0.941  10.041  19.060  0.00  0.00    +0.000 OA
ATOM     20  N   UNL     1      -0.095  12.005  18.214  0.00  0.00    +0.000 N 
ATOM     21  H   UNL     1      -0.361  12.953  17.961  0.00  0.00    +0.000 HD
BRANCH  20  22
ATOM     22  C   UNL     1       1.262  11.801  18.848  0.00  0.00    +0.000 C 
ATOM     23  C   UNL     1       2.574  12.429  18.153  0.00  0.00    +0.000 C 
ATOM     24  C   UNL     1       2.704  13.838  18.704  0.00  0.00    +0.000 C 
ATOM     25  C   UNL     1       3.142  15.207  18.269  0.00  0.00    +0.000 C 
ATOM     26  C   UNL     1       1.846  16.019  18.585  0.00  0.00    +0.000 C 
ATOM     27  C   UNL     1       1.040  15.496  19.879  0.00  0.00    +0.000 C 
ATOM     28  C   UNL     1       1.174  13.956  20.501  0.00  0.00    +0.000 C 
ATOM     29  C   UNL     1       1.150  12.336  20.320  0.00  0.00    +0.000 C 
ATOM     30  N   UNL     1       2.565  13.861  20.145  0.00  0.00    +0.000 NA
ATOM     31  C   UNL     1       3.518  14.296  21.145  0.00  0.00    +0.000 C 
ENDBRANCH  20  22
ENDBRANCH  12  18
TORSDOF 2
ENDMDL
