MODEL 1
REMARK VINA RESULT:      -5.9      0.000      0.000
REMARK  Name = 
REMARK  2 active torsions:
REMARK  status: ('A' for Active; 'I' for Inactive)
REMARK    1  A    between atoms: C_1  and  N_2
REMARK    2  A    between atoms: C_9  and  N_10
REMARK                            x       y       z     vdW  Elec       q    Type
REMARK                         _______ _______ _______ _____ _____    ______ ____
ROOT
ATOM      1  C   UNL     1       5.418   4.353  17.915  0.00  0.00    +0.000 C 
ATOM      2  N   UNL     1       4.213   4.912  18.489  0.00  0.00    +0.000 N 
ATOM      3  C   UNL     1       3.841   6.219  18.294  0.00  0.00    +0.000 A 
ATOM      4  C   UNL     1       2.684   6.447  18.996  0.00  0.00    +0.000 A 
ATOM      5  C   UNL     1       2.328   5.234  19.640  0.00  0.00    +0.000 A 
ATOM      6  C   UNL     1       1.255   4.883  20.488  0.00  0.00    +0.000 A 
ATOM      7  C   UNL     1       1.154   3.587  20.996  0.00  0.00    +0.000 A 
ATOM      8  C   UNL     1       2.109   2.633  20.667  0.00  0.00    +0.000 A 
ATOM      9  C   UNL     1       3.187   2.957  19.819  0.00  0.00    +0.000 A 
ATOM     10  C   UNL     1       3.295   4.271  19.306  0.00  0.00    +0.000 A 
ENDROOT
BRANCH   9  11
ATOM     11  N   UNL     1       4.120   1.880  19.537  0.00  0.00    +0.000 N 
ATOM     12  O   UNL     1       5.097   1.767  20.286  0.00  0.00    +0.000 OA
ATOM     13  O   UNL     1       3.860   1.144  18.574  0.00  0.00    +0.000 OA
ENDBRANCH   9  11
TORSDOF 1
ENDMDL
MODEL 2
REMARK VINA RESULT:      -5.8      1.981      2.827
REMARK  Name = 
REMARK  2 active torsions:
REMARK  status: ('A' for Active; 'I' for Inactive)
REMARK    1  A    between atoms: C_1  and  N_2
REMARK    2  A    between atoms: C_9  and  N_10
REMARK                            x       y       z     vdW  Elec       q    Type
REMARK                         _______ _______ _______ _____ _____    ______ ____
ROOT
ATOM      1  C   UNL     1       3.591   1.701  18.748  0.00  0.00    +0.000 C 
ATOM      2  N   UNL     1       3.629   3.088  18.339  0.00  0.00    +0.000 N 
ATOM      3  C   UNL     1       4.276   3.504  17.201  0.00  0.00    +0.000 A 
ATOM      4  C   UNL     1       4.163   4.869  17.115  0.00  0.00    +0.000 A 
ATOM      5  C   UNL     1       3.416   5.308  18.237  0.00  0.00    +0.000 A 
ATOM      6  C   UNL     1       3.003   6.588  18.668  0.00  0.00    +0.000 A 
ATOM      7  C   UNL     1       2.264   6.731  19.844  0.00  0.00    +0.000 A 
ATOM      8  C   UNL     1       1.929   5.613  20.597  0.00  0.00    +0.000 A 
ATOM      9  C   UNL     1       2.325   4.325  20.186  0.00  0.00    +0.000 A 
ATOM     10  C   UNL     1       3.077   4.175  18.998  0.00  0.00    +0.000 A 
ENDROOT
BRANCH   9  11
ATOM     11  N   UNL     1       1.911   3.229  21.045  0.00  0.00    +0.000 N 
ATOM     12  O   UNL     1       2.623   2.977  22.024  0.00  0.00    +0.000 OA
ATOM     13  O   UNL     1       0.866   2.634  20.742  0.00  0.00    +0.000 OA
ENDBRANCH   9  11
TORSDOF 1
ENDMDL
MODEL 3
REMARK VINA RESULT:      -5.7      1.143      3.052
REMARK  Name = 
REMARK  2 active torsions:
REMARK  status: ('A' for Active; 'I' for Inactive)
REMARK    1  A    between atoms: C_1  and  N_2
REMARK    2  A    between atoms: C_9  and  N_10
REMARK                            x       y       z     vdW  Elec       q    Type
REMARK                         _______ _______ _______ _____ _____    ______ ____
ROOT
ATOM      1  C   UNL     1       2.067   3.553  21.448  0.00  0.00    +0.000 C 
ATOM      2  N   UNL     1       2.371   4.659  20.566  0.00  0.00    +0.000 N 
ATOM      3  C   UNL     1       1.819   5.906  20.728  0.00  0.00    +0.000 A 
ATOM      4  C   UNL     1       2.274   6.714  19.716  0.00  0.00    +0.000 A 
ATOM      5  C   UNL     1       3.141   5.938  18.906  0.00  0.00    +0.000 A 
ATOM      6  C   UNL     1       3.879   6.236  17.739  0.00  0.00    +0.000 A 
ATOM      7  C   UNL     1       4.664   5.254  17.133  0.00  0.00    +0.000 A 
ATOM      8  C   UNL     1       4.726   3.977  17.675  0.00  0.00    +0.000 A 
ATOM      9  C   UNL     1       4.002   3.655  18.840  0.00  0.00    +0.000 A 
ATOM     10  C   UNL     1       3.202   4.646  19.456  0.00  0.00    +0.000 A 
ENDROOT
BRANCH   9  11
ATOM     11  N   UNL     1       4.148   2.293  19.323  0.00  0.00    +0.000 N 
ATOM     12  O   UNL     1       3.475   1.420  18.763  0.00  0.00    +0.000 OA
ATOM     13  O   UNL     1       4.947   2.103  20.251  0.00  0.00    +0.000 OA
ENDBRANCH   9  11
TORSDOF 1
ENDMDL
MODEL 4
REMARK VINA RESULT:      -5.6      0.952      1.516
REMARK  Name = 
REMARK  2 active torsions:
REMARK  status: ('A' for Active; 'I' for Inactive)
REMARK    1  A    between atoms: C_1  and  N_2
REMARK    2  A    between atoms: C_9  and  N_10
REMARK                            x       y       z     vdW  Elec       q    Type
REMARK                         _______ _______ _______ _____ _____    ______ ____
ROOT
ATOM      1  C   UNL     1       5.399   4.119  16.955  0.00  0.00    +0.000 C 
ATOM      2  N   UNL     1       4.512   5.102  17.540  0.00  0.00    +0.000 N 
ATOM      3  C   UNL     1       4.416   6.386  17.063  0.00  0.00    +0.000 A 
ATOM      4  C   UNL     1       3.527   7.073  17.850  0.00  0.00    +0.000 A 
ATOM      5  C   UNL     1       3.054   6.178  18.844  0.00  0.00    +0.000 A 
ATOM      6  C   UNL     1       2.144   6.331  19.913  0.00  0.00    +0.000 A 
ATOM      7  C   UNL     1       1.864   5.257  20.758  0.00  0.00    +0.000 A 
ATOM      8  C   UNL     1       2.477   4.028  20.551  0.00  0.00    +0.000 A 
ATOM      9  C   UNL     1       3.386   3.848  19.489  0.00  0.00    +0.000 A 
ATOM     10  C   UNL     1       3.676   4.935  18.633  0.00  0.00    +0.000 A 
ENDROOT
BRANCH   9  11
ATOM     11  N   UNL     1       3.960   2.519  19.364  0.00  0.00    +0.000 N 
ATOM     12  O   UNL     1       3.421   1.742  18.568  0.00  0.00    +0.000 OA
ATOM     13  O   UNL     1       4.960   2.267  20.053  0.00  0.00    +0.000 OA
ENDBRANCH   9  11
TORSDOF 1
ENDMDL
MODEL 5
REMARK VINA RESULT:      -5.6      1.482      3.424
REMARK  Name = 
REMARK  2 active torsions:
REMARK  status: ('A' for Active; 'I' for Inactive)
REMARK    1  A    between atoms: C_1  and  N_2
REMARK    2  A    between atoms: C_9  and  N_10
REMARK                            x       y       z     vdW  Elec       q    Type
REMARK                         _______ _______ _______ _____ _____    ______ ____
ROOT
ATOM      1  C   UNL     1       2.201   4.970  20.248  0.00  0.00    +0.000 C 
ATOM      2  N   UNL     1       2.800   5.791  19.219  0.00  0.00    +0.000 N 
ATOM      3  C   UNL     1       2.483   7.118  19.056  0.00  0.00    +0.000 A 
ATOM      4  C   UNL     1       3.186   7.600  17.980  0.00  0.00    +0.000 A 
ATOM      5  C   UNL     1       3.967   6.534  17.466  0.00  0.00    +0.000 A 
ATOM      6  C   UNL     1       4.864   6.444  16.379  0.00  0.00    +0.000 A 
ATOM      7  C   UNL     1       5.505   5.238  16.092  0.00  0.00    +0.000 A 
ATOM      8  C   UNL     1       5.264   4.117  16.877  0.00  0.00    +0.000 A 
ATOM      9  C   UNL     1       4.377   4.181  17.969  0.00  0.00    +0.000 A 
ATOM     10  C   UNL     1       3.722   5.400  18.261  0.00  0.00    +0.000 A 
ENDROOT
BRANCH   9  11
ATOM     11  N   UNL     1       4.208   2.951  18.723  0.00  0.00    +0.000 N 
ATOM     12  O   UNL     1       4.907   2.805  19.732  0.00  0.00    +0.000 OA
ATOM     13  O   UNL     1       3.364   2.143  18.307  0.00  0.00    +0.000 OA
ENDBRANCH   9  11
TORSDOF 1
ENDMDL
MODEL 6
REMARK VINA RESULT:      -5.6      1.811      3.388
REMARK  Name = 
REMARK  2 active torsions:
REMARK  status: ('A' for Active; 'I' for Inactive)
REMARK    1  A    between atoms: C_1  and  N_2
REMARK    2  A    between atoms: C_9  and  N_10
REMARK                            x       y       z     vdW  Elec       q    Type
REMARK                         _______ _______ _______ _____ _____    ______ ____
ROOT
ATOM      1  C   UNL     1       4.160   2.600  19.920  0.00  0.00    +0.000 C 
ATOM      2  N   UNL     1       3.386   3.822  19.935  0.00  0.00    +0.000 N 
ATOM      3  C   UNL     1       2.309   4.003  20.767  0.00  0.00    +0.000 A 
ATOM      4  C   UNL     1       1.771   5.240  20.514  0.00  0.00    +0.000 A 
ATOM      5  C   UNL     1       2.550   5.845  19.494  0.00  0.00    +0.000 A 
ATOM      6  C   UNL     1       2.461   7.092  18.837  0.00  0.00    +0.000 A 
ATOM      7  C   UNL     1       3.381   7.430  17.843  0.00  0.00    +0.000 A 
ATOM      8  C   UNL     1       4.390   6.542  17.494  0.00  0.00    +0.000 A 
ATOM      9  C   UNL     1       4.502   5.293  18.137  0.00  0.00    +0.000 A 
ATOM     10  C   UNL     1       3.571   4.944  19.143  0.00  0.00    +0.000 A 
ENDROOT
BRANCH   9  11
ATOM     11  N   UNL     1       5.600   4.449  17.698  0.00  0.00    +0.000 N 
ATOM     12  O   UNL     1       6.605   4.408  18.417  0.00  0.00    +0.000 OA
ATOM     13  O   UNL     1       5.444   3.820  16.642  0.00  0.00    +0.000 OA
ENDBRANCH   9  11
TORSDOF 1
ENDMDL
MODEL 7
REMARK VINA RESULT:      -5.6      1.617      3.191
REMARK  Name = 
REMARK  2 active torsions:
REMARK  status: ('A' for Active; 'I' for Inactive)
REMARK    1  A    between atoms: C_1  and  N_2
REMARK    2  A    between atoms: C_9  and  N_10
REMARK                            x       y       z     vdW  Elec       q    Type
REMARK                         _______ _______ _______ _____ _____    ______ ____
ROOT
ATOM      1  C   UNL     1       4.480   1.808  19.937  0.00  0.00    +0.000 C 
ATOM      2  N   UNL     1       3.549   2.849  20.316  0.00  0.00    +0.000 N 
ATOM      3  C   UNL     1       2.600   2.670  21.292  0.00  0.00    +0.000 A 
ATOM      4  C   UNL     1       1.856   3.819  21.386  0.00  0.00    +0.000 A 
ATOM      5  C   UNL     1       2.369   4.740  20.438  0.00  0.00    +0.000 A 
ATOM      6  C   UNL     1       1.999   6.057  20.088  0.00  0.00    +0.000 A 
ATOM      7  C   UNL     1       2.693   6.742  19.089  0.00  0.00    +0.000 A 
ATOM      8  C   UNL     1       3.754   6.131  18.433  0.00  0.00    +0.000 A 
ATOM      9  C   UNL     1       4.145   4.819  18.766  0.00  0.00    +0.000 A 
ATOM     10  C   UNL     1       3.443   4.120  19.775  0.00  0.00    +0.000 A 
ENDROOT
BRANCH   9  11
ATOM     11  N   UNL     1       5.272   4.284  18.021  0.00  0.00    +0.000 N 
ATOM     12  O   UNL     1       6.383   4.337  18.560  0.00  0.00    +0.000 OA
ATOM     13  O   UNL     1       5.035   3.801  16.904  0.00  0.00    +0.000 OA
ENDBRANCH   9  11
TORSDOF 1
ENDMDL
MODEL 8
REMARK VINA RESULT:      -5.6      1.990      3.593
REMARK  Name = 
REMARK  2 active torsions:
REMARK  status: ('A' for Active; 'I' for Inactive)
REMARK    1  A    between atoms: C_1  and  N_2
REMARK    2  A    between atoms: C_9  and  N_10
REMARK                            x       y       z     vdW  Elec       q    Type
REMARK                         _______ _______ _______ _____ _____    ______ ____
ROOT
ATOM      1  C   UNL     1       4.547   2.401  20.024  0.00  0.00    +0.000 C 
ATOM      2  N   UNL     1       3.536   3.340  19.588  0.00  0.00    +0.000 N 
ATOM      3  C   UNL     1       2.192   3.086  19.709  0.00  0.00    +0.000 A 
ATOM      4  C   UNL     1       1.503   4.144  19.171  0.00  0.00    +0.000 A 
ATOM      5  C   UNL     1       2.457   5.086  18.709  0.00  0.00    +0.000 A 
ATOM      6  C   UNL     1       2.330   6.339  18.071  0.00  0.00    +0.000 A 
ATOM      7  C   UNL     1       3.468   7.065  17.713  0.00  0.00    +0.000 A 
ATOM      8  C   UNL     1       4.732   6.559  17.985  0.00  0.00    +0.000 A 
ATOM      9  C   UNL     1       4.886   5.313  18.624  0.00  0.00    +0.000 A 
ATOM     10  C   UNL     1       3.736   4.572  18.985  0.00  0.00    +0.000 A 
ENDROOT
BRANCH   9  11
ATOM     11  N   UNL     1       6.253   4.886  18.865  0.00  0.00    +0.000 N 
ATOM     12  O   UNL     1       6.795   4.201  17.991  0.00  0.00    +0.000 OA
ATOM     13  O   UNL     1       6.783   5.254  19.925  0.00  0.00    +0.000 OA
ENDBRANCH   9  11
TORSDOF 1
ENDMDL
MODEL 9
REMARK VINA RESULT:      -5.6      1.333      3.294
REMARK  Name = 
REMARK  2 active torsions:
REMARK  status: ('A' for Active; 'I' for Inactive)
REMARK    1  A    between atoms: C_1  and  N_2
REMARK    2  A    between atoms: C_9  and  N_10
REMARK                            x       y       z     vdW  Elec       q    Type
REMARK                         _______ _______ _______ _____ _____    ______ ____
ROOT
ATOM      1  C   UNL     1       2.179   4.629  20.758  0.00  0.00    +0.000 C 
ATOM      2  N   UNL     1       2.674   5.502  19.716  0.00  0.00    +0.000 N 
ATOM      3  C   UNL     1       2.301   6.820  19.618  0.00  0.00    +0.000 A 
ATOM      4  C   UNL     1       2.907   7.359  18.511  0.00  0.00    +0.000 A 
ATOM      5  C   UNL     1       3.686   6.337  17.910  0.00  0.00    +0.000 A 
ATOM      6  C   UNL     1       4.506   6.313  16.760  0.00  0.00    +0.000 A 
ATOM      7  C   UNL     1       5.165   5.140  16.391  0.00  0.00    +0.000 A 
ATOM      8  C   UNL     1       5.021   3.988  17.154  0.00  0.00    +0.000 A 
ATOM      9  C   UNL     1       4.212   3.988  18.308  0.00  0.00    +0.000 A 
ATOM     10  C   UNL     1       3.539   5.173  18.684  0.00  0.00    +0.000 A 
ENDROOT
BRANCH   9  11
ATOM     11  N   UNL     1       4.140   2.731  19.033  0.00  0.00    +0.000 N 
ATOM     12  O   UNL     1       3.281   1.918  18.673  0.00  0.00    +0.000 OA
ATOM     13  O   UNL     1       4.956   2.559  19.950  0.00  0.00    +0.000 OA
ENDBRANCH   9  11
TORSDOF 1
ENDMDL
