MODEL 1
REMARK VINA RESULT:      -7.5      0.000      0.000
REMARK  Name = 
REMARK  5 active torsions:
REMARK  status: ('A' for Active; 'I' for Inactive)
REMARK    1  A    between atoms: C_2  and  C_8
REMARK    2  A    between atoms: N_3  and  C_4
REMARK    3  A    between atoms: C_4  and  C_5
REMARK    4  A    between atoms: N_14  and  C_15
REMARK    5  A    between atoms: C_15  and  C_16
REMARK                            x       y       z     vdW  Elec       q    Type
REMARK                         _______ _______ _______ _____ _____    ______ ____
ROOT
ATOM      1  C   UNL     1       1.703   6.499  19.983  0.00  0.00    +0.000 C 
ATOM      2  N   UNL     1       1.361   5.464  20.680  0.00  0.00    +0.000 NA
ATOM      3  O   UNL     1       1.619   4.334  19.860  0.00  0.00    +0.000 OA
ATOM      4  C   UNL     1       2.459   4.753  18.763  0.00  0.00    +0.000 C 
ATOM      5  C   UNL     1       2.100   3.947  17.527  0.00  0.00    +0.000 C 
ATOM      6  C   UNL     1       2.909   2.677  17.729  0.00  0.00    +0.000 C 
ATOM      7  N   UNL     1       4.207   3.122  18.268  0.00  0.00    +0.000 NA
ATOM      8  C   UNL     1       3.917   4.350  19.054  0.00  0.00    +0.000 C 
ATOM      9  C   UNL     1       2.216   6.239  18.621  0.00  0.00    +0.000 C 
ENDROOT
BRANCH   1  11
ATOM     10  O   UNL     1       1.717   8.835  19.690  0.00  0.00    +0.000 OA
ATOM     11  C   UNL     1       1.543   7.914  20.471  0.00  0.00    +0.000 C 
ATOM     12  N   UNL     1       1.198   8.036  21.796  0.00  0.00    +0.000 N 
ATOM     13  H   UNL     1       1.156   7.191  22.361  0.00  0.00    +0.000 HD
BRANCH  12  14
ATOM     14  C   UNL     1       1.062   9.336  22.397  0.00  0.00    +0.000 C 
BRANCH  14  15
ATOM     15  C   UNL     1      -0.287   9.918  22.133  0.00  0.00    +0.000 C 
ATOM     16  C   UNL     1      -1.063  10.676  23.183  0.00  0.00    +0.000 C 
ATOM     17  C   UNL     1      -0.430  11.418  22.041  0.00  0.00    +0.000 C 
ENDBRANCH  14  15
ENDBRANCH  12  14
ENDBRANCH   1  11
BRANCH   7  18
ATOM     18  C   UNL     1       5.176   3.350  17.184  0.00  0.00    +0.000 C 
BRANCH  18  19
ATOM     19  C   UNL     1       5.891   4.683  17.281  0.00  0.00    +0.000 A 
ATOM     20  C   UNL     1       5.516   5.765  16.468  0.00  0.00    +0.000 A 
ATOM     21  C   UNL     1       6.171   6.998  16.575  0.00  0.00    +0.000 A 
ATOM     22  C   UNL     1       7.205   7.157  17.497  0.00  0.00    +0.000 A 
ATOM     23 CL   UNL     1       8.001   8.677  17.626  0.00  0.00    +0.000 Cl
ATOM     24  C   UNL     1       7.582   6.086  18.302  0.00  0.00    +0.000 A 
ATOM     25  F   UNL     1       8.577   6.215  19.193  0.00  0.00    +0.000 F 
ATOM     26  C   UNL     1       6.934   4.858  18.204  0.00  0.00    +0.000 A 
ENDBRANCH  18  19
ENDBRANCH   7  18
TORSDOF 5
ENDMDL
MODEL 2
REMARK VINA RESULT:      -7.5      4.884      8.361
REMARK  Name = 
REMARK  5 active torsions:
REMARK  status: ('A' for Active; 'I' for Inactive)
REMARK    1  A    between atoms: C_2  and  C_8
REMARK    2  A    between atoms: N_3  and  C_4
REMARK    3  A    between atoms: C_4  and  C_5
REMARK    4  A    between atoms: N_14  and  C_15
REMARK    5  A    between atoms: C_15  and  C_16
REMARK                            x       y       z     vdW  Elec       q    Type
REMARK                         _______ _______ _______ _____ _____    ______ ____
ROOT
ATOM      1  C   UNL     1       6.721   4.623  13.935  0.00  0.00    +0.000 C 
ATOM      2  N   UNL     1       7.835   5.281  13.968  0.00  0.00    +0.000 NA
ATOM      3  O   UNL     1       7.803   6.050  15.160  0.00  0.00    +0.000 OA
ATOM      4  C   UNL     1       6.745   5.540  16.001  0.00  0.00    +0.000 C 
ATOM      5  C   UNL     1       6.129   6.690  16.777  0.00  0.00    +0.000 C 
ATOM      6  C   UNL     1       7.075   6.820  17.959  0.00  0.00    +0.000 C 
ATOM      7  N   UNL     1       7.405   5.437  18.349  0.00  0.00    +0.000 NA
ATOM      8  C   UNL     1       7.352   4.641  17.094  0.00  0.00    +0.000 C 
ATOM      9  C   UNL     1       5.786   4.850  15.057  0.00  0.00    +0.000 C 
ENDROOT
BRANCH   1  11
ATOM     10  O   UNL     1       7.202   3.109  12.197  0.00  0.00    +0.000 OA
ATOM     11  C   UNL     1       6.331   3.715  12.799  0.00  0.00    +0.000 C 
ATOM     12  N   UNL     1       4.981   3.650  12.544  0.00  0.00    +0.000 N 
ATOM     13  H   UNL     1       4.364   4.264  13.071  0.00  0.00    +0.000 HD
BRANCH  12  14
ATOM     14  C   UNL     1       4.484   2.856  11.454  0.00  0.00    +0.000 C 
BRANCH  14  15
ATOM     15  C   UNL     1       3.201   3.404  10.922  0.00  0.00    +0.000 C 
ATOM     16  C   UNL     1       3.151   4.381   9.773  0.00  0.00    +0.000 C 
ATOM     17  C   UNL     1       2.724   2.957   9.561  0.00  0.00    +0.000 C 
ENDBRANCH  14  15
ENDBRANCH  12  14
ENDBRANCH   1  11
BRANCH   7  18
ATOM     18  C   UNL     1       6.476   4.946  19.379  0.00  0.00    +0.000 C 
BRANCH  18  19
ATOM     19  C   UNL     1       5.062   4.742  18.872  0.00  0.00    +0.000 A 
ATOM     20  C   UNL     1       4.118   5.781  18.925  0.00  0.00    +0.000 A 
ATOM     21  C   UNL     1       2.819   5.590  18.440  0.00  0.00    +0.000 A 
ATOM     22  C   UNL     1       2.455   4.357  17.899  0.00  0.00    +0.000 A 
ATOM     23 CL   UNL     1       0.858   4.132  17.299  0.00  0.00    +0.000 Cl
ATOM     24  C   UNL     1       3.386   3.324  17.848  0.00  0.00    +0.000 A 
ATOM     25  F   UNL     1       3.056   2.128  17.335  0.00  0.00    +0.000 F 
ATOM     26  C   UNL     1       4.680   3.508  18.325  0.00  0.00    +0.000 A 
ENDBRANCH  18  19
ENDBRANCH   7  18
TORSDOF 5
ENDMDL
MODEL 3
REMARK VINA RESULT:      -7.4      1.368      1.499
REMARK  Name = 
REMARK  5 active torsions:
REMARK  status: ('A' for Active; 'I' for Inactive)
REMARK    1  A    between atoms: C_2  and  C_8
REMARK    2  A    between atoms: N_3  and  C_4
REMARK    3  A    between atoms: C_4  and  C_5
REMARK    4  A    between atoms: N_14  and  C_15
REMARK    5  A    between atoms: C_15  and  C_16
REMARK                            x       y       z     vdW  Elec       q    Type
REMARK                         _______ _______ _______ _____ _____    ______ ____
ROOT
ATOM      1  C   UNL     1       1.630   6.719  20.113  0.00  0.00    +0.000 C 
ATOM      2  N   UNL     1       1.297   5.694  20.830  0.00  0.00    +0.000 NA
ATOM      3  O   UNL     1       1.527   4.554  20.019  0.00  0.00    +0.000 OA
ATOM      4  C   UNL     1       2.344   4.953  18.897  0.00  0.00    +0.000 C 
ATOM      5  C   UNL     1       1.949   4.135  17.679  0.00  0.00    +0.000 C 
ATOM      6  C   UNL     1       2.753   2.862  17.877  0.00  0.00    +0.000 C 
ATOM      7  N   UNL     1       4.067   3.303  18.379  0.00  0.00    +0.000 NA
ATOM      8  C   UNL     1       3.805   4.543  19.157  0.00  0.00    +0.000 C 
ATOM      9  C   UNL     1       2.108   6.439  18.743  0.00  0.00    +0.000 C 
ENDROOT
BRANCH   1  11
ATOM     10  O   UNL     1       1.590   8.381  21.780  0.00  0.00    +0.000 OA
ATOM     11  C   UNL     1       1.491   8.141  20.588  0.00  0.00    +0.000 C 
ATOM     12  N   UNL     1       1.261   9.065  19.596  0.00  0.00    +0.000 N 
ATOM     13  H   UNL     1       1.124   8.725  18.647  0.00  0.00    +0.000 HD
BRANCH  12  14
ATOM     14  C   UNL     1       1.062  10.451  19.924  0.00  0.00    +0.000 C 
BRANCH  14  15
ATOM     15  C   UNL     1       0.006  11.066  19.067  0.00  0.00    +0.000 C 
ATOM     16  C   UNL     1      -1.263  10.339  18.695  0.00  0.00    +0.000 C 
ATOM     17  C   UNL     1      -1.309  11.457  19.696  0.00  0.00    +0.000 C 
ENDBRANCH  14  15
ENDBRANCH  12  14
ENDBRANCH   1  11
BRANCH   7  18
ATOM     18  C   UNL     1       5.011   3.512  17.269  0.00  0.00    +0.000 C 
BRANCH  18  19
ATOM     19  C   UNL     1       5.778   4.816  17.363  0.00  0.00    +0.000 A 
ATOM     20  C   UNL     1       5.420   5.922  16.575  0.00  0.00    +0.000 A 
ATOM     21  C   UNL     1       6.122   7.128  16.678  0.00  0.00    +0.000 A 
ATOM     22  C   UNL     1       7.188   7.237  17.570  0.00  0.00    +0.000 A 
ATOM     23 CL   UNL     1       8.042   8.725  17.696  0.00  0.00    +0.000 Cl
ATOM     24  C   UNL     1       7.548   6.142  18.351  0.00  0.00    +0.000 A 
ATOM     25  F   UNL     1       8.572   6.222  19.214  0.00  0.00    +0.000 F 
ATOM     26  C   UNL     1       6.852   4.940  18.256  0.00  0.00    +0.000 A 
ENDBRANCH  18  19
ENDBRANCH   7  18
TORSDOF 5
ENDMDL
MODEL 4
REMARK VINA RESULT:      -7.3      4.051      8.341
REMARK  Name = 
REMARK  5 active torsions:
REMARK  status: ('A' for Active; 'I' for Inactive)
REMARK    1  A    between atoms: C_2  and  C_8
REMARK    2  A    between atoms: N_3  and  C_4
REMARK    3  A    between atoms: C_4  and  C_5
REMARK    4  A    between atoms: N_14  and  C_15
REMARK    5  A    between atoms: C_15  and  C_16
REMARK                            x       y       z     vdW  Elec       q    Type
REMARK                         _______ _______ _______ _____ _____    ______ ____
ROOT
ATOM      1  C   UNL     1       4.471   4.405  17.389  0.00  0.00    +0.000 C 
ATOM      2  N   UNL     1       3.321   3.894  17.087  0.00  0.00    +0.000 NA
ATOM      3  O   UNL     1       2.500   4.066  18.231  0.00  0.00    +0.000 OA
ATOM      4  C   UNL     1       3.137   5.022  19.106  0.00  0.00    +0.000 C 
ATOM      5  C   UNL     1       2.840   4.650  20.549  0.00  0.00    +0.000 C 
ATOM      6  C   UNL     1       1.476   5.282  20.766  0.00  0.00    +0.000 C 
ATOM      7  N   UNL     1       1.536   6.586  20.081  0.00  0.00    +0.000 NA
ATOM      8  C   UNL     1       2.465   6.397  18.935  0.00  0.00    +0.000 C 
ATOM      9  C   UNL     1       4.606   4.972  18.747  0.00  0.00    +0.000 C 
ENDROOT
BRANCH   1  11
ATOM     10  O   UNL     1       6.767   4.187  16.917  0.00  0.00    +0.000 OA
ATOM     11  C   UNL     1       5.654   4.387  16.458  0.00  0.00    +0.000 C 
ATOM     12  N   UNL     1       5.355   4.599  15.133  0.00  0.00    +0.000 N 
ATOM     13  H   UNL     1       4.395   4.829  14.890  0.00  0.00    +0.000 HD
BRANCH  12  14
ATOM     14  C   UNL     1       6.403   4.654  14.150  0.00  0.00    +0.000 C 
BRANCH  14  15
ATOM     15  C   UNL     1       6.359   3.471  13.241  0.00  0.00    +0.000 C 
ATOM     16  C   UNL     1       5.409   3.381  12.072  0.00  0.00    +0.000 C 
ATOM     17  C   UNL     1       6.872   3.614  11.829  0.00  0.00    +0.000 C 
ENDBRANCH  14  15
ENDBRANCH  12  14
ENDBRANCH   1  11
BRANCH   7  18
ATOM     18  C   UNL     1       1.974   7.645  21.005  0.00  0.00    +0.000 C 
BRANCH  18  19
ATOM     19  C   UNL     1       1.009   8.812  21.089  0.00  0.00    +0.000 A 
ATOM     20  C   UNL     1       0.691   9.570  19.950  0.00  0.00    +0.000 A 
ATOM     21  C   UNL     1      -0.212  10.635  20.031  0.00  0.00    +0.000 A 
ATOM     22  C   UNL     1      -0.804  10.951  21.254  0.00  0.00    +0.000 A 
ATOM     23 CL   UNL     1      -1.919  12.259  21.345  0.00  0.00    +0.000 Cl
ATOM     24  C   UNL     1      -0.490  10.205  22.386  0.00  0.00    +0.000 A 
ATOM     25  F   UNL     1      -1.045  10.493  23.573  0.00  0.00    +0.000 F 
ATOM     26  C   UNL     1       0.406   9.142  22.312  0.00  0.00    +0.000 A 
ENDBRANCH  18  19
ENDBRANCH   7  18
TORSDOF 5
ENDMDL
MODEL 5
REMARK VINA RESULT:      -7.2      5.340      7.196
REMARK  Name = 
REMARK  5 active torsions:
REMARK  status: ('A' for Active; 'I' for Inactive)
REMARK    1  A    between atoms: C_2  and  C_8
REMARK    2  A    between atoms: N_3  and  C_4
REMARK    3  A    between atoms: C_4  and  C_5
REMARK    4  A    between atoms: N_14  and  C_15
REMARK    5  A    between atoms: C_15  and  C_16
REMARK                            x       y       z     vdW  Elec       q    Type
REMARK                         _______ _______ _______ _____ _____    ______ ____
ROOT
ATOM      1  C   UNL     1       7.362   7.158  17.384  0.00  0.00    +0.000 C 
ATOM      2  N   UNL     1       6.573   7.706  16.517  0.00  0.00    +0.000 NA
ATOM      3  O   UNL     1       5.999   6.641  15.777  0.00  0.00    +0.000 OA
ATOM      4  C   UNL     1       6.239   5.410  16.494  0.00  0.00    +0.000 C 
ATOM      5  C   UNL     1       6.432   4.283  15.494  0.00  0.00    +0.000 C 
ATOM      6  C   UNL     1       4.998   3.884  15.185  0.00  0.00    +0.000 C 
ATOM      7  N   UNL     1       4.289   3.940  16.476  0.00  0.00    +0.000 NA
ATOM      8  C   UNL     1       4.964   5.009  17.259  0.00  0.00    +0.000 C 
ATOM      9  C   UNL     1       7.451   5.683  17.356  0.00  0.00    +0.000 C 
ENDROOT
BRANCH   1  11
ATOM     10  O   UNL     1       8.731   7.372  19.288  0.00  0.00    +0.000 OA
ATOM     11  C   UNL     1       8.211   7.946  18.346  0.00  0.00    +0.000 C 
ATOM     12  N   UNL     1       8.325   9.285  18.056  0.00  0.00    +0.000 N 
ATOM     13  H   UNL     1       7.779   9.657  17.282  0.00  0.00    +0.000 HD
BRANCH  12  14
ATOM     14  C   UNL     1       9.069  10.157  18.925  0.00  0.00    +0.000 C 
BRANCH  14  15
ATOM     15  C   UNL     1       9.755  11.236  18.155  0.00  0.00    +0.000 C 
ATOM     16  C   UNL     1      10.067  12.587  18.753  0.00  0.00    +0.000 C 
ATOM     17  C   UNL     1      11.175  11.601  18.516  0.00  0.00    +0.000 C 
ENDBRANCH  14  15
ENDBRANCH  12  14
ENDBRANCH   1  11
BRANCH   7  18
ATOM     18  C   UNL     1       4.317   2.632  17.149  0.00  0.00    +0.000 C 
BRANCH  18  19
ATOM     19  C   UNL     1       3.504   2.590  18.427  0.00  0.00    +0.000 A 
ATOM     20  C   UNL     1       4.133   2.523  19.681  0.00  0.00    +0.000 A 
ATOM     21  C   UNL     1       3.377   2.501  20.859  0.00  0.00    +0.000 A 
ATOM     22  C   UNL     1       1.984   2.547  20.790  0.00  0.00    +0.000 A 
ATOM     23 CL   UNL     1       1.062   2.527  22.242  0.00  0.00    +0.000 Cl
ATOM     24  C   UNL     1       1.357   2.611  19.549  0.00  0.00    +0.000 A 
ATOM     25  F   UNL     1       0.019   2.653  19.459  0.00  0.00    +0.000 F 
ATOM     26  C   UNL     1       2.103   2.636  18.375  0.00  0.00    +0.000 A 
ENDBRANCH  18  19
ENDBRANCH   7  18
TORSDOF 5
ENDMDL
MODEL 6
REMARK VINA RESULT:      -7.1      4.032      8.469
REMARK  Name = 
REMARK  5 active torsions:
REMARK  status: ('A' for Active; 'I' for Inactive)
REMARK    1  A    between atoms: C_2  and  C_8
REMARK    2  A    between atoms: N_3  and  C_4
REMARK    3  A    between atoms: C_4  and  C_5
REMARK    4  A    between atoms: N_14  and  C_15
REMARK    5  A    between atoms: C_15  and  C_16
REMARK                            x       y       z     vdW  Elec       q    Type
REMARK                         _______ _______ _______ _____ _____    ______ ____
ROOT
ATOM      1  C   UNL     1       4.393   4.813  17.576  0.00  0.00    +0.000 C 
ATOM      2  N   UNL     1       3.232   4.388  17.193  0.00  0.00    +0.000 NA
ATOM      3  O   UNL     1       2.359   4.580  18.294  0.00  0.00    +0.000 OA
ATOM      4  C   UNL     1       3.004   5.465  19.235  0.00  0.00    +0.000 C 
ATOM      5  C   UNL     1       2.600   5.070  20.645  0.00  0.00    +0.000 C 
ATOM      6  C   UNL     1       1.269   5.785  20.807  0.00  0.00    +0.000 C 
ATOM      7  N   UNL     1       1.453   7.102  20.171  0.00  0.00    +0.000 NA
ATOM      8  C   UNL     1       2.433   6.885  19.074  0.00  0.00    +0.000 C 
ATOM      9  C   UNL     1       4.485   5.328  18.958  0.00  0.00    +0.000 C 
ENDROOT
BRANCH   1  11
ATOM     10  O   UNL     1       6.712   4.576  17.243  0.00  0.00    +0.000 OA
ATOM     11  C   UNL     1       5.625   4.743  16.714  0.00  0.00    +0.000 C 
ATOM     12  N   UNL     1       5.398   4.876  15.364  0.00  0.00    +0.000 N 
ATOM     13  H   UNL     1       4.452   5.087  15.056  0.00  0.00    +0.000 HD
BRANCH  12  14
ATOM     14  C   UNL     1       6.498   4.876  14.438  0.00  0.00    +0.000 C 
BRANCH  14  15
ATOM     15  C   UNL     1       6.453   3.685  13.539  0.00  0.00    +0.000 C 
ATOM     16  C   UNL     1       5.381   3.497  12.494  0.00  0.00    +0.000 C 
ATOM     17  C   UNL     1       6.777   3.860  12.076  0.00  0.00    +0.000 C 
ENDBRANCH  14  15
ENDBRANCH  12  14
ENDBRANCH   1  11
BRANCH   7  18
ATOM     18  C   UNL     1       1.903   8.101  21.153  0.00  0.00    +0.000 C 
BRANCH  18  19
ATOM     19  C   UNL     1       0.843   9.127  21.502  0.00  0.00    +0.000 A 
ATOM     20  C   UNL     1       0.397   9.283  22.825  0.00  0.00    +0.000 A 
ATOM     21  C   UNL     1      -0.570  10.244  23.143  0.00  0.00    +0.000 A 
ATOM     22  C   UNL     1      -1.098  11.055  22.139  0.00  0.00    +0.000 A 
ATOM     23 CL   UNL     1      -2.282  12.238  22.538  0.00  0.00    +0.000 Cl
ATOM     24  C   UNL     1      -0.661  10.902  20.826  0.00  0.00    +0.000 A 
ATOM     25  F   UNL     1      -1.157  11.669  19.844  0.00  0.00    +0.000 F 
ATOM     26  C   UNL     1       0.303   9.951  20.504  0.00  0.00    +0.000 A 
ENDBRANCH  18  19
ENDBRANCH   7  18
TORSDOF 5
ENDMDL
MODEL 7
REMARK VINA RESULT:      -7.0      4.208      8.048
REMARK  Name = 
REMARK  5 active torsions:
REMARK  status: ('A' for Active; 'I' for Inactive)
REMARK    1  A    between atoms: C_2  and  C_8
REMARK    2  A    between atoms: N_3  and  C_4
REMARK    3  A    between atoms: C_4  and  C_5
REMARK    4  A    between atoms: N_14  and  C_15
REMARK    5  A    between atoms: C_15  and  C_16
REMARK                            x       y       z     vdW  Elec       q    Type
REMARK                         _______ _______ _______ _____ _____    ______ ____
ROOT
ATOM      1  C   UNL     1       6.703   4.713  15.240  0.00  0.00    +0.000 C 
ATOM      2  N   UNL     1       7.578   4.398  16.141  0.00  0.00    +0.000 NA
ATOM      3  O   UNL     1       7.029   4.808  17.383  0.00  0.00    +0.000 OA
ATOM      4  C   UNL     1       5.622   5.072  17.192  0.00  0.00    +0.000 C 
ATOM      5  C   UNL     1       5.202   6.212  18.104  0.00  0.00    +0.000 C 
ATOM      6  C   UNL     1       4.941   5.490  19.415  0.00  0.00    +0.000 C 
ATOM      7  N   UNL     1       4.267   4.233  19.042  0.00  0.00    +0.000 NA
ATOM      8  C   UNL     1       4.803   3.872  17.703  0.00  0.00    +0.000 C 
ATOM      9  C   UNL     1       5.472   5.376  15.718  0.00  0.00    +0.000 C 
ENDROOT
BRANCH   1  11
ATOM     10  O   UNL     1       7.577   5.301  13.134  0.00  0.00    +0.000 OA
ATOM     11  C   UNL     1       6.918   4.492  13.767  0.00  0.00    +0.000 C 
ATOM     12  N   UNL     1       6.333   3.356  13.258  0.00  0.00    +0.000 N 
ATOM     13  H   UNL     1       5.745   2.802  13.876  0.00  0.00    +0.000 HD
BRANCH  12  14
ATOM     14  C   UNL     1       6.423   3.057  11.855  0.00  0.00    +0.000 C 
BRANCH  14  15
ATOM     15  C   UNL     1       5.096   2.663  11.296  0.00  0.00    +0.000 C 
ATOM     16  C   UNL     1       3.798   3.243  11.802  0.00  0.00    +0.000 C 
ATOM     17  C   UNL     1       4.330   3.659  10.461  0.00  0.00    +0.000 C 
ENDBRANCH  14  15
ENDBRANCH  12  14
ENDBRANCH   1  11
BRANCH   7  18
ATOM     18  C   UNL     1       2.805   4.398  19.050  0.00  0.00    +0.000 C 
BRANCH  18  19
ATOM     19  C   UNL     1       2.358   5.831  19.263  0.00  0.00    +0.000 A 
ATOM     20  C   UNL     1       2.001   6.294  20.540  0.00  0.00    +0.000 A 
ATOM     21  C   UNL     1       1.605   7.622  20.732  0.00  0.00    +0.000 A 
ATOM     22  C   UNL     1       1.562   8.498  19.647  0.00  0.00    +0.000 A 
ATOM     23 CL   UNL     1       1.081  10.131  19.892  0.00  0.00    +0.000 Cl
ATOM     24  C   UNL     1       1.913   8.043  18.379  0.00  0.00    +0.000 A 
ATOM     25  F   UNL     1       1.876   8.866  17.320  0.00  0.00    +0.000 F 
ATOM     26  C   UNL     1       2.311   6.723  18.181  0.00  0.00    +0.000 A 
ENDBRANCH  18  19
ENDBRANCH   7  18
TORSDOF 5
ENDMDL
MODEL 8
REMARK VINA RESULT:      -6.9      1.188      1.646
REMARK  Name = 
REMARK  5 active torsions:
REMARK  status: ('A' for Active; 'I' for Inactive)
REMARK    1  A    between atoms: C_2  and  C_8
REMARK    2  A    between atoms: N_3  and  C_4
REMARK    3  A    between atoms: C_4  and  C_5
REMARK    4  A    between atoms: N_14  and  C_15
REMARK    5  A    between atoms: C_15  and  C_16
REMARK                            x       y       z     vdW  Elec       q    Type
REMARK                         _______ _______ _______ _____ _____    ______ ____
ROOT
ATOM      1  C   UNL     1       1.998   6.795  19.949  0.00  0.00    +0.000 C 
ATOM      2  N   UNL     1       1.751   5.691  20.576  0.00  0.00    +0.000 NA
ATOM      3  O   UNL     1       2.262   4.650  19.758  0.00  0.00    +0.000 OA
ATOM      4  C   UNL     1       3.134   5.238  18.769  0.00  0.00    +0.000 C 
ATOM      5  C   UNL     1       3.030   4.442  17.479  0.00  0.00    +0.000 C 
ATOM      6  C   UNL     1       4.001   3.301  17.732  0.00  0.00    +0.000 C 
ATOM      7  N   UNL     1       5.153   3.912  18.418  0.00  0.00    +0.000 NA
ATOM      8  C   UNL     1       4.599   5.046  19.203  0.00  0.00    +0.000 C 
ATOM      9  C   UNL     1       2.680   6.676  18.643  0.00  0.00    +0.000 C 
ENDROOT
BRANCH   1  11
ATOM     10  O   UNL     1       1.362   9.043  19.655  0.00  0.00    +0.000 OA
ATOM     11  C   UNL     1       1.572   8.147  20.456  0.00  0.00    +0.000 C 
ATOM     12  N   UNL     1       1.453   8.244  21.823  0.00  0.00    +0.000 N 
ATOM     13  H   UNL     1       1.731   7.444  22.386  0.00  0.00    +0.000 HD
BRANCH  12  14
ATOM     14  C   UNL     1       1.101   9.496  22.436  0.00  0.00    +0.000 C 
BRANCH  14  15
ATOM     15  C   UNL     1      -0.338   9.826  22.211  0.00  0.00    +0.000 C 
ATOM     16  C   UNL     1      -1.133  10.681  23.167  0.00  0.00    +0.000 C 
ATOM     17  C   UNL     1      -0.713  11.239  21.837  0.00  0.00    +0.000 C 
ENDBRANCH  14  15
ENDBRANCH  12  14
ENDBRANCH   1  11
BRANCH   7  18
ATOM     18  C   UNL     1       6.180   4.330  17.450  0.00  0.00    +0.000 C 
BRANCH  18  19
ATOM     19  C   UNL     1       6.909   5.598  17.851  0.00  0.00    +0.000 A 
ATOM     20  C   UNL     1       7.846   5.593  18.897  0.00  0.00    +0.000 A 
ATOM     21  C   UNL     1       8.527   6.763  19.251  0.00  0.00    +0.000 A 
ATOM     22  C   UNL     1       8.275   7.948  18.560  0.00  0.00    +0.000 A 
ATOM     23 CL   UNL     1       9.121   9.382  18.996  0.00  0.00    +0.000 Cl
ATOM     24  C   UNL     1       7.345   7.959  17.524  0.00  0.00    +0.000 A 
ATOM     25  F   UNL     1       7.084   9.088  16.848  0.00  0.00    +0.000 F 
ATOM     26  C   UNL     1       6.666   6.798  17.165  0.00  0.00    +0.000 A 
ENDBRANCH  18  19
ENDBRANCH   7  18
TORSDOF 5
ENDMDL
MODEL 9
REMARK VINA RESULT:      -6.9      3.584      7.875
REMARK  Name = 
REMARK  5 active torsions:
REMARK  status: ('A' for Active; 'I' for Inactive)
REMARK    1  A    between atoms: C_2  and  C_8
REMARK    2  A    between atoms: N_3  and  C_4
REMARK    3  A    between atoms: C_4  and  C_5
REMARK    4  A    between atoms: N_14  and  C_15
REMARK    5  A    between atoms: C_15  and  C_16
REMARK                            x       y       z     vdW  Elec       q    Type
REMARK                         _______ _______ _______ _____ _____    ______ ____
ROOT
ATOM      1  C   UNL     1       4.615   4.009  17.407  0.00  0.00    +0.000 C 
ATOM      2  N   UNL     1       3.562   3.303  17.147  0.00  0.00    +0.000 NA
ATOM      3  O   UNL     1       2.768   3.331  18.322  0.00  0.00    +0.000 OA
ATOM      4  C   UNL     1       3.260   4.386  19.177  0.00  0.00    +0.000 C 
ATOM      5  C   UNL     1       3.090   3.971  20.628  0.00  0.00    +0.000 C 
ATOM      6  C   UNL     1       1.645   4.355  20.900  0.00  0.00    +0.000 C 
ATOM      7  N   UNL     1       1.449   5.647  20.219  0.00  0.00    +0.000 NA
ATOM      8  C   UNL     1       2.351   5.621  19.038  0.00  0.00    +0.000 C 
ATOM      9  C   UNL     1       4.700   4.594  18.761  0.00  0.00    +0.000 C 
ENDROOT
BRANCH   1  11
ATOM     10  O   UNL     1       6.892   4.221  16.849  0.00  0.00    +0.000 OA
ATOM     11  C   UNL     1       5.746   4.196  16.431  0.00  0.00    +0.000 C 
ATOM     12  N   UNL     1       5.365   4.321  15.116  0.00  0.00    +0.000 N 
ATOM     13  H   UNL     1       4.370   4.360  14.907  0.00  0.00    +0.000 HD
BRANCH  12  14
ATOM     14  C   UNL     1       6.348   4.553  14.093  0.00  0.00    +0.000 C 
BRANCH  14  15
ATOM     15  C   UNL     1       6.402   3.420  13.123  0.00  0.00    +0.000 C 
ATOM     16  C   UNL     1       5.450   3.305  11.956  0.00  0.00    +0.000 C 
ATOM     17  C   UNL     1       6.884   3.684  11.717  0.00  0.00    +0.000 C 
ENDBRANCH  14  15
ENDBRANCH  12  14
ENDBRANCH   1  11
BRANCH   7  18
ATOM     18  C   UNL     1       1.728   6.769  21.130  0.00  0.00    +0.000 C 
BRANCH  18  19
ATOM     19  C   UNL     1       1.174   8.095  20.646  0.00  0.00    +0.000 A 
ATOM     20  C   UNL     1       0.199   8.783  21.387  0.00  0.00    +0.000 A 
ATOM     21  C   UNL     1      -0.296  10.014  20.943  0.00  0.00    +0.000 A 
ATOM     22  C   UNL     1       0.180  10.566  19.753  0.00  0.00    +0.000 A 
ATOM     23 CL   UNL     1      -0.430  12.083  19.217  0.00  0.00    +0.000 Cl
ATOM     24  C   UNL     1       1.144   9.886  19.015  0.00  0.00    +0.000 A 
ATOM     25  F   UNL     1       1.614  10.395  17.866  0.00  0.00    +0.000 F 
ATOM     26  C   UNL     1       1.643   8.662  19.452  0.00  0.00    +0.000 A 
ENDBRANCH  18  19
ENDBRANCH   7  18
TORSDOF 5
ENDMDL
