MODEL 1
REMARK VINA RESULT:      -7.6      0.000      0.000
REMARK  Name = 
REMARK  6 active torsions:
REMARK  status: ('A' for Active; 'I' for Inactive)
REMARK    1  A    between atoms: C_1  and  C_2
REMARK    2  A    between atoms: C_2  and  C_3
REMARK    3  A    between atoms: C_2  and  C_4
REMARK    4  A    between atoms: N_15  and  C_16
REMARK    5  A    between atoms: C_16  and  C_17
REMARK    6  A    between atoms: C_16  and  C_18
REMARK                            x       y       z     vdW  Elec       q    Type
REMARK                         _______ _______ _______ _____ _____    ______ ____
ROOT
ATOM      1  C   UNL     1      -0.337  11.621  18.459  0.00  0.00    +0.000 C 
ATOM      2  C   UNL     1      -0.473  13.139  18.478  0.00  0.00    +0.000 C 
ATOM      3  O   UNL     1       0.504  13.613  19.409  0.00  0.00    +0.000 OA
ATOM      4  C   UNL     1       0.952  12.555  20.153  0.00  0.00    +0.000 C 
ATOM      5  O   UNL     1       1.713  12.685  21.094  0.00  0.00    +0.000 OA
ATOM      6  N   UNL     1       0.438  11.383  19.641  0.00  0.00    +0.000 N 
ATOM      7  C   UNL     1       0.913  10.118  20.020  0.00  0.00    +0.000 A 
ATOM      8  C   UNL     1       0.830   9.779  21.352  0.00  0.00    +0.000 A 
ATOM      9  C   UNL     1       1.204   8.500  21.660  0.00  0.00    +0.000 A 
ATOM     10  N   UNL     1       1.698   7.640  20.755  0.00  0.00    +0.000 NA
ATOM     11  C   UNL     1       1.764   8.053  19.481  0.00  0.00    +0.000 A 
ATOM     12  N   UNL     1       2.237   7.191  18.517  0.00  0.00    +0.000 N 
ATOM     13  N   UNL     1       1.335   9.258  19.071  0.00  0.00    +0.000 NA
ATOM     14  H   UNL     1       2.456   7.671  17.653  0.00  0.00    +0.000 HD
ENDROOT
BRANCH   1  16
ATOM     15  C   UNL     1      -2.907  11.776  18.742  0.00  0.00    +0.000 C 
ATOM     16  C   UNL     1      -1.697  10.868  18.466  0.00  0.00    +0.000 C 
ATOM     17  C   UNL     1      -1.931  10.098  17.165  0.00  0.00    +0.000 C 
ENDBRANCH   1  16
BRANCH  12  18
ATOM     18  C   UNL     1       3.183   6.140  18.909  0.00  0.00    +0.000 C 
ATOM     19  C   UNL     1       2.404   4.899  19.349  0.00  0.00    +0.000 C 
BRANCH  18  20
ATOM     20  C   UNL     1       4.105   5.742  17.738  0.00  0.00    +0.000 A 
ATOM     21  N   UNL     1       4.449   4.437  17.608  0.00  0.00    +0.000 NA
ATOM     22  C   UNL     1       5.230   4.116  16.552  0.00  0.00    +0.000 A 
ATOM     23  C   UNL     1       5.679   5.025  15.628  0.00  0.00    +0.000 A 
ATOM     24 CL   UNL     1       6.671   4.584  14.309  0.00  0.00    +0.000 Cl
ATOM     25  C   UNL     1       5.278   6.317  15.844  0.00  0.00    +0.000 A 
ATOM     26  N   UNL     1       4.506   6.713  16.881  0.00  0.00    +0.000 NA
ENDBRANCH  18  20
ENDBRANCH  12  18
TORSDOF 3
ENDMDL
MODEL 2
REMARK VINA RESULT:      -7.5      3.990      7.855
REMARK  Name = 
REMARK  6 active torsions:
REMARK  status: ('A' for Active; 'I' for Inactive)
REMARK    1  A    between atoms: C_1  and  C_2
REMARK    2  A    between atoms: C_2  and  C_3
REMARK    3  A    between atoms: C_2  and  C_4
REMARK    4  A    between atoms: N_15  and  C_16
REMARK    5  A    between atoms: C_16  and  C_17
REMARK    6  A    between atoms: C_16  and  C_18
REMARK                            x       y       z     vdW  Elec       q    Type
REMARK                         _______ _______ _______ _____ _____    ______ ____
ROOT
ATOM      1  C   UNL     1       4.154   5.653  17.325  0.00  0.00    +0.000 C 
ATOM      2  C   UNL     1       4.338   4.347  16.559  0.00  0.00    +0.000 C 
ATOM      3  O   UNL     1       3.145   3.589  16.777  0.00  0.00    +0.000 OA
ATOM      4  C   UNL     1       2.452   4.149  17.817  0.00  0.00    +0.000 C 
ATOM      5  O   UNL     1       1.448   3.646  18.287  0.00  0.00    +0.000 OA
ATOM      6  N   UNL     1       3.050   5.335  18.182  0.00  0.00    +0.000 N 
ATOM      7  C   UNL     1       2.434   6.263  19.036  0.00  0.00    +0.000 A 
ATOM      8  C   UNL     1       2.098   5.839  20.301  0.00  0.00    +0.000 A 
ATOM      9  C   UNL     1       1.599   6.803  21.133  0.00  0.00    +0.000 A 
ATOM     10  N   UNL     1       1.367   8.066  20.741  0.00  0.00    +0.000 NA
ATOM     11  C   UNL     1       1.705   8.395  19.486  0.00  0.00    +0.000 A 
ATOM     12  N   UNL     1       1.513   9.688  19.053  0.00  0.00    +0.000 N 
ATOM     13  N   UNL     1       2.285   7.540  18.628  0.00  0.00    +0.000 NA
ATOM     14  H   UNL     1       1.583   9.766  18.046  0.00  0.00    +0.000 HD
ENDROOT
BRANCH   1  16
ATOM     15  C   UNL     1       5.943   5.049  19.099  0.00  0.00    +0.000 C 
ATOM     16  C   UNL     1       5.418   6.103  18.110  0.00  0.00    +0.000 C 
ATOM     17  C   UNL     1       6.553   6.524  17.174  0.00  0.00    +0.000 C 
ENDBRANCH   1  16
BRANCH  12  18
ATOM     18  C   UNL     1       0.452  10.491  19.673  0.00  0.00    +0.000 C 
ATOM     19  C   UNL     1       0.981  11.900  19.947  0.00  0.00    +0.000 C 
BRANCH  18  20
ATOM     20  C   UNL     1      -0.780  10.608  18.752  0.00  0.00    +0.000 A 
ATOM     21  N   UNL     1      -1.729  11.524  19.066  0.00  0.00    +0.000 NA
ATOM     22  C   UNL     1      -2.781  11.625  18.220  0.00  0.00    +0.000 A 
ATOM     23  C   UNL     1      -2.928  10.864  17.088  0.00  0.00    +0.000 A 
ATOM     24 CL   UNL     1      -4.273  11.015  16.047  0.00  0.00    +0.000 Cl
ATOM     25  C   UNL     1      -1.917   9.969  16.857  0.00  0.00    +0.000 A 
ATOM     26  N   UNL     1      -0.843   9.806  17.662  0.00  0.00    +0.000 NA
ENDBRANCH  18  20
ENDBRANCH  12  18
TORSDOF 3
ENDMDL
MODEL 3
REMARK VINA RESULT:      -7.4      4.555      8.432
REMARK  Name = 
REMARK  6 active torsions:
REMARK  status: ('A' for Active; 'I' for Inactive)
REMARK    1  A    between atoms: C_1  and  C_2
REMARK    2  A    between atoms: C_2  and  C_3
REMARK    3  A    between atoms: C_2  and  C_4
REMARK    4  A    between atoms: N_15  and  C_16
REMARK    5  A    between atoms: C_16  and  C_17
REMARK    6  A    between atoms: C_16  and  C_18
REMARK                            x       y       z     vdW  Elec       q    Type
REMARK                         _______ _______ _______ _____ _____    ______ ____
ROOT
ATOM      1  C   UNL     1       2.948   3.633  19.649  0.00  0.00    +0.000 C 
ATOM      2  C   UNL     1       3.891   2.480  19.977  0.00  0.00    +0.000 C 
ATOM      3  O   UNL     1       5.205   3.044  20.022  0.00  0.00    +0.000 OA
ATOM      4  C   UNL     1       5.169   4.288  19.450  0.00  0.00    +0.000 C 
ATOM      5  O   UNL     1       6.169   4.955  19.259  0.00  0.00    +0.000 OA
ATOM      6  N   UNL     1       3.861   4.634  19.186  0.00  0.00    +0.000 N 
ATOM      7  C   UNL     1       3.478   5.940  18.842  0.00  0.00    +0.000 A 
ATOM      8  C   UNL     1       4.040   6.492  17.713  0.00  0.00    +0.000 A 
ATOM      9  C   UNL     1       3.559   7.723  17.357  0.00  0.00    +0.000 A 
ATOM     10  N   UNL     1       2.659   8.401  18.087  0.00  0.00    +0.000 NA
ATOM     11  C   UNL     1       2.175   7.801  19.184  0.00  0.00    +0.000 A 
ATOM     12  N   UNL     1       1.228   8.450  19.944  0.00  0.00    +0.000 N 
ATOM     13  N   UNL     1       2.520   6.559  19.561  0.00  0.00    +0.000 NA
ATOM     14  H   UNL     1       1.107   8.017  20.851  0.00  0.00    +0.000 HD
ENDROOT
BRANCH   1  16
ATOM     15  C   UNL     1       2.393   2.467  17.403  0.00  0.00    +0.000 C 
ATOM     16  C   UNL     1       1.859   3.274  18.599  0.00  0.00    +0.000 C 
ATOM     17  C   UNL     1       0.682   2.525  19.227  0.00  0.00    +0.000 C 
ENDBRANCH   1  16
BRANCH  12  18
ATOM     18  C   UNL     1       1.201   9.917  19.940  0.00  0.00    +0.000 C 
ATOM     19  C   UNL     1       0.856  10.412  18.534  0.00  0.00    +0.000 C 
BRANCH  18  20
ATOM     20  C   UNL     1       0.143  10.466  20.920  0.00  0.00    +0.000 A 
ATOM     21  N   UNL     1       0.074   9.922  22.159  0.00  0.00    +0.000 NA
ATOM     22  C   UNL     1      -0.841  10.448  23.005  0.00  0.00    +0.000 A 
ATOM     23  C   UNL     1      -1.682  11.481  22.677  0.00  0.00    +0.000 A 
ATOM     24 CL   UNL     1      -2.830  12.117  23.770  0.00  0.00    +0.000 Cl
ATOM     25  C   UNL     1      -1.535  11.965  21.403  0.00  0.00    +0.000 A 
ATOM     26  N   UNL     1      -0.650  11.483  20.502  0.00  0.00    +0.000 NA
ENDBRANCH  18  20
ENDBRANCH  12  18
TORSDOF 3
ENDMDL
MODEL 4
REMARK VINA RESULT:      -7.2      4.036      7.835
REMARK  Name = 
REMARK  6 active torsions:
REMARK  status: ('A' for Active; 'I' for Inactive)
REMARK    1  A    between atoms: C_1  and  C_2
REMARK    2  A    between atoms: C_2  and  C_3
REMARK    3  A    between atoms: C_2  and  C_4
REMARK    4  A    between atoms: N_15  and  C_16
REMARK    5  A    between atoms: C_16  and  C_17
REMARK    6  A    between atoms: C_16  and  C_18
REMARK                            x       y       z     vdW  Elec       q    Type
REMARK                         _______ _______ _______ _____ _____    ______ ____
ROOT
ATOM      1  C   UNL     1       3.625   5.078  17.356  0.00  0.00    +0.000 C 
ATOM      2  C   UNL     1       3.571   3.666  16.784  0.00  0.00    +0.000 C 
ATOM      3  O   UNL     1       2.325   3.111  17.215  0.00  0.00    +0.000 OA
ATOM      4  C   UNL     1       1.816   3.898  18.213  0.00  0.00    +0.000 C 
ATOM      5  O   UNL     1       0.812   3.605  18.837  0.00  0.00    +0.000 OA
ATOM      6  N   UNL     1       2.586   5.034  18.341  0.00  0.00    +0.000 N 
ATOM      7  C   UNL     1       2.177   6.146  19.094  0.00  0.00    +0.000 A 
ATOM      8  C   UNL     1       1.925   5.951  20.433  0.00  0.00    +0.000 A 
ATOM      9  C   UNL     1       1.634   7.080  21.148  0.00  0.00    +0.000 A 
ATOM     10  N   UNL     1       1.516   8.296  20.590  0.00  0.00    +0.000 NA
ATOM     11  C   UNL     1       1.759   8.398  19.275  0.00  0.00    +0.000 A 
ATOM     12  N   UNL     1       1.679   9.632  18.669  0.00  0.00    +0.000 N 
ATOM     13  N   UNL     1       2.140   7.361  18.511  0.00  0.00    +0.000 NA
ATOM     14  H   UNL     1       1.653   9.558  17.660  0.00  0.00    +0.000 HD
ENDROOT
BRANCH   1  16
ATOM     15  C   UNL     1       6.054   4.336  17.869  0.00  0.00    +0.000 C 
ATOM     16  C   UNL     1       5.008   5.461  17.953  0.00  0.00    +0.000 C 
ATOM     17  C   UNL     1       5.578   6.727  17.310  0.00  0.00    +0.000 C 
ENDBRANCH   1  16
BRANCH  12  18
ATOM     18  C   UNL     1       0.791  10.648  19.247  0.00  0.00    +0.000 C 
ATOM     19  C   UNL     1       1.472  12.016  19.169  0.00  0.00    +0.000 C 
BRANCH  18  20
ATOM     20  C   UNL     1      -0.547  10.730  18.485  0.00  0.00    +0.000 A 
ATOM     21  N   UNL     1      -0.783   9.823  17.506  0.00  0.00    +0.000 NA
ATOM     22  C   UNL     1      -1.980   9.900  16.880  0.00  0.00    +0.000 A 
ATOM     23  C   UNL     1      -2.943  10.829  17.182  0.00  0.00    +0.000 A 
ATOM     24 CL   UNL     1      -4.442  10.901  16.366  0.00  0.00    +0.000 Cl
ATOM     25  C   UNL     1      -2.612  11.701  18.187  0.00  0.00    +0.000 A 
ATOM     26  N   UNL     1      -1.433  11.689  18.849  0.00  0.00    +0.000 NA
ENDBRANCH  18  20
ENDBRANCH  12  18
TORSDOF 3
ENDMDL
MODEL 5
REMARK VINA RESULT:      -6.8      4.223      8.196
REMARK  Name = 
REMARK  6 active torsions:
REMARK  status: ('A' for Active; 'I' for Inactive)
REMARK    1  A    between atoms: C_1  and  C_2
REMARK    2  A    between atoms: C_2  and  C_3
REMARK    3  A    between atoms: C_2  and  C_4
REMARK    4  A    between atoms: N_15  and  C_16
REMARK    5  A    between atoms: C_16  and  C_17
REMARK    6  A    between atoms: C_16  and  C_18
REMARK                            x       y       z     vdW  Elec       q    Type
REMARK                         _______ _______ _______ _____ _____    ______ ____
ROOT
ATOM      1  C   UNL     1       5.601   5.974  16.861  0.00  0.00    +0.000 C 
ATOM      2  C   UNL     1       6.143   4.947  15.872  0.00  0.00    +0.000 C 
ATOM      3  O   UNL     1       5.102   3.983  15.692  0.00  0.00    +0.000 OA
ATOM      4  C   UNL     1       4.172   4.149  16.684  0.00  0.00    +0.000 C 
ATOM      5  O   UNL     1       3.229   3.394  16.836  0.00  0.00    +0.000 OA
ATOM      6  N   UNL     1       4.469   5.284  17.406  0.00  0.00    +0.000 N 
ATOM      7  C   UNL     1       3.568   5.861  18.315  0.00  0.00    +0.000 A 
ATOM      8  C   UNL     1       3.145   5.085  19.371  0.00  0.00    +0.000 A 
ATOM      9  C   UNL     1       2.353   5.721  20.288  0.00  0.00    +0.000 A 
ATOM     10  N   UNL     1       1.938   6.990  20.149  0.00  0.00    +0.000 NA
ATOM     11  C   UNL     1       2.380   7.671  19.083  0.00  0.00    +0.000 A 
ATOM     12  N   UNL     1       2.003   8.986  18.919  0.00  0.00    +0.000 N 
ATOM     13  N   UNL     1       3.232   7.160  18.179  0.00  0.00    +0.000 NA
ATOM     14  H   UNL     1       2.199   9.324  17.985  0.00  0.00    +0.000 HD
ENDROOT
BRANCH   1  16
ATOM     15  C   UNL     1       7.565   5.272  18.396  0.00  0.00    +0.000 C 
ATOM     16  C   UNL     1       6.627   6.404  17.946  0.00  0.00    +0.000 C 
ATOM     17  C   UNL     1       7.465   7.603  17.497  0.00  0.00    +0.000 C 
ENDBRANCH   1  16
BRANCH  12  18
ATOM     18  C   UNL     1       0.728   9.433  19.493  0.00  0.00    +0.000 C 
ATOM     19  C   UNL     1       0.755   9.220  21.008  0.00  0.00    +0.000 C 
BRANCH  18  20
ATOM     20  C   UNL     1       0.478  10.930  19.219  0.00  0.00    +0.000 A 
ATOM     21  N   UNL     1      -0.628  11.277  18.516  0.00  0.00    +0.000 NA
ATOM     22  C   UNL     1      -0.836  12.599  18.322  0.00  0.00    +0.000 A 
ATOM     23  C   UNL     1      -0.003  13.582  18.791  0.00  0.00    +0.000 A 
ATOM     24 CL   UNL     1      -0.294  15.243  18.520  0.00  0.00    +0.000 Cl
ATOM     25  C   UNL     1       1.088  13.133  19.490  0.00  0.00    +0.000 A 
ATOM     26  N   UNL     1       1.364  11.828  19.714  0.00  0.00    +0.000 NA
ENDBRANCH  18  20
ENDBRANCH  12  18
TORSDOF 3
ENDMDL
MODEL 6
REMARK VINA RESULT:      -6.8      1.068      1.563
REMARK  Name = 
REMARK  6 active torsions:
REMARK  status: ('A' for Active; 'I' for Inactive)
REMARK    1  A    between atoms: C_1  and  C_2
REMARK    2  A    between atoms: C_2  and  C_3
REMARK    3  A    between atoms: C_2  and  C_4
REMARK    4  A    between atoms: N_15  and  C_16
REMARK    5  A    between atoms: C_16  and  C_17
REMARK    6  A    between atoms: C_16  and  C_18
REMARK                            x       y       z     vdW  Elec       q    Type
REMARK                         _______ _______ _______ _____ _____    ______ ____
ROOT
ATOM      1  C   UNL     1       0.055  12.235  18.556  0.00  0.00    +0.000 C 
ATOM      2  C   UNL     1       0.115  13.758  18.503  0.00  0.00    +0.000 C 
ATOM      3  O   UNL     1       0.967  14.158  19.581  0.00  0.00    +0.000 OA
ATOM      4  C   UNL     1       1.136  13.094  20.425  0.00  0.00    +0.000 C 
ATOM      5  O   UNL     1       1.732  13.180  21.484  0.00  0.00    +0.000 OA
ATOM      6  N   UNL     1       0.573  11.968  19.864  0.00  0.00    +0.000 N 
ATOM      7  C   UNL     1       0.806  10.676  20.362  0.00  0.00    +0.000 A 
ATOM      8  C   UNL     1       0.447  10.422  21.667  0.00  0.00    +0.000 A 
ATOM      9  C   UNL     1       0.593   9.125  22.076  0.00  0.00    +0.000 A 
ATOM     10  N   UNL     1       1.123   8.163  21.302  0.00  0.00    +0.000 NA
ATOM     11  C   UNL     1       1.464   8.497  20.049  0.00  0.00    +0.000 A 
ATOM     12  N   UNL     1       1.982   7.534  19.213  0.00  0.00    +0.000 N 
ATOM     13  N   UNL     1       1.273   9.722  19.532  0.00  0.00    +0.000 NA
ATOM     14  H   UNL     1       2.410   7.937  18.388  0.00  0.00    +0.000 HD
ENDROOT
BRANCH   1  16
ATOM     15  C   UNL     1      -1.382  10.189  17.875  0.00  0.00    +0.000 C 
ATOM     16  C   UNL     1      -1.371  11.655  18.340  0.00  0.00    +0.000 C 
ATOM     17  C   UNL     1      -2.240  11.792  19.593  0.00  0.00    +0.000 C 
ENDBRANCH   1  16
BRANCH  12  18
ATOM     18  C   UNL     1       2.701   6.397  19.801  0.00  0.00    +0.000 C 
ATOM     19  C   UNL     1       1.722   5.243  20.026  0.00  0.00    +0.000 C 
BRANCH  18  20
ATOM     20  C   UNL     1       3.830   5.901  18.876  0.00  0.00    +0.000 A 
ATOM     21  N   UNL     1       3.964   6.484  17.659  0.00  0.00    +0.000 NA
ATOM     22  C   UNL     1       4.985   6.050  16.885  0.00  0.00    +0.000 A 
ATOM     23  C   UNL     1       5.870   5.073  17.263  0.00  0.00    +0.000 A 
ATOM     24 CL   UNL     1       7.145   4.545  16.256  0.00  0.00    +0.000 Cl
ATOM     25  C   UNL     1       5.654   4.546  18.510  0.00  0.00    +0.000 A 
ATOM     26  N   UNL     1       4.650   4.923  19.333  0.00  0.00    +0.000 NA
ENDBRANCH  18  20
ENDBRANCH  12  18
TORSDOF 3
ENDMDL
MODEL 7
REMARK VINA RESULT:      -6.6      4.293      8.237
REMARK  Name = 
REMARK  6 active torsions:
REMARK  status: ('A' for Active; 'I' for Inactive)
REMARK    1  A    between atoms: C_1  and  C_2
REMARK    2  A    between atoms: C_2  and  C_3
REMARK    3  A    between atoms: C_2  and  C_4
REMARK    4  A    between atoms: N_15  and  C_16
REMARK    5  A    between atoms: C_16  and  C_17
REMARK    6  A    between atoms: C_16  and  C_18
REMARK                            x       y       z     vdW  Elec       q    Type
REMARK                         _______ _______ _______ _____ _____    ______ ____
ROOT
ATOM      1  C   UNL     1       5.882   6.047  16.822  0.00  0.00    +0.000 C 
ATOM      2  C   UNL     1       6.478   4.945  15.952  0.00  0.00    +0.000 C 
ATOM      3  O   UNL     1       5.437   3.983  15.762  0.00  0.00    +0.000 OA
ATOM      4  C   UNL     1       4.439   4.231  16.667  0.00  0.00    +0.000 C 
ATOM      5  O   UNL     1       3.474   3.501  16.801  0.00  0.00    +0.000 OA
ATOM      6  N   UNL     1       4.701   5.412  17.328  0.00  0.00    +0.000 N 
ATOM      7  C   UNL     1       3.746   6.063  18.124  0.00  0.00    +0.000 A 
ATOM      8  C   UNL     1       3.231   5.370  19.196  0.00  0.00    +0.000 A 
ATOM      9  C   UNL     1       2.385   6.079  20.004  0.00  0.00    +0.000 A 
ATOM     10  N   UNL     1       2.004   7.341  19.745  0.00  0.00    +0.000 NA
ATOM     11  C   UNL     1       2.537   7.938  18.670  0.00  0.00    +0.000 A 
ATOM     12  N   UNL     1       2.196   9.242  18.386  0.00  0.00    +0.000 N 
ATOM     13  N   UNL     1       3.444   7.353  17.872  0.00  0.00    +0.000 NA
ATOM     14  H   UNL     1       2.467   9.510  17.448  0.00  0.00    +0.000 HD
ENDROOT
BRANCH   1  16
ATOM     15  C   UNL     1       7.774   5.451  18.489  0.00  0.00    +0.000 C 
ATOM     16  C   UNL     1       6.833   6.540  17.949  0.00  0.00    +0.000 C 
ATOM     17  C   UNL     1       7.662   7.749  17.509  0.00  0.00    +0.000 C 
ENDBRANCH   1  16
BRANCH  12  18
ATOM     18  C   UNL     1       0.890   9.745  18.830  0.00  0.00    +0.000 C 
ATOM     19  C   UNL     1       0.630   9.278  20.263  0.00  0.00    +0.000 C 
BRANCH  18  20
ATOM     20  C   UNL     1       0.840  11.286  18.806  0.00  0.00    +0.000 A 
ATOM     21  N   UNL     1       1.957  11.958  18.434  0.00  0.00    +0.000 NA
ATOM     22  C   UNL     1       1.870  13.307  18.390  0.00  0.00    +0.000 A 
ATOM     23  C   UNL     1       0.733  14.011  18.697  0.00  0.00    +0.000 A 
ATOM     24 CL   UNL     1       0.662  15.717  18.637  0.00  0.00    +0.000 Cl
ATOM     25  C   UNL     1      -0.343  13.244  19.060  0.00  0.00    +0.000 A 
ATOM     26  N   UNL     1      -0.326  11.894  19.135  0.00  0.00    +0.000 NA
ENDBRANCH  18  20
ENDBRANCH  12  18
TORSDOF 3
ENDMDL
MODEL 8
REMARK VINA RESULT:      -6.5      4.107      7.930
REMARK  Name = 
REMARK  6 active torsions:
REMARK  status: ('A' for Active; 'I' for Inactive)
REMARK    1  A    between atoms: C_1  and  C_2
REMARK    2  A    between atoms: C_2  and  C_3
REMARK    3  A    between atoms: C_2  and  C_4
REMARK    4  A    between atoms: N_15  and  C_16
REMARK    5  A    between atoms: C_16  and  C_17
REMARK    6  A    between atoms: C_16  and  C_18
REMARK                            x       y       z     vdW  Elec       q    Type
REMARK                         _______ _______ _______ _____ _____    ______ ____
ROOT
ATOM      1  C   UNL     1       4.263   5.573  17.261  0.00  0.00    +0.000 C 
ATOM      2  C   UNL     1       4.428   4.108  16.872  0.00  0.00    +0.000 C 
ATOM      3  O   UNL     1       3.208   3.460  17.241  0.00  0.00    +0.000 OA
ATOM      4  C   UNL     1       2.504   4.289  18.074  0.00  0.00    +0.000 C 
ATOM      5  O   UNL     1       1.473   3.949  18.625  0.00  0.00    +0.000 OA
ATOM      6  N   UNL     1       3.127   5.517  18.133  0.00  0.00    +0.000 N 
ATOM      7  C   UNL     1       2.516   6.650  18.692  0.00  0.00    +0.000 A 
ATOM      8  C   UNL     1       2.133   6.582  20.013  0.00  0.00    +0.000 A 
ATOM      9  C   UNL     1       1.640   7.742  20.544  0.00  0.00    +0.000 A 
ATOM     10  N   UNL     1       1.457   8.862  19.826  0.00  0.00    +0.000 NA
ATOM     11  C   UNL     1       1.838   8.840  18.541  0.00  0.00    +0.000 A 
ATOM     12  N   UNL     1       1.696   9.977  17.777  0.00  0.00    +0.000 N 
ATOM     13  N   UNL     1       2.415   7.777  17.958  0.00  0.00    +0.000 NA
ATOM     14  H   UNL     1       1.795   9.785  16.788  0.00  0.00    +0.000 HD
ENDROOT
BRANCH   1  16
ATOM     15  C   UNL     1       6.107   5.314  19.062  0.00  0.00    +0.000 C 
ATOM     16  C   UNL     1       5.518   6.188  17.942  0.00  0.00    +0.000 C 
ATOM     17  C   UNL     1       6.616   6.515  16.928  0.00  0.00    +0.000 C 
ENDBRANCH   1  16
BRANCH  12  18
ATOM     18  C   UNL     1       0.643  10.938  18.127  0.00  0.00    +0.000 C 
ATOM     19  C   UNL     1      -0.533  10.191  18.759  0.00  0.00    +0.000 C 
BRANCH  18  20
ATOM     20  C   UNL     1       1.148  11.988  19.138  0.00  0.00    +0.000 A 
ATOM     21  N   UNL     1       2.275  12.678  18.835  0.00  0.00    +0.000 NA
ATOM     22  C   UNL     1       2.673  13.615  19.726  0.00  0.00    +0.000 A 
ATOM     23  C   UNL     1       2.007  13.894  20.892  0.00  0.00    +0.000 A 
ATOM     24 CL   UNL     1       2.543  15.080  21.998  0.00  0.00    +0.000 Cl
ATOM     25  C   UNL     1       0.880  13.145  21.109  0.00  0.00    +0.000 A 
ATOM     26  N   UNL     1       0.428  12.186  20.269  0.00  0.00    +0.000 NA
ENDBRANCH  18  20
ENDBRANCH  12  18
TORSDOF 3
ENDMDL
