MODEL 1
REMARK VINA RESULT:      -8.0      0.000      0.000
REMARK  Name = 
REMARK  6 active torsions:
REMARK  status: ('A' for Active; 'I' for Inactive)
REMARK    1  A    between atoms: C_1  and  N_2
REMARK    2  A    between atoms: C_6  and  S_7
REMARK    3  A    between atoms: S_7  and  C_10
REMARK    4  A    between atoms: C_10  and  C_11
REMARK    5  A    between atoms: C_16  and  N_17
REMARK    6  A    between atoms: C_18  and  C_19
REMARK                            x       y       z     vdW  Elec       q    Type
REMARK                         _______ _______ _______ _____ _____    ______ ____
ROOT
ATOM      1  C   UNL     1       2.221   6.788  20.148  0.00  0.00    +0.000 A 
ATOM      2  C   UNL     1       1.494   7.715  20.933  0.00  0.00    +0.000 A 
ATOM      3  C   UNL     1       0.999   8.901  20.393  0.00  0.00    +0.000 A 
ATOM      4  C   UNL     1       1.249   9.203  19.066  0.00  0.00    +0.000 A 
ATOM      5  C   UNL     1       1.971   8.304  18.283  0.00  0.00    +0.000 A 
ATOM      6  C   UNL     1       2.433   7.066  18.787  0.00  0.00    +0.000 A 
ENDROOT
BRANCH   6   7
ATOM      7  N   UNL     1       3.166   6.215  17.912  0.00  0.00    +0.000 NA
ATOM      8  C   UNL     1       4.235   6.763  17.397  0.00  0.00    +0.000 C 
BRANCH   8   9
ATOM      9  C   UNL     1       5.333   6.038  16.713  0.00  0.00    +0.000 A 
ATOM     10  C   UNL     1       5.336   5.918  15.316  0.00  0.00    +0.000 A 
ATOM     11  C   UNL     1       6.255   5.069  14.685  0.00  0.00    +0.000 A 
ATOM     12  C   UNL     1       7.175   4.338  15.437  0.00  0.00    +0.000 A 
ATOM     13  C   UNL     1       7.198   4.476  16.823  0.00  0.00    +0.000 A 
ATOM     14  C   UNL     1       6.285   5.324  17.462  0.00  0.00    +0.000 A 
ATOM     15 CL   UNL     1       6.392   5.413  19.187  0.00  0.00    +0.000 Cl
ENDBRANCH   8   9
ENDBRANCH   6   7
BRANCH   1  16
ATOM     16  C   UNL     1       2.789   5.581  20.841  0.00  0.00    +0.000 C 
BRANCH  16  17
ATOM     17  S   UNL     1       1.705   4.176  20.760  0.00  0.00    +0.000 S 
ATOM     18  O   UNL     1       0.352   4.579  20.420  0.00  0.00    +0.000 OA
ATOM     19  O   UNL     1       1.952   3.343  21.929  0.00  0.00    +0.000 OA
BRANCH  17  25
ATOM     20  C   UNL     1       4.393   2.339  20.469  0.00  0.00    +0.000 C 
ATOM     21  N   UNL     1       3.454   2.484  19.377  0.00  0.00    +0.000 N 
ATOM     22  C   UNL     1       3.632   1.899  18.146  0.00  0.00    +0.000 A 
ATOM     23  C   UNL     1       2.524   2.164  17.377  0.00  0.00    +0.000 A 
ATOM     24  C   UNL     1       1.656   2.948  18.165  0.00  0.00    +0.000 A 
ATOM     25  C   UNL     1       2.265   3.190  19.390  0.00  0.00    +0.000 A 
ENDBRANCH  17  25
ENDBRANCH  16  17
ENDBRANCH   1  16
TORSDOF 5
ENDMDL
MODEL 2
REMARK VINA RESULT:      -7.7      0.660      1.122
REMARK  Name = 
REMARK  6 active torsions:
REMARK  status: ('A' for Active; 'I' for Inactive)
REMARK    1  A    between atoms: C_1  and  N_2
REMARK    2  A    between atoms: C_6  and  S_7
REMARK    3  A    between atoms: S_7  and  C_10
REMARK    4  A    between atoms: C_10  and  C_11
REMARK    5  A    between atoms: C_16  and  N_17
REMARK    6  A    between atoms: C_18  and  C_19
REMARK                            x       y       z     vdW  Elec       q    Type
REMARK                         _______ _______ _______ _____ _____    ______ ____
ROOT
ATOM      1  C   UNL     1       2.264   7.014  20.059  0.00  0.00    +0.000 A 
ATOM      2  C   UNL     1       1.544   7.928  20.865  0.00  0.00    +0.000 A 
ATOM      3  C   UNL     1       0.972   9.082  20.330  0.00  0.00    +0.000 A 
ATOM      4  C   UNL     1       1.134   9.364  18.986  0.00  0.00    +0.000 A 
ATOM      5  C   UNL     1       1.847   8.477  18.181  0.00  0.00    +0.000 A 
ATOM      6  C   UNL     1       2.388   7.270  18.683  0.00  0.00    +0.000 A 
ENDROOT
BRANCH   6   7
ATOM      7  N   UNL     1       3.105   6.429  17.784  0.00  0.00    +0.000 NA
ATOM      8  C   UNL     1       4.265   6.902  17.414  0.00  0.00    +0.000 C 
BRANCH   8   9
ATOM      9  C   UNL     1       5.341   6.128  16.747  0.00  0.00    +0.000 A 
ATOM     10  C   UNL     1       5.288   5.894  15.366  0.00  0.00    +0.000 A 
ATOM     11  C   UNL     1       6.186   5.000  14.769  0.00  0.00    +0.000 A 
ATOM     12  C   UNL     1       7.142   4.337  15.541  0.00  0.00    +0.000 A 
ATOM     13  C   UNL     1       7.220   4.588  16.908  0.00  0.00    +0.000 A 
ATOM     14  C   UNL     1       6.327   5.482  17.513  0.00  0.00    +0.000 A 
ATOM     15 CL   UNL     1       6.503   5.711  19.219  0.00  0.00    +0.000 Cl
ENDBRANCH   8   9
ENDBRANCH   6   7
BRANCH   1  16
ATOM     16  C   UNL     1       2.919   5.846  20.743  0.00  0.00    +0.000 C 
BRANCH  16  17
ATOM     17  S   UNL     1       1.923   4.376  20.683  0.00  0.00    +0.000 S 
ATOM     18  O   UNL     1       0.569   4.679  20.253  0.00  0.00    +0.000 OA
ATOM     19  O   UNL     1       2.154   3.620  21.906  0.00  0.00    +0.000 OA
BRANCH  17  25
ATOM     20  C   UNL     1       0.470   2.156  18.774  0.00  0.00    +0.000 C 
ATOM     21  N   UNL     1       1.890   2.417  18.684  0.00  0.00    +0.000 N 
ATOM     22  C   UNL     1       2.728   1.742  17.829  0.00  0.00    +0.000 A 
ATOM     23  C   UNL     1       3.985   2.290  17.934  0.00  0.00    +0.000 A 
ATOM     24  C   UNL     1       3.905   3.319  18.895  0.00  0.00    +0.000 A 
ATOM     25  C   UNL     1       2.611   3.357  19.398  0.00  0.00    +0.000 A 
ENDBRANCH  17  25
ENDBRANCH  16  17
ENDBRANCH   1  16
TORSDOF 5
ENDMDL
MODEL 3
REMARK VINA RESULT:      -7.6      2.077      5.335
REMARK  Name = 
REMARK  6 active torsions:
REMARK  status: ('A' for Active; 'I' for Inactive)
REMARK    1  A    between atoms: C_1  and  N_2
REMARK    2  A    between atoms: C_6  and  S_7
REMARK    3  A    between atoms: S_7  and  C_10
REMARK    4  A    between atoms: C_10  and  C_11
REMARK    5  A    between atoms: C_16  and  N_17
REMARK    6  A    between atoms: C_18  and  C_19
REMARK                            x       y       z     vdW  Elec       q    Type
REMARK                         _______ _______ _______ _____ _____    ______ ____
ROOT
ATOM      1  C   UNL     1       5.289   4.418  17.027  0.00  0.00    +0.000 A 
ATOM      2  C   UNL     1       5.840   3.633  15.985  0.00  0.00    +0.000 A 
ATOM      3  C   UNL     1       6.114   4.174  14.729  0.00  0.00    +0.000 A 
ATOM      4  C   UNL     1       5.813   5.500  14.477  0.00  0.00    +0.000 A 
ATOM      5  C   UNL     1       5.263   6.282  15.490  0.00  0.00    +0.000 A 
ATOM      6  C   UNL     1       5.029   5.778  16.790  0.00  0.00    +0.000 A 
ENDROOT
BRANCH   6   7
ATOM      7  N   UNL     1       4.459   6.653  17.759  0.00  0.00    +0.000 NA
ATOM      8  C   UNL     1       3.404   7.303  17.344  0.00  0.00    +0.000 C 
BRANCH   8   9
ATOM      9  C   UNL     1       2.442   8.030  18.207  0.00  0.00    +0.000 A 
ATOM     10  C   UNL     1       1.954   9.285  17.817  0.00  0.00    +0.000 A 
ATOM     11  C   UNL     1       1.209  10.061  18.715  0.00  0.00    +0.000 A 
ATOM     12  C   UNL     1       0.945   9.593  20.003  0.00  0.00    +0.000 A 
ATOM     13  C   UNL     1       1.401   8.334  20.387  0.00  0.00    +0.000 A 
ATOM     14  C   UNL     1       2.144   7.551  19.495  0.00  0.00    +0.000 A 
ATOM     15 CL   UNL     1       2.673   6.010  20.078  0.00  0.00    +0.000 Cl
ENDBRANCH   8   9
ENDBRANCH   6   7
BRANCH   1  16
ATOM     16  C   UNL     1       4.947   3.724  18.316  0.00  0.00    +0.000 C 
BRANCH  16  17
ATOM     17  S   UNL     1       3.539   2.653  18.161  0.00  0.00    +0.000 S 
ATOM     18  O   UNL     1       3.951   1.276  17.955  0.00  0.00    +0.000 OA
ATOM     19  O   UNL     1       2.588   3.279  17.253  0.00  0.00    +0.000 OA
BRANCH  17  25
ATOM     20  C   UNL     1       0.347   2.558  18.858  0.00  0.00    +0.000 C 
ATOM     21  N   UNL     1       1.346   2.668  19.900  0.00  0.00    +0.000 N 
ATOM     22  C   UNL     1       1.035   2.773  21.235  0.00  0.00    +0.000 A 
ATOM     23  C   UNL     1       2.207   2.772  21.952  0.00  0.00    +0.000 A 
ATOM     24  C   UNL     1       3.260   2.681  21.019  0.00  0.00    +0.000 A 
ATOM     25  C   UNL     1       2.719   2.671  19.739  0.00  0.00    +0.000 A 
ENDBRANCH  17  25
ENDBRANCH  16  17
ENDBRANCH   1  16
TORSDOF 5
ENDMDL
MODEL 4
REMARK VINA RESULT:      -7.6      2.148      5.333
REMARK  Name = 
REMARK  6 active torsions:
REMARK  status: ('A' for Active; 'I' for Inactive)
REMARK    1  A    between atoms: C_1  and  N_2
REMARK    2  A    between atoms: C_6  and  S_7
REMARK    3  A    between atoms: S_7  and  C_10
REMARK    4  A    between atoms: C_10  and  C_11
REMARK    5  A    between atoms: C_16  and  N_17
REMARK    6  A    between atoms: C_18  and  C_19
REMARK                            x       y       z     vdW  Elec       q    Type
REMARK                         _______ _______ _______ _____ _____    ______ ____
ROOT
ATOM      1  C   UNL     1       5.478   4.825  17.928  0.00  0.00    +0.000 A 
ATOM      2  C   UNL     1       6.668   4.361  17.317  0.00  0.00    +0.000 A 
ATOM      3  C   UNL     1       6.998   4.703  16.006  0.00  0.00    +0.000 A 
ATOM      4  C   UNL     1       6.131   5.487  15.266  0.00  0.00    +0.000 A 
ATOM      5  C   UNL     1       4.951   5.944  15.852  0.00  0.00    +0.000 A 
ATOM      6  C   UNL     1       4.619   5.663  17.198  0.00  0.00    +0.000 A 
ENDROOT
BRANCH   6   7
ATOM      7  N   UNL     1       3.390   6.171  17.707  0.00  0.00    +0.000 NA
ATOM      8  C   UNL     1       3.477   7.361  18.239  0.00  0.00    +0.000 C 
BRANCH   8   9
ATOM      9  C   UNL     1       2.333   8.248  18.563  0.00  0.00    +0.000 A 
ATOM     10  C   UNL     1       2.078   9.383  17.780  0.00  0.00    +0.000 A 
ATOM     11  C   UNL     1       1.130  10.327  18.198  0.00  0.00    +0.000 A 
ATOM     12  C   UNL     1       0.433  10.147  19.393  0.00  0.00    +0.000 A 
ATOM     13  C   UNL     1       0.660   9.007  20.160  0.00  0.00    +0.000 A 
ATOM     14  C   UNL     1       1.603   8.057  19.749  0.00  0.00    +0.000 A 
ATOM     15 CL   UNL     1       1.816   6.685  20.782  0.00  0.00    +0.000 Cl
ENDBRANCH   8   9
ENDBRANCH   6   7
BRANCH   1  16
ATOM     16  C   UNL     1       5.168   4.331  19.314  0.00  0.00    +0.000 C 
BRANCH  16  17
ATOM     17  S   UNL     1       4.457   2.703  19.313  0.00  0.00    +0.000 S 
ATOM     18  O   UNL     1       5.248   1.788  20.118  0.00  0.00    +0.000 OA
ATOM     19  O   UNL     1       4.106   2.360  17.942  0.00  0.00    +0.000 OA
BRANCH  17  25
ATOM     20  C   UNL     1       1.503   3.413  18.110  0.00  0.00    +0.000 C 
ATOM     21  N   UNL     1       1.709   3.188  19.525  0.00  0.00    +0.000 N 
ATOM     22  C   UNL     1       0.706   3.287  20.459  0.00  0.00    +0.000 A 
ATOM     23  C   UNL     1       1.219   2.931  21.684  0.00  0.00    +0.000 A 
ATOM     24  C   UNL     1       2.580   2.623  21.484  0.00  0.00    +0.000 A 
ATOM     25  C   UNL     1       2.893   2.838  20.148  0.00  0.00    +0.000 A 
ENDBRANCH  17  25
ENDBRANCH  16  17
ENDBRANCH   1  16
TORSDOF 5
ENDMDL
MODEL 5
REMARK VINA RESULT:      -7.6      2.236      5.367
REMARK  Name = 
REMARK  6 active torsions:
REMARK  status: ('A' for Active; 'I' for Inactive)
REMARK    1  A    between atoms: C_1  and  N_2
REMARK    2  A    between atoms: C_6  and  S_7
REMARK    3  A    between atoms: S_7  and  C_10
REMARK    4  A    between atoms: C_10  and  C_11
REMARK    5  A    between atoms: C_16  and  N_17
REMARK    6  A    between atoms: C_18  and  C_19
REMARK                            x       y       z     vdW  Elec       q    Type
REMARK                         _______ _______ _______ _____ _____    ______ ____
ROOT
ATOM      1  C   UNL     1       5.140   4.431  16.855  0.00  0.00    +0.000 A 
ATOM      2  C   UNL     1       5.586   3.648  15.763  0.00  0.00    +0.000 A 
ATOM      3  C   UNL     1       5.865   4.216  14.521  0.00  0.00    +0.000 A 
ATOM      4  C   UNL     1       5.673   5.574  14.333  0.00  0.00    +0.000 A 
ATOM      5  C   UNL     1       5.226   6.355  15.397  0.00  0.00    +0.000 A 
ATOM      6  C   UNL     1       4.992   5.818  16.683  0.00  0.00    +0.000 A 
ENDROOT
BRANCH   6   7
ATOM      7  N   UNL     1       4.533   6.696  17.707  0.00  0.00    +0.000 NA
ATOM      8  C   UNL     1       3.234   6.726  17.847  0.00  0.00    +0.000 C 
BRANCH   8   9
ATOM      9  C   UNL     1       2.504   7.297  19.005  0.00  0.00    +0.000 A 
ATOM     10  C   UNL     1       2.247   6.507  20.134  0.00  0.00    +0.000 A 
ATOM     11  C   UNL     1       1.388   6.974  21.139  0.00  0.00    +0.000 A 
ATOM     12  C   UNL     1       0.784   8.227  21.026  0.00  0.00    +0.000 A 
ATOM     13  C   UNL     1       1.059   9.030  19.922  0.00  0.00    +0.000 A 
ATOM     14  C   UNL     1       1.918   8.572  18.914  0.00  0.00    +0.000 A 
ATOM     15 CL   UNL     1       2.181   9.643  17.580  0.00  0.00    +0.000 Cl
ENDBRANCH   8   9
ENDBRANCH   6   7
BRANCH   1  16
ATOM     16  C   UNL     1       4.781   3.714  18.127  0.00  0.00    +0.000 C 
BRANCH  16  17
ATOM     17  S   UNL     1       3.323   2.715  17.958  0.00  0.00    +0.000 S 
ATOM     18  O   UNL     1       3.666   1.315  17.783  0.00  0.00    +0.000 OA
ATOM     19  O   UNL     1       2.426   3.374  17.019  0.00  0.00    +0.000 OA
BRANCH  17  25
ATOM     20  C   UNL     1       4.406   2.057  20.970  0.00  0.00    +0.000 C 
ATOM     21  N   UNL     1       3.036   2.456  20.730  0.00  0.00    +0.000 N 
ATOM     22  C   UNL     1       2.093   2.554  21.726  0.00  0.00    +0.000 A 
ATOM     23  C   UNL     1       0.931   3.035  21.173  0.00  0.00    +0.000 A 
ATOM     24  C   UNL     1       1.175   3.218  19.796  0.00  0.00    +0.000 A 
ATOM     25  C   UNL     1       2.471   2.803  19.517  0.00  0.00    +0.000 A 
ENDBRANCH  17  25
ENDBRANCH  16  17
ENDBRANCH   1  16
TORSDOF 5
ENDMDL
MODEL 6
REMARK VINA RESULT:      -7.6      2.063      5.214
REMARK  Name = 
REMARK  6 active torsions:
REMARK  status: ('A' for Active; 'I' for Inactive)
REMARK    1  A    between atoms: C_1  and  N_2
REMARK    2  A    between atoms: C_6  and  S_7
REMARK    3  A    between atoms: S_7  and  C_10
REMARK    4  A    between atoms: C_10  and  C_11
REMARK    5  A    between atoms: C_16  and  N_17
REMARK    6  A    between atoms: C_18  and  C_19
REMARK                            x       y       z     vdW  Elec       q    Type
REMARK                         _______ _______ _______ _____ _____    ______ ____
ROOT
ATOM      1  C   UNL     1       5.186   4.389  16.912  0.00  0.00    +0.000 A 
ATOM      2  C   UNL     1       5.745   3.658  15.836  0.00  0.00    +0.000 A 
ATOM      3  C   UNL     1       6.040   4.264  14.615  0.00  0.00    +0.000 A 
ATOM      4  C   UNL     1       5.751   5.604  14.431  0.00  0.00    +0.000 A 
ATOM      5  C   UNL     1       5.192   6.334  15.478  0.00  0.00    +0.000 A 
ATOM      6  C   UNL     1       4.938   5.762  16.746  0.00  0.00    +0.000 A 
ENDROOT
BRANCH   6   7
ATOM      7  N   UNL     1       4.361   6.588  17.753  0.00  0.00    +0.000 NA
ATOM      8  C   UNL     1       3.387   7.351  17.332  0.00  0.00    +0.000 C 
BRANCH   8   9
ATOM      9  C   UNL     1       2.418   8.069  18.195  0.00  0.00    +0.000 A 
ATOM     10  C   UNL     1       1.878   9.294  17.780  0.00  0.00    +0.000 A 
ATOM     11  C   UNL     1       1.125  10.070  18.671  0.00  0.00    +0.000 A 
ATOM     12  C   UNL     1       0.903   9.630  19.977  0.00  0.00    +0.000 A 
ATOM     13  C   UNL     1       1.410   8.399  20.387  0.00  0.00    +0.000 A 
ATOM     14  C   UNL     1       2.162   7.617  19.501  0.00  0.00    +0.000 A 
ATOM     15 CL   UNL     1       2.755   6.112  20.116  0.00  0.00    +0.000 Cl
ENDBRANCH   8   9
ENDBRANCH   6   7
BRANCH   1  16
ATOM     16  C   UNL     1       4.822   3.630  18.157  0.00  0.00    +0.000 C 
BRANCH  16  17
ATOM     17  S   UNL     1       3.359   2.643  17.951  0.00  0.00    +0.000 S 
ATOM     18  O   UNL     1       3.695   1.240  17.782  0.00  0.00    +0.000 OA
ATOM     19  O   UNL     1       2.491   3.312  16.992  0.00  0.00    +0.000 OA
BRANCH  17  25
ATOM     20  C   UNL     1       4.386   2.045  20.996  0.00  0.00    +0.000 C 
ATOM     21  N   UNL     1       3.014   2.415  20.719  0.00  0.00    +0.000 N 
ATOM     22  C   UNL     1       2.047   2.509  21.692  0.00  0.00    +0.000 A 
ATOM     23  C   UNL     1       0.889   2.961  21.106  0.00  0.00    +0.000 A 
ATOM     24  C   UNL     1       1.162   3.131  19.733  0.00  0.00    +0.000 A 
ATOM     25  C   UNL     1       2.471   2.736  19.489  0.00  0.00    +0.000 A 
ENDBRANCH  17  25
ENDBRANCH  16  17
ENDBRANCH   1  16
TORSDOF 5
ENDMDL
MODEL 7
REMARK VINA RESULT:      -7.5      2.208      5.397
REMARK  Name = 
REMARK  6 active torsions:
REMARK  status: ('A' for Active; 'I' for Inactive)
REMARK    1  A    between atoms: C_1  and  N_2
REMARK    2  A    between atoms: C_6  and  S_7
REMARK    3  A    between atoms: S_7  and  C_10
REMARK    4  A    between atoms: C_10  and  C_11
REMARK    5  A    between atoms: C_16  and  N_17
REMARK    6  A    between atoms: C_18  and  C_19
REMARK                            x       y       z     vdW  Elec       q    Type
REMARK                         _______ _______ _______ _____ _____    ______ ____
ROOT
ATOM      1  C   UNL     1       4.382   4.195  16.801  0.00  0.00    +0.000 A 
ATOM      2  C   UNL     1       5.479   3.757  16.021  0.00  0.00    +0.000 A 
ATOM      3  C   UNL     1       6.376   4.658  15.448  0.00  0.00    +0.000 A 
ATOM      4  C   UNL     1       6.177   6.017  15.613  0.00  0.00    +0.000 A 
ATOM      5  C   UNL     1       5.096   6.464  16.371  0.00  0.00    +0.000 A 
ATOM      6  C   UNL     1       4.205   5.573  17.014  0.00  0.00    +0.000 A 
ENDROOT
BRANCH   6   7
ATOM      7  N   UNL     1       3.127   6.124  17.764  0.00  0.00    +0.000 NA
ATOM      8  C   UNL     1       3.284   7.380  18.091  0.00  0.00    +0.000 C 
BRANCH   8   9
ATOM      9  C   UNL     1       2.219   8.282  18.590  0.00  0.00    +0.000 A 
ATOM     10  C   UNL     1       1.911   9.461  17.897  0.00  0.00    +0.000 A 
ATOM     11  C   UNL     1       1.053  10.411  18.469  0.00  0.00    +0.000 A 
ATOM     12  C   UNL     1       0.497  10.192  19.730  0.00  0.00    +0.000 A 
ATOM     13  C   UNL     1       0.774   9.009  20.411  0.00  0.00    +0.000 A 
ATOM     14  C   UNL     1       1.628   8.054  19.846  0.00  0.00    +0.000 A 
ATOM     15 CL   UNL     1       1.915   6.626  20.782  0.00  0.00    +0.000 Cl
ENDBRANCH   8   9
ENDBRANCH   6   7
BRANCH   1  16
ATOM     16  C   UNL     1       3.421   3.153  17.303  0.00  0.00    +0.000 C 
BRANCH  16  17
ATOM     17  S   UNL     1       4.016   2.322  18.755  0.00  0.00    +0.000 S 
ATOM     18  O   UNL     1       5.238   2.936  19.246  0.00  0.00    +0.000 OA
ATOM     19  O   UNL     1       3.962   0.887  18.512  0.00  0.00    +0.000 OA
BRANCH  17  25
ATOM     20  C   UNL     1       0.754   2.294  18.568  0.00  0.00    +0.000 C 
ATOM     21  N   UNL     1       1.437   2.601  19.806  0.00  0.00    +0.000 N 
ATOM     22  C   UNL     1       0.782   2.931  20.968  0.00  0.00    +0.000 A 
ATOM     23  C   UNL     1       1.716   3.075  21.965  0.00  0.00    +0.000 A 
ATOM     24  C   UNL     1       2.979   2.841  21.381  0.00  0.00    +0.000 A 
ATOM     25  C   UNL     1       2.803   2.600  20.024  0.00  0.00    +0.000 A 
ENDBRANCH  17  25
ENDBRANCH  16  17
ENDBRANCH   1  16
TORSDOF 5
ENDMDL
MODEL 8
REMARK VINA RESULT:      -7.4      2.367      5.585
REMARK  Name = 
REMARK  6 active torsions:
REMARK  status: ('A' for Active; 'I' for Inactive)
REMARK    1  A    between atoms: C_1  and  N_2
REMARK    2  A    between atoms: C_6  and  S_7
REMARK    3  A    between atoms: S_7  and  C_10
REMARK    4  A    between atoms: C_10  and  C_11
REMARK    5  A    between atoms: C_16  and  N_17
REMARK    6  A    between atoms: C_18  and  C_19
REMARK                            x       y       z     vdW  Elec       q    Type
REMARK                         _______ _______ _______ _____ _____    ______ ____
ROOT
ATOM      1  C   UNL     1       4.065   4.433  16.866  0.00  0.00    +0.000 A 
ATOM      2  C   UNL     1       5.042   4.224  15.863  0.00  0.00    +0.000 A 
ATOM      3  C   UNL     1       5.799   5.275  15.349  0.00  0.00    +0.000 A 
ATOM      4  C   UNL     1       5.575   6.563  15.802  0.00  0.00    +0.000 A 
ATOM      5  C   UNL     1       4.611   6.786  16.783  0.00  0.00    +0.000 A 
ATOM      6  C   UNL     1       3.870   5.732  17.366  0.00  0.00    +0.000 A 
ENDROOT
BRANCH   6   7
ATOM      7  N   UNL     1       2.903   6.059  18.359  0.00  0.00    +0.000 NA
ATOM      8  C   UNL     1       3.036   7.256  18.867  0.00  0.00    +0.000 C 
BRANCH   8   9
ATOM      9  C   UNL     1       2.017   7.970  19.676  0.00  0.00    +0.000 A 
ATOM     10  C   UNL     1       1.528   7.396  20.857  0.00  0.00    +0.000 A 
ATOM     11  C   UNL     1       0.428   7.966  21.513  0.00  0.00    +0.000 A 
ATOM     12  C   UNL     1      -0.188   9.108  20.998  0.00  0.00    +0.000 A 
ATOM     13  C   UNL     1       0.312   9.700  19.841  0.00  0.00    +0.000 A 
ATOM     14  C   UNL     1       1.412   9.138  19.181  0.00  0.00    +0.000 A 
ATOM     15 CL   UNL     1       1.945   9.947  17.746  0.00  0.00    +0.000 Cl
ENDBRANCH   8   9
ENDBRANCH   6   7
BRANCH   1  16
ATOM     16  C   UNL     1       3.238   3.253  17.294  0.00  0.00    +0.000 C 
BRANCH  16  17
ATOM     17  S   UNL     1       3.933   2.404  18.691  0.00  0.00    +0.000 S 
ATOM     18  O   UNL     1       5.161   3.043  19.133  0.00  0.00    +0.000 OA
ATOM     19  O   UNL     1       3.908   0.975  18.413  0.00  0.00    +0.000 OA
BRANCH  17  25
ATOM     20  C   UNL     1       0.667   2.303  18.669  0.00  0.00    +0.000 C 
ATOM     21  N   UNL     1       1.407   2.588  19.880  0.00  0.00    +0.000 N 
ATOM     22  C   UNL     1       0.805   2.867  21.084  0.00  0.00    +0.000 A 
ATOM     23  C   UNL     1       1.787   3.003  22.036  0.00  0.00    +0.000 A 
ATOM     24  C   UNL     1       3.022   2.817  21.381  0.00  0.00    +0.000 A 
ATOM     25  C   UNL     1       2.781   2.614  20.028  0.00  0.00    +0.000 A 
ENDBRANCH  17  25
ENDBRANCH  16  17
ENDBRANCH   1  16
TORSDOF 5
ENDMDL
MODEL 9
REMARK VINA RESULT:      -7.4      2.737      6.428
REMARK  Name = 
REMARK  6 active torsions:
REMARK  status: ('A' for Active; 'I' for Inactive)
REMARK    1  A    between atoms: C_1  and  N_2
REMARK    2  A    between atoms: C_6  and  S_7
REMARK    3  A    between atoms: S_7  and  C_10
REMARK    4  A    between atoms: C_10  and  C_11
REMARK    5  A    between atoms: C_16  and  N_17
REMARK    6  A    between atoms: C_18  and  C_19
REMARK                            x       y       z     vdW  Elec       q    Type
REMARK                         _______ _______ _______ _____ _____    ______ ____
ROOT
ATOM      1  C   UNL     1       2.140   4.583  18.988  0.00  0.00    +0.000 A 
ATOM      2  C   UNL     1       2.024   3.194  18.743  0.00  0.00    +0.000 A 
ATOM      3  C   UNL     1       1.680   2.298  19.755  0.00  0.00    +0.000 A 
ATOM      4  C   UNL     1       1.478   2.767  21.041  0.00  0.00    +0.000 A 
ATOM      5  C   UNL     1       1.597   4.131  21.299  0.00  0.00    +0.000 A 
ATOM      6  C   UNL     1       1.886   5.070  20.282  0.00  0.00    +0.000 A 
ENDROOT
BRANCH   6   7
ATOM      7  N   UNL     1       1.992   6.443  20.644  0.00  0.00    +0.000 NA
ATOM      8  C   UNL     1       0.880   7.119  20.526  0.00  0.00    +0.000 C 
BRANCH   8   9
ATOM      9  C   UNL     1       0.617   8.458  21.108  0.00  0.00    +0.000 A 
ATOM     10  C   UNL     1       0.071   8.572  22.394  0.00  0.00    +0.000 A 
ATOM     11  C   UNL     1      -0.365   9.818  22.865  0.00  0.00    +0.000 A 
ATOM     12  C   UNL     1      -0.257  10.954  22.063  0.00  0.00    +0.000 A 
ATOM     13  C   UNL     1       0.313  10.853  20.796  0.00  0.00    +0.000 A 
ATOM     14  C   UNL     1       0.753   9.612  20.318  0.00  0.00    +0.000 A 
ATOM     15 CL   UNL     1       1.433   9.597  18.727  0.00  0.00    +0.000 Cl
ENDBRANCH   8   9
ENDBRANCH   6   7
BRANCH   1  16
ATOM     16  C   UNL     1       2.601   5.456  17.854  0.00  0.00    +0.000 C 
BRANCH  16  17
ATOM     17  S   UNL     1       4.274   6.016  18.062  0.00  0.00    +0.000 S 
ATOM     18  O   UNL     1       4.828   5.552  19.322  0.00  0.00    +0.000 OA
ATOM     19  O   UNL     1       4.327   7.429  17.713  0.00  0.00    +0.000 OA
BRANCH  17  25
ATOM     20  C   UNL     1       7.387   6.487  17.186  0.00  0.00    +0.000 C 
ATOM     21  N   UNL     1       6.543   5.536  16.496  0.00  0.00    +0.000 N 
ATOM     22  C   UNL     1       6.966   4.795  15.419  0.00  0.00    +0.000 A 
ATOM     23  C   UNL     1       5.955   3.935  15.061  0.00  0.00    +0.000 A 
ATOM     24  C   UNL     1       4.880   4.178  15.942  0.00  0.00    +0.000 A 
ATOM     25  C   UNL     1       5.233   5.213  16.798  0.00  0.00    +0.000 A 
ENDBRANCH  17  25
ENDBRANCH  16  17
ENDBRANCH   1  16
TORSDOF 5
ENDMDL
