MODEL 1
REMARK VINA RESULT:      -8.5      0.000      0.000
REMARK  Name = 
REMARK  12 active torsions:
REMARK  status: ('A' for Active; 'I' for Inactive)
REMARK    1  A    between atoms: C_1  and  C_2
REMARK    2  A    between atoms: C_2  and  C_3
REMARK    3  A    between atoms: C_3  and  C_4
REMARK    4  A    between atoms: C_4  and  C_5
REMARK    5  A    between atoms: C_5  and  C_6
REMARK    6  A    between atoms: C_6  and  C_7
REMARK    7  A    between atoms: C_7  and  C_8
REMARK    8  A    between atoms: C_8  and  C_9
REMARK    9  A    between atoms: C_12  and  C_13
REMARK   10  A    between atoms: C_16  and  C_17
REMARK   11  A    between atoms: C_17  and  C_18
REMARK   12  A    between atoms: C_18  and  C_19
REMARK                            x       y       z     vdW  Elec       q    Type
REMARK                         _______ _______ _______ _____ _____    ______ ____
ROOT
ATOM      1  C   UNL     1       2.910   6.118  19.028  0.00  0.00    +0.000 A 
ATOM      2  N   UNL     1       2.356   5.179  19.815  0.00  0.00    +0.000 NA
ATOM      3  O   UNL     1       1.567   5.914  20.691  0.00  0.00    +0.000 OA
ATOM      4  C   UNL     1       1.720   7.218  20.339  0.00  0.00    +0.000 A 
ATOM      5  N   UNL     1       2.538   7.405  19.334  0.00  0.00    +0.000 NA
ENDROOT
BRANCH   1   9
ATOM      6  C   UNL     1       5.519   5.187  15.792  0.00  0.00    +0.000 A 
ATOM      7  C   UNL     1       5.146   6.516  16.039  0.00  0.00    +0.000 A 
ATOM      8  C   UNL     1       4.308   6.835  17.103  0.00  0.00    +0.000 A 
ATOM      9  C   UNL     1       3.813   5.824  17.933  0.00  0.00    +0.000 A 
ATOM     10  C   UNL     1       4.192   4.497  17.693  0.00  0.00    +0.000 A 
ATOM     11  C   UNL     1       5.036   4.179  16.631  0.00  0.00    +0.000 A 
BRANCH   6  12
ATOM     12  C   UNL     1       6.404   4.841  14.624  0.00  0.00    +0.000 C 
BRANCH  12  13
ATOM     13  C   UNL     1       5.852   3.673  13.807  0.00  0.00    +0.000 C 
BRANCH  13  14
ATOM     14  C   UNL     1       6.407   3.692  12.386  0.00  0.00    +0.000 C 
BRANCH  14  15
ATOM     15  C   UNL     1       5.752   2.601  11.543  0.00  0.00    +0.000 C 
BRANCH  15  16
ATOM     16  C   UNL     1       4.238   2.780  11.490  0.00  0.00    +0.000 C 
BRANCH  16  17
ATOM     17  C   UNL     1       3.866   4.036  10.705  0.00  0.00    +0.000 C 
BRANCH  17  19
ATOM     18  C   UNL     1       2.350   4.998   8.946  0.00  0.00    +0.000 C 
ATOM     19  C   UNL     1       2.812   3.731   9.644  0.00  0.00    +0.000 C 
ENDBRANCH  17  19
ENDBRANCH  16  17
ENDBRANCH  15  16
ENDBRANCH  14  15
ENDBRANCH  13  14
ENDBRANCH  12  13
ENDBRANCH   6  12
ENDBRANCH   1   9
BRANCH   4  20
ATOM     20  C   UNL     1       0.986   8.216  21.129  0.00  0.00    +0.000 C 
BRANCH  20  21
ATOM     21  C   UNL     1       0.747   9.481  20.307  0.00  0.00    +0.000 C 
BRANCH  21  22
ATOM     22  C   UNL     1       0.227  10.656  21.128  0.00  0.00    +0.000 C 
ATOM     23  C   UNL     1      -0.335  10.162  22.470  0.00  0.00    +0.000 C 
ATOM     24  C   UNL     1      -1.113  11.356  22.968  0.00  0.00    +0.000 C 
ATOM     25  C   UNL     1      -1.666  11.989  21.695  0.00  0.00    +0.000 C 
ATOM     26  N   UNL     1      -0.909  11.405  20.568  0.00  0.00    +0.000 N 
ATOM     27  C   UNL     1      -1.037  11.928  19.314  0.00  0.00    +0.000 C 
ATOM     28  N   UNL     1      -1.998  12.684  18.901  0.00  0.00    +0.000 NA
ATOM     29  N   UNL     1      -0.101  11.644  18.388  0.00  0.00    +0.000 N 
ATOM     30  H   UNL     1      -2.671  12.822  19.653  0.00  0.00    +0.000 HD
ATOM     31  H   UNL     1      -0.046  10.656  18.175  0.00  0.00    +0.000 HD
ATOM     32  H   UNL     1      -0.385  12.107  17.528  0.00  0.00    +0.000 HD
ENDBRANCH  21  22
ENDBRANCH  20  21
ENDBRANCH   4  20
TORSDOF 11
ENDMDL
MODEL 2
REMARK VINA RESULT:      -8.2      1.044      1.230
REMARK  Name = 
REMARK  12 active torsions:
REMARK  status: ('A' for Active; 'I' for Inactive)
REMARK    1  A    between atoms: C_1  and  C_2
REMARK    2  A    between atoms: C_2  and  C_3
REMARK    3  A    between atoms: C_3  and  C_4
REMARK    4  A    between atoms: C_4  and  C_5
REMARK    5  A    between atoms: C_5  and  C_6
REMARK    6  A    between atoms: C_6  and  C_7
REMARK    7  A    between atoms: C_7  and  C_8
REMARK    8  A    between atoms: C_8  and  C_9
REMARK    9  A    between atoms: C_12  and  C_13
REMARK   10  A    between atoms: C_16  and  C_17
REMARK   11  A    between atoms: C_17  and  C_18
REMARK   12  A    between atoms: C_18  and  C_19
REMARK                            x       y       z     vdW  Elec       q    Type
REMARK                         _______ _______ _______ _____ _____    ______ ____
ROOT
ATOM      1  C   UNL     1       2.905   7.259  18.197  0.00  0.00    +0.000 A 
ATOM      2  N   UNL     1       2.459   8.468  17.813  0.00  0.00    +0.000 NA
ATOM      3  O   UNL     1       1.768   8.928  18.926  0.00  0.00    +0.000 OA
ATOM      4  C   UNL     1       1.873   7.954  19.869  0.00  0.00    +0.000 A 
ATOM      5  N   UNL     1       2.549   6.904  19.475  0.00  0.00    +0.000 NA
ENDROOT
BRANCH   1   9
ATOM      6  C   UNL     1       5.199   4.654  15.727  0.00  0.00    +0.000 A 
ATOM      7  C   UNL     1       5.275   6.043  15.551  0.00  0.00    +0.000 A 
ATOM      8  C   UNL     1       4.543   6.905  16.363  0.00  0.00    +0.000 A 
ATOM      9  C   UNL     1       3.707   6.390  17.359  0.00  0.00    +0.000 A 
ATOM     10  C   UNL     1       3.638   5.003  17.541  0.00  0.00    +0.000 A 
ATOM     11  C   UNL     1       4.375   4.141  16.732  0.00  0.00    +0.000 A 
BRANCH   6  12
ATOM     12  C   UNL     1       5.970   3.722  14.830  0.00  0.00    +0.000 C 
BRANCH  12  13
ATOM     13  C   UNL     1       6.709   4.470  13.720  0.00  0.00    +0.000 C 
BRANCH  13  14
ATOM     14  C   UNL     1       6.826   3.607  12.467  0.00  0.00    +0.000 C 
BRANCH  14  15
ATOM     15  C   UNL     1       5.503   2.906  12.175  0.00  0.00    +0.000 C 
BRANCH  15  16
ATOM     16  C   UNL     1       4.482   3.878  11.591  0.00  0.00    +0.000 C 
BRANCH  16  17
ATOM     17  C   UNL     1       3.338   3.123  10.916  0.00  0.00    +0.000 C 
BRANCH  17  19
ATOM     18  C   UNL     1       2.438   4.790   9.263  0.00  0.00    +0.000 C 
ATOM     19  C   UNL     1       3.222   3.501   9.442  0.00  0.00    +0.000 C 
ENDBRANCH  17  19
ENDBRANCH  16  17
ENDBRANCH  15  16
ENDBRANCH  14  15
ENDBRANCH  13  14
ENDBRANCH  12  13
ENDBRANCH   6  12
ENDBRANCH   1   9
BRANCH   4  20
ATOM     20  C   UNL     1       1.209   8.194  21.157  0.00  0.00    +0.000 C 
BRANCH  20  21
ATOM     21  C   UNL     1      -0.146   8.867  20.945  0.00  0.00    +0.000 C 
BRANCH  21  22
ATOM     22  C   UNL     1      -0.223  10.280  21.513  0.00  0.00    +0.000 C 
ATOM     23  C   UNL     1      -0.850  10.259  22.915  0.00  0.00    +0.000 C 
ATOM     24  C   UNL     1      -1.182  11.712  23.158  0.00  0.00    +0.000 C 
ATOM     25  C   UNL     1      -1.563  12.235  21.776  0.00  0.00    +0.000 C 
ATOM     26  N   UNL     1      -1.086  11.236  20.798  0.00  0.00    +0.000 N 
ATOM     27  C   UNL     1      -1.098  11.524  19.464  0.00  0.00    +0.000 C 
ATOM     28  N   UNL     1      -1.785  12.456  18.895  0.00  0.00    +0.000 NA
ATOM     29  N   UNL     1      -0.346  10.782  18.627  0.00  0.00    +0.000 N 
ATOM     30  H   UNL     1      -2.343  12.944  19.594  0.00  0.00    +0.000 HD
ATOM     31  H   UNL     1      -0.621   9.808  18.612  0.00  0.00    +0.000 HD
ATOM     32  H   UNL     1      -0.508  11.141  17.689  0.00  0.00    +0.000 HD
ENDBRANCH  21  22
ENDBRANCH  20  21
ENDBRANCH   4  20
TORSDOF 11
ENDMDL
MODEL 3
REMARK VINA RESULT:      -8.1      3.655      5.192
REMARK  Name = 
REMARK  12 active torsions:
REMARK  status: ('A' for Active; 'I' for Inactive)
REMARK    1  A    between atoms: C_1  and  C_2
REMARK    2  A    between atoms: C_2  and  C_3
REMARK    3  A    between atoms: C_3  and  C_4
REMARK    4  A    between atoms: C_4  and  C_5
REMARK    5  A    between atoms: C_5  and  C_6
REMARK    6  A    between atoms: C_6  and  C_7
REMARK    7  A    between atoms: C_7  and  C_8
REMARK    8  A    between atoms: C_8  and  C_9
REMARK    9  A    between atoms: C_12  and  C_13
REMARK   10  A    between atoms: C_16  and  C_17
REMARK   11  A    between atoms: C_17  and  C_18
REMARK   12  A    between atoms: C_18  and  C_19
REMARK                            x       y       z     vdW  Elec       q    Type
REMARK                         _______ _______ _______ _____ _____    ______ ____
ROOT
ATOM      1  C   UNL     1       1.428   8.897  18.869  0.00  0.00    +0.000 A 
ATOM      2  N   UNL     1       0.975   9.639  17.843  0.00  0.00    +0.000 NA
ATOM      3  O   UNL     1       0.112  10.542  18.452  0.00  0.00    +0.000 OA
ATOM      4  C   UNL     1       0.139  10.257  19.781  0.00  0.00    +0.000 A 
ATOM      5  N   UNL     1       0.919   9.254  20.094  0.00  0.00    +0.000 NA
ENDROOT
BRANCH   1   9
ATOM      6  C   UNL     1       4.181   5.671  18.468  0.00  0.00    +0.000 A 
ATOM      7  C   UNL     1       4.140   6.688  17.504  0.00  0.00    +0.000 A 
ATOM      8  C   UNL     1       3.256   7.757  17.633  0.00  0.00    +0.000 A 
ATOM      9  C   UNL     1       2.385   7.817  18.724  0.00  0.00    +0.000 A 
ATOM     10  C   UNL     1       2.431   6.807  19.692  0.00  0.00    +0.000 A 
ATOM     11  C   UNL     1       3.319   5.741  19.566  0.00  0.00    +0.000 A 
BRANCH   6  12
ATOM     12  C   UNL     1       5.118   4.503  18.312  0.00  0.00    +0.000 C 
BRANCH  12  13
ATOM     13  C   UNL     1       4.689   3.565  17.185  0.00  0.00    +0.000 C 
BRANCH  13  14
ATOM     14  C   UNL     1       3.168   3.470  17.103  0.00  0.00    +0.000 C 
BRANCH  14  15
ATOM     15  C   UNL     1       2.693   2.096  17.563  0.00  0.00    +0.000 C 
BRANCH  15  16
ATOM     16  C   UNL     1       2.366   2.096  19.053  0.00  0.00    +0.000 C 
BRANCH  16  17
ATOM     17  C   UNL     1       0.962   2.647  19.301  0.00  0.00    +0.000 C 
BRANCH  17  19
ATOM     18  C   UNL     1       1.820   2.925  21.648  0.00  0.00    +0.000 C 
ATOM     19  C   UNL     1       0.920   3.498  20.567  0.00  0.00    +0.000 C 
ENDBRANCH  17  19
ENDBRANCH  16  17
ENDBRANCH  15  16
ENDBRANCH  14  15
ENDBRANCH  13  14
ENDBRANCH  12  13
ENDBRANCH   6  12
ENDBRANCH   1   9
BRANCH   4  20
ATOM     20  C   UNL     1      -0.708  11.076  20.658  0.00  0.00    +0.000 C 
BRANCH  20  21
ATOM     21  C   UNL     1      -0.933  12.459  20.049  0.00  0.00    +0.000 C 
BRANCH  21  22
ATOM     22  C   UNL     1      -2.398  12.881  20.012  0.00  0.00    +0.000 C 
ATOM     23  C   UNL     1      -3.037  12.711  21.399  0.00  0.00    +0.000 C 
ATOM     24  C   UNL     1      -4.515  12.811  21.103  0.00  0.00    +0.000 C 
ATOM     25  C   UNL     1      -4.655  12.168  19.726  0.00  0.00    +0.000 C 
ATOM     26  N   UNL     1      -3.295  12.089  19.154  0.00  0.00    +0.000 N 
ATOM     27  C   UNL     1      -3.123  11.748  17.844  0.00  0.00    +0.000 C 
ATOM     28  N   UNL     1      -3.990  11.157  17.093  0.00  0.00    +0.000 NA
ATOM     29  N   UNL     1      -1.948  12.025  17.245  0.00  0.00    +0.000 N 
ATOM     30  H   UNL     1      -4.830  10.959  17.633  0.00  0.00    +0.000 HD
ATOM     31  H   UNL     1      -1.167  11.542  17.670  0.00  0.00    +0.000 HD
ATOM     32  H   UNL     1      -2.015  11.679  16.291  0.00  0.00    +0.000 HD
ENDBRANCH  21  22
ENDBRANCH  20  21
ENDBRANCH   4  20
TORSDOF 11
ENDMDL
MODEL 4
REMARK VINA RESULT:      -8.1      1.297      1.748
REMARK  Name = 
REMARK  12 active torsions:
REMARK  status: ('A' for Active; 'I' for Inactive)
REMARK    1  A    between atoms: C_1  and  C_2
REMARK    2  A    between atoms: C_2  and  C_3
REMARK    3  A    between atoms: C_3  and  C_4
REMARK    4  A    between atoms: C_4  and  C_5
REMARK    5  A    between atoms: C_5  and  C_6
REMARK    6  A    between atoms: C_6  and  C_7
REMARK    7  A    between atoms: C_7  and  C_8
REMARK    8  A    between atoms: C_8  and  C_9
REMARK    9  A    between atoms: C_12  and  C_13
REMARK   10  A    between atoms: C_16  and  C_17
REMARK   11  A    between atoms: C_17  and  C_18
REMARK   12  A    between atoms: C_18  and  C_19
REMARK                            x       y       z     vdW  Elec       q    Type
REMARK                         _______ _______ _______ _____ _____    ______ ____
ROOT
ATOM      1  C   UNL     1       2.777   7.481  18.346  0.00  0.00    +0.000 A 
ATOM      2  N   UNL     1       2.334   7.286  19.601  0.00  0.00    +0.000 NA
ATOM      3  O   UNL     1       1.530   8.395  19.837  0.00  0.00    +0.000 OA
ATOM      4  C   UNL     1       1.565   9.139  18.700  0.00  0.00    +0.000 A 
ATOM      5  N   UNL     1       2.320   8.635  17.757  0.00  0.00    +0.000 NA
ENDROOT
BRANCH   1   9
ATOM      6  C   UNL     1       5.408   4.822  16.307  0.00  0.00    +0.000 A 
ATOM      7  C   UNL     1       4.383   4.316  17.119  0.00  0.00    +0.000 A 
ATOM      8  C   UNL     1       3.506   5.175  17.778  0.00  0.00    +0.000 A 
ATOM      9  C   UNL     1       3.650   6.560  17.646  0.00  0.00    +0.000 A 
ATOM     10  C   UNL     1       4.667   7.065  16.827  0.00  0.00    +0.000 A 
ATOM     11  C   UNL     1       5.541   6.206  16.164  0.00  0.00    +0.000 A 
BRANCH   6  12
ATOM     12  C   UNL     1       6.371   3.893  15.618  0.00  0.00    +0.000 C 
BRANCH  12  13
ATOM     13  C   UNL     1       5.937   3.566  14.189  0.00  0.00    +0.000 C 
BRANCH  13  14
ATOM     14  C   UNL     1       6.787   4.325  13.175  0.00  0.00    +0.000 C 
BRANCH  14  15
ATOM     15  C   UNL     1       6.826   3.577  11.845  0.00  0.00    +0.000 C 
BRANCH  15  16
ATOM     16  C   UNL     1       5.572   2.730  11.652  0.00  0.00    +0.000 C 
BRANCH  16  17
ATOM     17  C   UNL     1       4.328   3.612  11.569  0.00  0.00    +0.000 C 
BRANCH  17  19
ATOM     18  C   UNL     1       2.909   4.193   9.578  0.00  0.00    +0.000 C 
ATOM     19  C   UNL     1       3.349   3.088  10.522  0.00  0.00    +0.000 C 
ENDBRANCH  17  19
ENDBRANCH  16  17
ENDBRANCH  15  16
ENDBRANCH  14  15
ENDBRANCH  13  14
ENDBRANCH  12  13
ENDBRANCH   6  12
ENDBRANCH   1   9
BRANCH   4  20
ATOM     20  C   UNL     1       0.792  10.388  18.693  0.00  0.00    +0.000 C 
BRANCH  20  21
ATOM     21  C   UNL     1      -0.501  10.222  19.489  0.00  0.00    +0.000 C 
BRANCH  21  22
ATOM     22  C   UNL     1      -0.655  11.230  20.624  0.00  0.00    +0.000 C 
ATOM     23  C   UNL     1      -0.566  10.521  21.983  0.00  0.00    +0.000 C 
ATOM     24  C   UNL     1      -1.094  11.563  22.941  0.00  0.00    +0.000 C 
ATOM     25  C   UNL     1      -2.164  12.292  22.134  0.00  0.00    +0.000 C 
ATOM     26  N   UNL     1      -1.948  11.929  20.718  0.00  0.00    +0.000 N 
ATOM     27  C   UNL     1      -2.622  12.590  19.732  0.00  0.00    +0.000 C 
ATOM     28  N   UNL     1      -3.692  13.294  19.885  0.00  0.00    +0.000 NA
ATOM     29  N   UNL     1      -2.168  12.515  18.466  0.00  0.00    +0.000 N 
ATOM     30  H   UNL     1      -3.979  13.270  20.862  0.00  0.00    +0.000 HD
ATOM     31  H   UNL     1      -2.176  11.571  18.101  0.00  0.00    +0.000 HD
ATOM     32  H   UNL     1      -2.812  13.052  17.890  0.00  0.00    +0.000 HD
ENDBRANCH  21  22
ENDBRANCH  20  21
ENDBRANCH   4  20
TORSDOF 11
ENDMDL
MODEL 5
REMARK VINA RESULT:      -8.1      5.892      9.415
REMARK  Name = 
REMARK  12 active torsions:
REMARK  status: ('A' for Active; 'I' for Inactive)
REMARK    1  A    between atoms: C_1  and  C_2
REMARK    2  A    between atoms: C_2  and  C_3
REMARK    3  A    between atoms: C_3  and  C_4
REMARK    4  A    between atoms: C_4  and  C_5
REMARK    5  A    between atoms: C_5  and  C_6
REMARK    6  A    between atoms: C_6  and  C_7
REMARK    7  A    between atoms: C_7  and  C_8
REMARK    8  A    between atoms: C_8  and  C_9
REMARK    9  A    between atoms: C_12  and  C_13
REMARK   10  A    between atoms: C_16  and  C_17
REMARK   11  A    between atoms: C_17  and  C_18
REMARK   12  A    between atoms: C_18  and  C_19
REMARK                            x       y       z     vdW  Elec       q    Type
REMARK                         _______ _______ _______ _____ _____    ______ ____
ROOT
ATOM      1  C   UNL     1       4.984   5.133  17.444  0.00  0.00    +0.000 A 
ATOM      2  N   UNL     1       5.150   4.017  16.713  0.00  0.00    +0.000 NA
ATOM      3  O   UNL     1       3.882   3.449  16.696  0.00  0.00    +0.000 OA
ATOM      4  C   UNL     1       3.082   4.282  17.412  0.00  0.00    +0.000 A 
ATOM      5  N   UNL     1       3.703   5.325  17.903  0.00  0.00    +0.000 NA
ENDROOT
BRANCH   1   9
ATOM      6  C   UNL     1       8.049   7.972  18.279  0.00  0.00    +0.000 A 
ATOM      7  C   UNL     1       8.082   6.702  18.872  0.00  0.00    +0.000 A 
ATOM      8  C   UNL     1       7.095   5.760  18.594  0.00  0.00    +0.000 A 
ATOM      9  C   UNL     1       6.046   6.079  17.727  0.00  0.00    +0.000 A 
ATOM     10  C   UNL     1       6.017   7.343  17.127  0.00  0.00    +0.000 A 
ATOM     11  C   UNL     1       7.008   8.284  17.400  0.00  0.00    +0.000 A 
BRANCH   6  12
ATOM     12  C   UNL     1       9.102   8.998  18.602  0.00  0.00    +0.000 C 
BRANCH  12  13
ATOM     13  C   UNL     1       8.845  10.330  17.898  0.00  0.00    +0.000 C 
BRANCH  13  14
ATOM     14  C   UNL     1       9.246  11.503  18.787  0.00  0.00    +0.000 C 
BRANCH  14  15
ATOM     15  C   UNL     1       9.652  11.009  20.172  0.00  0.00    +0.000 C 
BRANCH  15  16
ATOM     16  C   UNL     1      10.470  12.060  20.915  0.00  0.00    +0.000 C 
BRANCH  16  17
ATOM     17  C   UNL     1       9.575  12.910  21.815  0.00  0.00    +0.000 C 
BRANCH  17  19
ATOM     18  C   UNL     1      10.269  15.311  22.085  0.00  0.00    +0.000 C 
ATOM     19  C   UNL     1       9.439  14.331  21.274  0.00  0.00    +0.000 C 
ENDBRANCH  17  19
ENDBRANCH  16  17
ENDBRANCH  15  16
ENDBRANCH  14  15
ENDBRANCH  13  14
ENDBRANCH  12  13
ENDBRANCH   6  12
ENDBRANCH   1   9
BRANCH   4  20
ATOM     20  C   UNL     1       1.671   3.897  17.555  0.00  0.00    +0.000 C 
BRANCH  20  21
ATOM     21  C   UNL     1       1.555   2.427  17.955  0.00  0.00    +0.000 C 
BRANCH  21  22
ATOM     22  C   UNL     1       1.644   2.193  19.459  0.00  0.00    +0.000 C 
ATOM     23  C   UNL     1       0.880   3.289  20.217  0.00  0.00    +0.000 C 
ATOM     24  C   UNL     1       1.370   3.122  21.636  0.00  0.00    +0.000 C 
ATOM     25  C   UNL     1       2.824   2.689  21.471  0.00  0.00    +0.000 C 
ATOM     26  N   UNL     1       2.985   2.270  20.064  0.00  0.00    +0.000 N 
ATOM     27  C   UNL     1       4.126   1.636  19.665  0.00  0.00    +0.000 C 
ATOM     28  N   UNL     1       5.253   1.634  20.294  0.00  0.00    +0.000 NA
ATOM     29  N   UNL     1       4.122   0.948  18.507  0.00  0.00    +0.000 N 
ATOM     30  H   UNL     1       5.173   2.200  21.137  0.00  0.00    +0.000 HD
ATOM     31  H   UNL     1       3.940   1.535  17.702  0.00  0.00    +0.000 HD
ATOM     32  H   UNL     1       5.059   0.572  18.383  0.00  0.00    +0.000 HD
ENDBRANCH  21  22
ENDBRANCH  20  21
ENDBRANCH   4  20
TORSDOF 11
ENDMDL
MODEL 6
REMARK VINA RESULT:      -8.0      6.672      8.955
REMARK  Name = 
REMARK  12 active torsions:
REMARK  status: ('A' for Active; 'I' for Inactive)
REMARK    1  A    between atoms: C_1  and  C_2
REMARK    2  A    between atoms: C_2  and  C_3
REMARK    3  A    between atoms: C_3  and  C_4
REMARK    4  A    between atoms: C_4  and  C_5
REMARK    5  A    between atoms: C_5  and  C_6
REMARK    6  A    between atoms: C_6  and  C_7
REMARK    7  A    between atoms: C_7  and  C_8
REMARK    8  A    between atoms: C_8  and  C_9
REMARK    9  A    between atoms: C_12  and  C_13
REMARK   10  A    between atoms: C_16  and  C_17
REMARK   11  A    between atoms: C_17  and  C_18
REMARK   12  A    between atoms: C_18  and  C_19
REMARK                            x       y       z     vdW  Elec       q    Type
REMARK                         _______ _______ _______ _____ _____    ______ ____
ROOT
ATOM      1  C   UNL     1       8.002   8.329  18.112  0.00  0.00    +0.000 A 
ATOM      2  N   UNL     1       8.850   8.290  19.155  0.00  0.00    +0.000 NA
ATOM      3  O   UNL     1       9.371   9.577  19.198  0.00  0.00    +0.000 OA
ATOM      4  C   UNL     1       8.780  10.261  18.182  0.00  0.00    +0.000 A 
ATOM      5  N   UNL     1       7.940   9.545  17.477  0.00  0.00    +0.000 NA
ENDROOT
BRANCH   1   9
ATOM      6  C   UNL     1       5.625   5.054  16.779  0.00  0.00    +0.000 A 
ATOM      7  C   UNL     1       6.830   4.822  17.458  0.00  0.00    +0.000 A 
ATOM      8  C   UNL     1       7.608   5.884  17.913  0.00  0.00    +0.000 A 
ATOM      9  C   UNL     1       7.199   7.201  17.683  0.00  0.00    +0.000 A 
ATOM     10  C   UNL     1       5.991   7.434  17.013  0.00  0.00    +0.000 A 
ATOM     11  C   UNL     1       5.211   6.371  16.563  0.00  0.00    +0.000 A 
BRANCH   6  12
ATOM     12  C   UNL     1       4.800   3.905  16.264  0.00  0.00    +0.000 C 
BRANCH  12  13
ATOM     13  C   UNL     1       3.556   3.659  17.117  0.00  0.00    +0.000 C 
BRANCH  13  14
ATOM     14  C   UNL     1       3.852   2.668  18.239  0.00  0.00    +0.000 C 
BRANCH  14  15
ATOM     15  C   UNL     1       4.090   3.405  19.553  0.00  0.00    +0.000 C 
BRANCH  15  16
ATOM     16  C   UNL     1       3.126   4.578  19.710  0.00  0.00    +0.000 C 
BRANCH  16  17
ATOM     17  C   UNL     1       2.392   4.503  21.047  0.00  0.00    +0.000 C 
BRANCH  17  19
ATOM     18  C   UNL     1       0.578   3.166  19.932  0.00  0.00    +0.000 C 
ATOM     19  C   UNL     1       1.514   3.257  21.125  0.00  0.00    +0.000 C 
ENDBRANCH  17  19
ENDBRANCH  16  17
ENDBRANCH  15  16
ENDBRANCH  14  15
ENDBRANCH  13  14
ENDBRANCH  12  13
ENDBRANCH   6  12
ENDBRANCH   1   9
BRANCH   4  20
ATOM     20  C   UNL     1       9.172  11.665  18.003  0.00  0.00    +0.000 C 
BRANCH  20  21
ATOM     21  C   UNL     1      10.693  11.801  18.002  0.00  0.00    +0.000 C 
BRANCH  21  22
ATOM     22  C   UNL     1      11.196  13.061  18.699  0.00  0.00    +0.000 C 
ATOM     23  C   UNL     1      10.546  13.201  20.083  0.00  0.00    +0.000 C 
ATOM     24  C   UNL     1      10.854  14.632  20.456  0.00  0.00    +0.000 C 
ATOM     25  C   UNL     1      10.807  15.374  19.124  0.00  0.00    +0.000 C 
ATOM     26  N   UNL     1      10.864  14.347  18.064  0.00  0.00    +0.000 N 
ATOM     27  C   UNL     1      11.047  14.716  16.763  0.00  0.00    +0.000 C 
ATOM     28  N   UNL     1      10.855  15.895  16.274  0.00  0.00    +0.000 NA
ATOM     29  N   UNL     1      11.454  13.792  15.871  0.00  0.00    +0.000 N 
ATOM     30  H   UNL     1      10.522  16.518  17.007  0.00  0.00    +0.000 HD
ATOM     31  H   UNL     1      10.791  13.034  15.761  0.00  0.00    +0.000 HD
ATOM     32  H   UNL     1      11.511  14.257  14.969  0.00  0.00    +0.000 HD
ENDBRANCH  21  22
ENDBRANCH  20  21
ENDBRANCH   4  20
TORSDOF 11
ENDMDL
MODEL 7
REMARK VINA RESULT:      -8.0      3.883      9.955
REMARK  Name = 
REMARK  12 active torsions:
REMARK  status: ('A' for Active; 'I' for Inactive)
REMARK    1  A    between atoms: C_1  and  C_2
REMARK    2  A    between atoms: C_2  and  C_3
REMARK    3  A    between atoms: C_3  and  C_4
REMARK    4  A    between atoms: C_4  and  C_5
REMARK    5  A    between atoms: C_5  and  C_6
REMARK    6  A    between atoms: C_6  and  C_7
REMARK    7  A    between atoms: C_7  and  C_8
REMARK    8  A    between atoms: C_8  and  C_9
REMARK    9  A    between atoms: C_12  and  C_13
REMARK   10  A    between atoms: C_16  and  C_17
REMARK   11  A    between atoms: C_17  and  C_18
REMARK   12  A    between atoms: C_18  and  C_19
REMARK                            x       y       z     vdW  Elec       q    Type
REMARK                         _______ _______ _______ _____ _____    ______ ____
ROOT
ATOM      1  C   UNL     1       1.685   8.795  19.186  0.00  0.00    +0.000 A 
ATOM      2  N   UNL     1       1.856   9.346  17.971  0.00  0.00    +0.000 NA
ATOM      3  O   UNL     1       2.623   8.406  17.294  0.00  0.00    +0.000 OA
ATOM      4  C   UNL     1       2.829   7.384  18.166  0.00  0.00    +0.000 A 
ATOM      5  N   UNL     1       2.287   7.570  19.342  0.00  0.00    +0.000 NA
ENDROOT
BRANCH   1   9
ATOM      6  C   UNL     1      -0.585  10.668  22.266  0.00  0.00    +0.000 A 
ATOM      7  C   UNL     1      -0.566   9.271  22.153  0.00  0.00    +0.000 A 
ATOM      8  C   UNL     1       0.185   8.646  21.161  0.00  0.00    +0.000 A 
ATOM      9  C   UNL     1       0.921   9.413  20.252  0.00  0.00    +0.000 A 
ATOM     10  C   UNL     1       0.910  10.808  20.370  0.00  0.00    +0.000 A 
ATOM     11  C   UNL     1       0.163  11.432  21.366  0.00  0.00    +0.000 A 
BRANCH   6  12
ATOM     12  C   UNL     1      -1.420  11.343  23.322  0.00  0.00    +0.000 C 
BRANCH  12  13
ATOM     13  C   UNL     1      -1.975  12.686  22.849  0.00  0.00    +0.000 C 
BRANCH  13  14
ATOM     14  C   UNL     1      -3.383  12.525  22.284  0.00  0.00    +0.000 C 
BRANCH  14  15
ATOM     15  C   UNL     1      -3.593  13.464  21.100  0.00  0.00    +0.000 C 
BRANCH  15  16
ATOM     16  C   UNL     1      -2.544  13.230  20.018  0.00  0.00    +0.000 C 
BRANCH  16  17
ATOM     17  C   UNL     1      -2.755  11.878  19.340  0.00  0.00    +0.000 C 
BRANCH  17  19
ATOM     18  C   UNL     1      -1.761  10.249  17.703  0.00  0.00    +0.000 C 
ATOM     19  C   UNL     1      -1.801  11.696  18.162  0.00  0.00    +0.000 C 
ENDBRANCH  17  19
ENDBRANCH  16  17
ENDBRANCH  15  16
ENDBRANCH  14  15
ENDBRANCH  13  14
ENDBRANCH  12  13
ENDBRANCH   6  12
ENDBRANCH   1   9
BRANCH   4  20
ATOM     20  C   UNL     1       3.632   6.249  17.689  0.00  0.00    +0.000 C 
BRANCH  20  21
ATOM     21  C   UNL     1       4.316   5.547  18.861  0.00  0.00    +0.000 C 
BRANCH  21  22
ATOM     22  C   UNL     1       4.024   4.052  18.934  0.00  0.00    +0.000 C 
ATOM     23  C   UNL     1       4.215   3.403  17.555  0.00  0.00    +0.000 C 
ATOM     24  C   UNL     1       3.548   2.058  17.721  0.00  0.00    +0.000 C 
ATOM     25  C   UNL     1       2.384   2.343  18.665  0.00  0.00    +0.000 C 
ATOM     26  N   UNL     1       2.646   3.662  19.276  0.00  0.00    +0.000 N 
ATOM     27  C   UNL     1       1.883   4.097  20.321  0.00  0.00    +0.000 C 
ATOM     28  N   UNL     1       0.724   3.639  20.657  0.00  0.00    +0.000 NA
ATOM     29  N   UNL     1       2.340   5.103  21.092  0.00  0.00    +0.000 N 
ATOM     30  H   UNL     1       0.445   2.906  20.006  0.00  0.00    +0.000 HD
ATOM     31  H   UNL     1       2.464   5.966  20.577  0.00  0.00    +0.000 HD
ATOM     32  H   UNL     1       1.626   5.286  21.792  0.00  0.00    +0.000 HD
ENDBRANCH  21  22
ENDBRANCH  20  21
ENDBRANCH   4  20
TORSDOF 11
ENDMDL
MODEL 8
REMARK VINA RESULT:      -8.0      4.181     10.485
REMARK  Name = 
REMARK  12 active torsions:
REMARK  status: ('A' for Active; 'I' for Inactive)
REMARK    1  A    between atoms: C_1  and  C_2
REMARK    2  A    between atoms: C_2  and  C_3
REMARK    3  A    between atoms: C_3  and  C_4
REMARK    4  A    between atoms: C_4  and  C_5
REMARK    5  A    between atoms: C_5  and  C_6
REMARK    6  A    between atoms: C_6  and  C_7
REMARK    7  A    between atoms: C_7  and  C_8
REMARK    8  A    between atoms: C_8  and  C_9
REMARK    9  A    between atoms: C_12  and  C_13
REMARK   10  A    between atoms: C_16  and  C_17
REMARK   11  A    between atoms: C_17  and  C_18
REMARK   12  A    between atoms: C_18  and  C_19
REMARK                            x       y       z     vdW  Elec       q    Type
REMARK                         _______ _______ _______ _____ _____    ______ ____
ROOT
ATOM      1  C   UNL     1       1.512   9.432  18.453  0.00  0.00    +0.000 A 
ATOM      2  N   UNL     1       2.245   9.371  17.327  0.00  0.00    +0.000 NA
ATOM      3  O   UNL     1       2.945   8.179  17.461  0.00  0.00    +0.000 OA
ATOM      4  C   UNL     1       2.558   7.641  18.648  0.00  0.00    +0.000 A 
ATOM      5  N   UNL     1       1.690   8.369  19.304  0.00  0.00    +0.000 NA
ENDROOT
BRANCH   1   9
ATOM      6  C   UNL     1      -1.236  12.547  19.399  0.00  0.00    +0.000 A 
ATOM      7  C   UNL     1       0.143  12.800  19.394  0.00  0.00    +0.000 A 
ATOM      8  C   UNL     1       1.050  11.794  19.070  0.00  0.00    +0.000 A 
ATOM      9  C   UNL     1       0.592  10.510  18.760  0.00  0.00    +0.000 A 
ATOM     10  C   UNL     1      -0.786  10.260  18.756  0.00  0.00    +0.000 A 
ATOM     11  C   UNL     1      -1.693  11.267  19.074  0.00  0.00    +0.000 A 
BRANCH   6  12
ATOM     12  C   UNL     1      -2.214  13.629  19.776  0.00  0.00    +0.000 C 
BRANCH  12  13
ATOM     13  C   UNL     1      -3.428  13.075  20.520  0.00  0.00    +0.000 C 
BRANCH  13  14
ATOM     14  C   UNL     1      -3.340  13.381  22.012  0.00  0.00    +0.000 C 
BRANCH  14  15
ATOM     15  C   UNL     1      -2.721  12.206  22.763  0.00  0.00    +0.000 C 
BRANCH  15  16
ATOM     16  C   UNL     1      -1.251  12.464  23.075  0.00  0.00    +0.000 C 
BRANCH  16  17
ATOM     17  C   UNL     1      -0.374  11.331  22.545  0.00  0.00    +0.000 C 
BRANCH  17  19
ATOM     18  C   UNL     1      -0.385   8.841  22.198  0.00  0.00    +0.000 C 
ATOM     19  C   UNL     1      -0.822   9.982  23.101  0.00  0.00    +0.000 C 
ENDBRANCH  17  19
ENDBRANCH  16  17
ENDBRANCH  15  16
ENDBRANCH  14  15
ENDBRANCH  13  14
ENDBRANCH  12  13
ENDBRANCH   6  12
ENDBRANCH   1   9
BRANCH   4  20
ATOM     20  C   UNL     1       3.170   6.363  19.035  0.00  0.00    +0.000 C 
BRANCH  20  21
ATOM     21  C   UNL     1       3.490   5.525  17.798  0.00  0.00    +0.000 C 
BRANCH  21  22
ATOM     22  C   UNL     1       2.904   4.118  17.844  0.00  0.00    +0.000 C 
ATOM     23  C   UNL     1       1.392   4.177  18.106  0.00  0.00    +0.000 C 
ATOM     24  C   UNL     1       1.058   2.752  18.479  0.00  0.00    +0.000 C 
ATOM     25  C   UNL     1       2.299   2.271  19.226  0.00  0.00    +0.000 C 
ATOM     26  N   UNL     1       3.376   3.238  18.926  0.00  0.00    +0.000 N 
ATOM     27  C   UNL     1       4.663   2.962  19.286  0.00  0.00    +0.000 C 
ATOM     28  N   UNL     1       5.036   2.090  20.161  0.00  0.00    +0.000 NA
ATOM     29  N   UNL     1       5.666   3.649  18.707  0.00  0.00    +0.000 N 
ATOM     30  H   UNL     1       4.216   1.642  20.568  0.00  0.00    +0.000 HD
ATOM     31  H   UNL     1       5.625   4.642  18.900  0.00  0.00    +0.000 HD
ATOM     32  H   UNL     1       6.532   3.311  19.120  0.00  0.00    +0.000 HD
ENDBRANCH  21  22
ENDBRANCH  20  21
ENDBRANCH   4  20
TORSDOF 11
ENDMDL
MODEL 9
REMARK VINA RESULT:      -7.9      3.775      5.572
REMARK  Name = 
REMARK  12 active torsions:
REMARK  status: ('A' for Active; 'I' for Inactive)
REMARK    1  A    between atoms: C_1  and  C_2
REMARK    2  A    between atoms: C_2  and  C_3
REMARK    3  A    between atoms: C_3  and  C_4
REMARK    4  A    between atoms: C_4  and  C_5
REMARK    5  A    between atoms: C_5  and  C_6
REMARK    6  A    between atoms: C_6  and  C_7
REMARK    7  A    between atoms: C_7  and  C_8
REMARK    8  A    between atoms: C_8  and  C_9
REMARK    9  A    between atoms: C_12  and  C_13
REMARK   10  A    between atoms: C_16  and  C_17
REMARK   11  A    between atoms: C_17  and  C_18
REMARK   12  A    between atoms: C_18  and  C_19
REMARK                            x       y       z     vdW  Elec       q    Type
REMARK                         _______ _______ _______ _____ _____    ______ ____
ROOT
ATOM      1  C   UNL     1       1.014   9.263  19.202  0.00  0.00    +0.000 A 
ATOM      2  N   UNL     1       0.495   9.424  20.432  0.00  0.00    +0.000 NA
ATOM      3  O   UNL     1      -0.446  10.431  20.258  0.00  0.00    +0.000 OA
ATOM      4  C   UNL     1      -0.402  10.769  18.942  0.00  0.00    +0.000 A 
ATOM      5  N   UNL     1       0.480  10.095  18.249  0.00  0.00    +0.000 NA
ENDROOT
BRANCH   1   9
ATOM      6  C   UNL     1       3.982   6.348  18.286  0.00  0.00    +0.000 A 
ATOM      7  C   UNL     1       3.721   7.395  17.390  0.00  0.00    +0.000 A 
ATOM      8  C   UNL     1       2.765   8.363  17.687  0.00  0.00    +0.000 A 
ATOM      9  C   UNL     1       2.041   8.291  18.880  0.00  0.00    +0.000 A 
ATOM     10  C   UNL     1       2.308   7.251  19.779  0.00  0.00    +0.000 A 
ATOM     11  C   UNL     1       3.269   6.286  19.485  0.00  0.00    +0.000 A 
BRANCH   6  12
ATOM     12  C   UNL     1       4.997   5.286  17.951  0.00  0.00    +0.000 C 
BRANCH  12  13
ATOM     13  C   UNL     1       4.487   4.316  16.887  0.00  0.00    +0.000 C 
BRANCH  13  14
ATOM     14  C   UNL     1       3.739   3.150  17.526  0.00  0.00    +0.000 C 
BRANCH  14  15
ATOM     15  C   UNL     1       2.260   3.195  17.153  0.00  0.00    +0.000 C 
BRANCH  15  16
ATOM     16  C   UNL     1       1.415   3.710  18.313  0.00  0.00    +0.000 C 
BRANCH  16  17
ATOM     17  C   UNL     1       1.045   2.572  19.262  0.00  0.00    +0.000 C 
BRANCH  17  19
ATOM     18  C   UNL     1       2.313   3.422  21.260  0.00  0.00    +0.000 C 
ATOM     19  C   UNL     1       0.945   3.066  20.703  0.00  0.00    +0.000 C 
ENDBRANCH  17  19
ENDBRANCH  16  17
ENDBRANCH  15  16
ENDBRANCH  14  15
ENDBRANCH  13  14
ENDBRANCH  12  13
ENDBRANCH   6  12
ENDBRANCH   1   9
BRANCH   4  20
ATOM     20  C   UNL     1      -1.308  11.835  18.493  0.00  0.00    +0.000 C 
BRANCH  20  21
ATOM     21  C   UNL     1      -0.514  13.052  18.024  0.00  0.00    +0.000 C 
BRANCH  21  22
ATOM     22  C   UNL     1       0.286  13.727  19.133  0.00  0.00    +0.000 C 
ATOM     23  C   UNL     1      -0.457  14.969  19.647  0.00  0.00    +0.000 C 
ATOM     24  C   UNL     1       0.605  15.693  20.440  0.00  0.00    +0.000 C 
ATOM     25  C   UNL     1       1.893  15.404  19.674  0.00  0.00    +0.000 C 
ATOM     26  N   UNL     1       1.600  14.279  18.762  0.00  0.00    +0.000 N 
ATOM     27  C   UNL     1       2.615  13.658  18.093  0.00  0.00    +0.000 C 
ATOM     28  N   UNL     1       3.797  14.136  17.895  0.00  0.00    +0.000 NA
ATOM     29  N   UNL     1       2.401  12.437  17.564  0.00  0.00    +0.000 N 
ATOM     30  H   UNL     1       3.860  15.068  18.300  0.00  0.00    +0.000 HD
ATOM     31  H   UNL     1       1.679  12.438  16.854  0.00  0.00    +0.000 HD
ATOM     32  H   UNL     1       3.262  12.162  17.099  0.00  0.00    +0.000 HD
ENDBRANCH  21  22
ENDBRANCH  20  21
ENDBRANCH   4  20
TORSDOF 11
ENDMDL
