MODEL 1
REMARK VINA RESULT:      -7.7      0.000      0.000
REMARK  Name = 
REMARK  6 active torsions:
REMARK  status: ('A' for Active; 'I' for Inactive)
REMARK    1  A    between atoms: C_1  and  O_2
REMARK    2  A    between atoms: O_2  and  C_3
REMARK    3  A    between atoms: C_3  and  C_4
REMARK    4  A    between atoms: C_4  and  N_5
REMARK    5  A    between atoms: C_7  and  C_8
REMARK    6  A    between atoms: C_8  and  C_9
REMARK                            x       y       z     vdW  Elec       q    Type
REMARK                         _______ _______ _______ _____ _____    ______ ____
ROOT
ATOM      1  C   UNL     1       3.643   6.169  17.853  0.00  0.00    +0.000 C 
ENDROOT
BRANCH   1   2
ATOM      2  C   UNL     1       3.160   4.723  17.997  0.00  0.00    +0.000 A 
ATOM      3  C   UNL     1       3.230   3.861  16.881  0.00  0.00    +0.000 A 
ATOM      4  C   UNL     1       2.745   2.550  16.948  0.00  0.00    +0.000 A 
ATOM      5  C   UNL     1       2.212   2.070  18.137  0.00  0.00    +0.000 A 
ATOM      6  C   UNL     1       2.195   2.868  19.280  0.00  0.00    +0.000 A 
ATOM      7  C   UNL     1       1.707   2.335  20.479  0.00  0.00    +0.000 A 
ATOM      8  C   UNL     1       1.701   3.078  21.655  0.00  0.00    +0.000 A 
ATOM      9  C   UNL     1       2.182   4.387  21.635  0.00  0.00    +0.000 A 
ATOM     10  C   UNL     1       2.652   4.941  20.445  0.00  0.00    +0.000 A 
ATOM     11  C   UNL     1       2.676   4.211  19.233  0.00  0.00    +0.000 A 
ENDBRANCH   1   2
BRANCH   1  14
ATOM     12  N   UNL     1       6.536   5.386  15.770  0.00  0.00    +0.000 N 
ATOM     13  C   UNL     1       5.291   6.115  15.858  0.00  0.00    +0.000 C 
ATOM     14  C   UNL     1       5.083   6.382  17.347  0.00  0.00    +0.000 C 
ATOM     15  C   UNL     1       6.087   5.454  18.062  0.00  0.00    +0.000 C 
ATOM     16  C   UNL     1       7.044   5.006  16.992  0.00  0.00    +0.000 C 
ATOM     17  O   UNL     1       8.060   4.362  17.205  0.00  0.00    +0.000 OA
BRANCH  12  18
ATOM     18  C   UNL     1       7.065   4.887  14.505  0.00  0.00    +0.000 C 
BRANCH  18  19
ATOM     19  C   UNL     1       6.212   3.792  13.862  0.00  0.00    +0.000 C 
BRANCH  19  21
ATOM     20  C   UNL     1       5.635   2.796  11.808  0.00  0.00    +0.000 C 
ATOM     21  O   UNL     1       6.505   3.703  12.467  0.00  0.00    +0.000 OA
ENDBRANCH  19  21
ENDBRANCH  18  19
ENDBRANCH  12  18
ENDBRANCH   1  14
TORSDOF 5
ENDMDL
MODEL 2
REMARK VINA RESULT:      -7.7      1.987      3.952
REMARK  Name = 
REMARK  6 active torsions:
REMARK  status: ('A' for Active; 'I' for Inactive)
REMARK    1  A    between atoms: C_1  and  O_2
REMARK    2  A    between atoms: O_2  and  C_3
REMARK    3  A    between atoms: C_3  and  C_4
REMARK    4  A    between atoms: C_4  and  N_5
REMARK    5  A    between atoms: C_7  and  C_8
REMARK    6  A    between atoms: C_8  and  C_9
REMARK                            x       y       z     vdW  Elec       q    Type
REMARK                         _______ _______ _______ _____ _____    ______ ____
ROOT
ATOM      1  C   UNL     1       3.351   3.597  16.942  0.00  0.00    +0.000 C 
ENDROOT
BRANCH   1   2
ATOM      2  C   UNL     1       2.737   3.795  18.330  0.00  0.00    +0.000 A 
ATOM      3  C   UNL     1       2.481   2.664  19.136  0.00  0.00    +0.000 A 
ATOM      4  C   UNL     1       1.867   2.789  20.386  0.00  0.00    +0.000 A 
ATOM      5  C   UNL     1       1.526   4.048  20.866  0.00  0.00    +0.000 A 
ATOM      6  C   UNL     1       1.832   5.193  20.131  0.00  0.00    +0.000 A 
ATOM      7  C   UNL     1       1.531   6.450  20.669  0.00  0.00    +0.000 A 
ATOM      8  C   UNL     1       1.847   7.624  19.991  0.00  0.00    +0.000 A 
ATOM      9  C   UNL     1       2.468   7.544  18.745  0.00  0.00    +0.000 A 
ATOM     10  C   UNL     1       2.754   6.300  18.185  0.00  0.00    +0.000 A 
ATOM     11  C   UNL     1       2.451   5.088  18.850  0.00  0.00    +0.000 A 
ENDBRANCH   1   2
BRANCH   1  14
ATOM     12  N   UNL     1       6.671   5.096  17.159  0.00  0.00    +0.000 N 
ATOM     13  C   UNL     1       5.612   4.432  17.884  0.00  0.00    +0.000 C 
ATOM     14  C   UNL     1       4.889   3.573  16.849  0.00  0.00    +0.000 C 
ATOM     15  C   UNL     1       5.389   4.090  15.484  0.00  0.00    +0.000 C 
ATOM     16  C   UNL     1       6.607   4.917  15.795  0.00  0.00    +0.000 C 
ATOM     17  O   UNL     1       7.355   5.385  14.949  0.00  0.00    +0.000 OA
BRANCH  12  18
ATOM     18  C   UNL     1       7.566   6.062  17.787  0.00  0.00    +0.000 C 
BRANCH  18  19
ATOM     19  C   UNL     1       7.057   7.503  17.741  0.00  0.00    +0.000 C 
BRANCH  19  21
ATOM     20  C   UNL     1       8.441   9.359  18.172  0.00  0.00    +0.000 C 
ATOM     21  O   UNL     1       8.077   8.363  17.229  0.00  0.00    +0.000 OA
ENDBRANCH  19  21
ENDBRANCH  18  19
ENDBRANCH  12  18
ENDBRANCH   1  14
TORSDOF 5
ENDMDL
MODEL 3
REMARK VINA RESULT:      -7.7      0.995      2.395
REMARK  Name = 
REMARK  6 active torsions:
REMARK  status: ('A' for Active; 'I' for Inactive)
REMARK    1  A    between atoms: C_1  and  O_2
REMARK    2  A    between atoms: O_2  and  C_3
REMARK    3  A    between atoms: C_3  and  C_4
REMARK    4  A    between atoms: C_4  and  N_5
REMARK    5  A    between atoms: C_7  and  C_8
REMARK    6  A    between atoms: C_8  and  C_9
REMARK                            x       y       z     vdW  Elec       q    Type
REMARK                         _______ _______ _______ _____ _____    ______ ____
ROOT
ATOM      1  C   UNL     1       3.293   6.950  17.483  0.00  0.00    +0.000 C 
ENDROOT
BRANCH   1   2
ATOM      2  C   UNL     1       2.637   6.175  18.629  0.00  0.00    +0.000 A 
ATOM      3  C   UNL     1       2.213   6.876  19.778  0.00  0.00    +0.000 A 
ATOM      4  C   UNL     1       1.663   6.204  20.875  0.00  0.00    +0.000 A 
ATOM      5  C   UNL     1       1.500   4.825  20.830  0.00  0.00    +0.000 A 
ATOM      6  C   UNL     1       1.839   4.109  19.683  0.00  0.00    +0.000 A 
ATOM      7  C   UNL     1       1.606   2.728  19.646  0.00  0.00    +0.000 A 
ATOM      8  C   UNL     1       1.894   1.974  18.512  0.00  0.00    +0.000 A 
ATOM      9  C   UNL     1       2.436   2.606  17.394  0.00  0.00    +0.000 A 
ATOM     10  C   UNL     1       2.694   3.976  17.421  0.00  0.00    +0.000 A 
ATOM     11  C   UNL     1       2.409   4.773  18.555  0.00  0.00    +0.000 A 
ENDBRANCH   1   2
BRANCH   1  14
ATOM     12  N   UNL     1       6.376   5.312  16.419  0.00  0.00    +0.000 N 
ATOM     13  C   UNL     1       5.308   6.208  16.039  0.00  0.00    +0.000 C 
ATOM     14  C   UNL     1       4.823   6.838  17.342  0.00  0.00    +0.000 C 
ATOM     15  C   UNL     1       5.440   5.969  18.458  0.00  0.00    +0.000 C 
ATOM     16  C   UNL     1       6.511   5.157  17.782  0.00  0.00    +0.000 C 
ATOM     17  O   UNL     1       7.309   4.444  18.371  0.00  0.00    +0.000 OA
BRANCH  12  18
ATOM     18  C   UNL     1       7.071   4.466  15.456  0.00  0.00    +0.000 C 
BRANCH  18  19
ATOM     19  C   UNL     1       6.153   3.823  14.415  0.00  0.00    +0.000 C 
BRANCH  19  21
ATOM     20  C   UNL     1       6.189   3.182  12.149  0.00  0.00    +0.000 C 
ATOM     21  O   UNL     1       6.606   4.150  13.099  0.00  0.00    +0.000 OA
ENDBRANCH  19  21
ENDBRANCH  18  19
ENDBRANCH  12  18
ENDBRANCH   1  14
TORSDOF 5
ENDMDL
MODEL 4
REMARK VINA RESULT:      -7.6      1.652      3.669
REMARK  Name = 
REMARK  6 active torsions:
REMARK  status: ('A' for Active; 'I' for Inactive)
REMARK    1  A    between atoms: C_1  and  O_2
REMARK    2  A    between atoms: O_2  and  C_3
REMARK    3  A    between atoms: C_3  and  C_4
REMARK    4  A    between atoms: C_4  and  N_5
REMARK    5  A    between atoms: C_7  and  C_8
REMARK    6  A    between atoms: C_8  and  C_9
REMARK                            x       y       z     vdW  Elec       q    Type
REMARK                         _______ _______ _______ _____ _____    ______ ____
ROOT
ATOM      1  C   UNL     1       3.325   4.069  16.549  0.00  0.00    +0.000 C 
ENDROOT
BRANCH   1   2
ATOM      2  C   UNL     1       2.911   4.779  17.840  0.00  0.00    +0.000 A 
ATOM      3  C   UNL     1       2.978   6.189  17.900  0.00  0.00    +0.000 A 
ATOM      4  C   UNL     1       2.668   6.879  19.077  0.00  0.00    +0.000 A 
ATOM      5  C   UNL     1       2.256   6.176  20.202  0.00  0.00    +0.000 A 
ATOM      6  C   UNL     1       2.106   4.791  20.157  0.00  0.00    +0.000 A 
ATOM      7  C   UNL     1       1.630   4.118  21.289  0.00  0.00    +0.000 A 
ATOM      8  C   UNL     1       1.429   2.741  21.284  0.00  0.00    +0.000 A 
ATOM      9  C   UNL     1       1.718   2.015  20.129  0.00  0.00    +0.000 A 
ATOM     10  C   UNL     1       2.214   2.666  19.000  0.00  0.00    +0.000 A 
ATOM     11  C   UNL     1       2.424   4.066  18.970  0.00  0.00    +0.000 A 
ENDBRANCH   1   2
BRANCH   1  14
ATOM     12  N   UNL     1       6.899   4.496  17.150  0.00  0.00    +0.000 N 
ATOM     13  C   UNL     1       5.666   3.926  17.643  0.00  0.00    +0.000 C 
ATOM     14  C   UNL     1       4.809   3.680  16.403  0.00  0.00    +0.000 C 
ATOM     15  C   UNL     1       5.502   4.474  15.276  0.00  0.00    +0.000 C 
ATOM     16  C   UNL     1       6.869   4.805  15.807  0.00  0.00    +0.000 C 
ATOM     17  O   UNL     1       7.759   5.317  15.145  0.00  0.00    +0.000 OA
BRANCH  12  18
ATOM     18  C   UNL     1       7.972   4.931  18.036  0.00  0.00    +0.000 C 
BRANCH  18  19
ATOM     19  C   UNL     1       7.570   6.051  18.998  0.00  0.00    +0.000 C 
BRANCH  19  21
ATOM     20  C   UNL     1       7.769   7.944  17.612  0.00  0.00    +0.000 C 
ATOM     21  O   UNL     1       8.320   7.232  18.709  0.00  0.00    +0.000 OA
ENDBRANCH  19  21
ENDBRANCH  18  19
ENDBRANCH  12  18
ENDBRANCH   1  14
TORSDOF 5
ENDMDL
MODEL 5
REMARK VINA RESULT:      -7.4      1.621      2.783
REMARK  Name = 
REMARK  6 active torsions:
REMARK  status: ('A' for Active; 'I' for Inactive)
REMARK    1  A    between atoms: C_1  and  O_2
REMARK    2  A    between atoms: O_2  and  C_3
REMARK    3  A    between atoms: C_3  and  C_4
REMARK    4  A    between atoms: C_4  and  N_5
REMARK    5  A    between atoms: C_7  and  C_8
REMARK    6  A    between atoms: C_8  and  C_9
REMARK                            x       y       z     vdW  Elec       q    Type
REMARK                         _______ _______ _______ _____ _____    ______ ____
ROOT
ATOM      1  C   UNL     1       4.809   4.047  16.686  0.00  0.00    +0.000 C 
ENDROOT
BRANCH   1   2
ATOM      2  C   UNL     1       3.851   4.771  17.635  0.00  0.00    +0.000 A 
ATOM      3  C   UNL     1       3.861   6.182  17.678  0.00  0.00    +0.000 A 
ATOM      4  C   UNL     1       3.047   6.886  18.571  0.00  0.00    +0.000 A 
ATOM      5  C   UNL     1       2.187   6.193  19.415  0.00  0.00    +0.000 A 
ATOM      6  C   UNL     1       2.096   4.804  19.349  0.00  0.00    +0.000 A 
ATOM      7  C   UNL     1       1.176   4.140  20.169  0.00  0.00    +0.000 A 
ATOM      8  C   UNL     1       1.021   2.758  20.116  0.00  0.00    +0.000 A 
ATOM      9  C   UNL     1       1.808   2.019  19.234  0.00  0.00    +0.000 A 
ATOM     10  C   UNL     1       2.744   2.662  18.425  0.00  0.00    +0.000 A 
ATOM     11  C   UNL     1       2.923   4.065  18.451  0.00  0.00    +0.000 A 
ENDBRANCH   1   2
BRANCH   1  14
ATOM     12  N   UNL     1       6.400   4.301  13.412  0.00  0.00    +0.000 N 
ATOM     13  C   UNL     1       5.192   3.962  14.128  0.00  0.00    +0.000 C 
ATOM     14  C   UNL     1       5.232   4.795  15.407  0.00  0.00    +0.000 C 
ATOM     15  C   UNL     1       6.682   5.315  15.499  0.00  0.00    +0.000 C 
ATOM     16  C   UNL     1       7.272   5.087  14.134  0.00  0.00    +0.000 C 
ATOM     17  O   UNL     1       8.369   5.493  13.782  0.00  0.00    +0.000 OA
BRANCH  12  18
ATOM     18  C   UNL     1       6.769   3.667  12.151  0.00  0.00    +0.000 C 
BRANCH  18  19
ATOM     19  C   UNL     1       5.899   2.465  11.780  0.00  0.00    +0.000 C 
BRANCH  19  21
ATOM     20  C   UNL     1       6.086   0.192  11.196  0.00  0.00    +0.000 C 
ATOM     21  O   UNL     1       6.693   1.472  11.128  0.00  0.00    +0.000 OA
ENDBRANCH  19  21
ENDBRANCH  18  19
ENDBRANCH  12  18
ENDBRANCH   1  14
TORSDOF 5
ENDMDL
MODEL 6
REMARK VINA RESULT:      -7.3      1.595      2.757
REMARK  Name = 
REMARK  6 active torsions:
REMARK  status: ('A' for Active; 'I' for Inactive)
REMARK    1  A    between atoms: C_1  and  O_2
REMARK    2  A    between atoms: O_2  and  C_3
REMARK    3  A    between atoms: C_3  and  C_4
REMARK    4  A    between atoms: C_4  and  N_5
REMARK    5  A    between atoms: C_7  and  C_8
REMARK    6  A    between atoms: C_8  and  C_9
REMARK                            x       y       z     vdW  Elec       q    Type
REMARK                         _______ _______ _______ _____ _____    ______ ____
ROOT
ATOM      1  C   UNL     1       4.997   4.220  17.016  0.00  0.00    +0.000 C 
ENDROOT
BRANCH   1   2
ATOM      2  C   UNL     1       3.949   4.898  17.902  0.00  0.00    +0.000 A 
ATOM      3  C   UNL     1       3.927   6.308  17.983  0.00  0.00    +0.000 A 
ATOM      4  C   UNL     1       3.028   6.970  18.826  0.00  0.00    +0.000 A 
ATOM      5  C   UNL     1       2.115   6.239  19.576  0.00  0.00    +0.000 A 
ATOM      6  C   UNL     1       2.058   4.850  19.464  0.00  0.00    +0.000 A 
ATOM      7  C   UNL     1       1.087   4.146  20.186  0.00  0.00    +0.000 A 
ATOM      8  C   UNL     1       0.966   2.764  20.083  0.00  0.00    +0.000 A 
ATOM      9  C   UNL     1       1.837   2.065  19.249  0.00  0.00    +0.000 A 
ATOM     10  C   UNL     1       2.824   2.748  18.539  0.00  0.00    +0.000 A 
ATOM     11  C   UNL     1       2.972   4.153  18.617  0.00  0.00    +0.000 A 
ENDBRANCH   1   2
BRANCH   1  14
ATOM     12  N   UNL     1       6.308   4.222  13.610  0.00  0.00    +0.000 N 
ATOM     13  C   UNL     1       5.181   3.898  14.455  0.00  0.00    +0.000 C 
ATOM     14  C   UNL     1       5.274   4.856  15.640  0.00  0.00    +0.000 C 
ATOM     15  C   UNL     1       6.695   5.452  15.559  0.00  0.00    +0.000 C 
ATOM     16  C   UNL     1       7.188   5.117  14.178  0.00  0.00    +0.000 C 
ATOM     17  O   UNL     1       8.228   5.540  13.697  0.00  0.00    +0.000 OA
BRANCH  12  18
ATOM     18  C   UNL     1       6.611   3.484  12.389  0.00  0.00    +0.000 C 
BRANCH  18  19
ATOM     19  C   UNL     1       5.406   2.765  11.780  0.00  0.00    +0.000 C 
BRANCH  19  21
ATOM     20  C   UNL     1       3.359   3.102  10.667  0.00  0.00    +0.000 C 
ATOM     21  O   UNL     1       4.427   3.720  11.367  0.00  0.00    +0.000 OA
ENDBRANCH  19  21
ENDBRANCH  18  19
ENDBRANCH  12  18
ENDBRANCH   1  14
TORSDOF 5
ENDMDL
MODEL 7
REMARK VINA RESULT:      -7.1      4.863      7.270
REMARK  Name = 
REMARK  6 active torsions:
REMARK  status: ('A' for Active; 'I' for Inactive)
REMARK    1  A    between atoms: C_1  and  O_2
REMARK    2  A    between atoms: O_2  and  C_3
REMARK    3  A    between atoms: C_3  and  C_4
REMARK    4  A    between atoms: C_4  and  N_5
REMARK    5  A    between atoms: C_7  and  C_8
REMARK    6  A    between atoms: C_8  and  C_9
REMARK                            x       y       z     vdW  Elec       q    Type
REMARK                         _______ _______ _______ _____ _____    ______ ____
ROOT
ATOM      1  C   UNL     1       2.579   7.104  17.699  0.00  0.00    +0.000 C 
ENDROOT
BRANCH   1   2
ATOM      2  C   UNL     1       3.441   5.916  18.132  0.00  0.00    +0.000 A 
ATOM      3  C   UNL     1       4.822   6.112  18.349  0.00  0.00    +0.000 A 
ATOM      4  C   UNL     1       5.661   5.045  18.687  0.00  0.00    +0.000 A 
ATOM      5  C   UNL     1       5.130   3.771  18.845  0.00  0.00    +0.000 A 
ATOM      6  C   UNL     1       3.759   3.554  18.712  0.00  0.00    +0.000 A 
ATOM      7  C   UNL     1       3.247   2.270  18.938  0.00  0.00    +0.000 A 
ATOM      8  C   UNL     1       1.882   2.009  18.852  0.00  0.00    +0.000 A 
ATOM      9  C   UNL     1       1.010   3.045  18.525  0.00  0.00    +0.000 A 
ATOM     10  C   UNL     1       1.506   4.325  18.276  0.00  0.00    +0.000 A 
ATOM     11  C   UNL     1       2.886   4.626  18.359  0.00  0.00    +0.000 A 
ENDBRANCH   1   2
BRANCH   1  14
ATOM     12  N   UNL     1       0.804   8.798  20.400  0.00  0.00    +0.000 N 
ATOM     13  C   UNL     1       1.790   7.797  20.064  0.00  0.00    +0.000 C 
ATOM     14  C   UNL     1       2.374   8.236  18.723  0.00  0.00    +0.000 C 
ATOM     15  C   UNL     1       1.402   9.315  18.200  0.00  0.00    +0.000 C 
ATOM     16  C   UNL     1       0.561   9.700  19.386  0.00  0.00    +0.000 C 
ATOM     17  O   UNL     1      -0.236  10.625  19.393  0.00  0.00    +0.000 OA
BRANCH  12  18
ATOM     18  C   UNL     1      -0.029   8.710  21.594  0.00  0.00    +0.000 C 
BRANCH  18  19
ATOM     19  C   UNL     1       0.530   9.465  22.801  0.00  0.00    +0.000 C 
BRANCH  19  21
ATOM     20  C   UNL     1      -1.258  10.969  23.092  0.00  0.00    +0.000 C 
ATOM     21  O   UNL     1       0.114  10.831  22.756  0.00  0.00    +0.000 OA
ENDBRANCH  19  21
ENDBRANCH  18  19
ENDBRANCH  12  18
ENDBRANCH   1  14
TORSDOF 5
ENDMDL
MODEL 8
REMARK VINA RESULT:      -7.0      1.602      2.687
REMARK  Name = 
REMARK  6 active torsions:
REMARK  status: ('A' for Active; 'I' for Inactive)
REMARK    1  A    between atoms: C_1  and  O_2
REMARK    2  A    between atoms: O_2  and  C_3
REMARK    3  A    between atoms: C_3  and  C_4
REMARK    4  A    between atoms: C_4  and  N_5
REMARK    5  A    between atoms: C_7  and  C_8
REMARK    6  A    between atoms: C_8  and  C_9
REMARK                            x       y       z     vdW  Elec       q    Type
REMARK                         _______ _______ _______ _____ _____    ______ ____
ROOT
ATOM      1  C   UNL     1       5.330   4.719  17.749  0.00  0.00    +0.000 C 
ENDROOT
BRANCH   1   2
ATOM      2  C   UNL     1       4.024   5.006  18.495  0.00  0.00    +0.000 A 
ATOM      3  C   UNL     1       3.805   6.298  19.023  0.00  0.00    +0.000 A 
ATOM      4  C   UNL     1       2.654   6.591  19.763  0.00  0.00    +0.000 A 
ATOM      5  C   UNL     1       1.690   5.610  19.961  0.00  0.00    +0.000 A 
ATOM      6  C   UNL     1       1.838   4.347  19.391  0.00  0.00    +0.000 A 
ATOM      7  C   UNL     1       0.820   3.400  19.557  0.00  0.00    +0.000 A 
ATOM      8  C   UNL     1       0.903   2.136  18.979  0.00  0.00    +0.000 A 
ATOM      9  C   UNL     1       2.029   1.805  18.227  0.00  0.00    +0.000 A 
ATOM     10  C   UNL     1       3.062   2.728  18.070  0.00  0.00    +0.000 A 
ATOM     11  C   UNL     1       3.007   4.023  18.639  0.00  0.00    +0.000 A 
ENDBRANCH   1   2
BRANCH   1  14
ATOM     12  N   UNL     1       6.091   4.353  14.199  0.00  0.00    +0.000 N 
ATOM     13  C   UNL     1       5.088   4.194  15.227  0.00  0.00    +0.000 C 
ATOM     14  C   UNL     1       5.438   5.225  16.298  0.00  0.00    +0.000 C 
ATOM     15  C   UNL     1       6.871   5.683  15.956  0.00  0.00    +0.000 C 
ATOM     16  C   UNL     1       7.116   5.205  14.551  0.00  0.00    +0.000 C 
ATOM     17  O   UNL     1       8.099   5.496  13.886  0.00  0.00    +0.000 OA
BRANCH  12  18
ATOM     18  C   UNL     1       6.143   3.503  13.015  0.00  0.00    +0.000 C 
BRANCH  18  19
ATOM     19  C   UNL     1       4.884   3.563  12.150  0.00  0.00    +0.000 C 
BRANCH  19  21
ATOM     20  C   UNL     1       5.992   1.623  11.408  0.00  0.00    +0.000 C 
ATOM     21  O   UNL     1       4.819   2.413  11.304  0.00  0.00    +0.000 OA
ENDBRANCH  19  21
ENDBRANCH  18  19
ENDBRANCH  12  18
ENDBRANCH   1  14
TORSDOF 5
ENDMDL
MODEL 9
REMARK VINA RESULT:      -6.9      5.037      7.265
REMARK  Name = 
REMARK  6 active torsions:
REMARK  status: ('A' for Active; 'I' for Inactive)
REMARK    1  A    between atoms: C_1  and  O_2
REMARK    2  A    between atoms: O_2  and  C_3
REMARK    3  A    between atoms: C_3  and  C_4
REMARK    4  A    between atoms: C_4  and  N_5
REMARK    5  A    between atoms: C_7  and  C_8
REMARK    6  A    between atoms: C_8  and  C_9
REMARK                            x       y       z     vdW  Elec       q    Type
REMARK                         _______ _______ _______ _____ _____    ______ ____
ROOT
ATOM      1  C   UNL     1       2.276   6.848  17.883  0.00  0.00    +0.000 C 
ENDROOT
BRANCH   1   2
ATOM      2  C   UNL     1       3.222   5.763  18.403  0.00  0.00    +0.000 A 
ATOM      3  C   UNL     1       4.590   5.821  18.057  0.00  0.00    +0.000 A 
ATOM      4  C   UNL     1       5.482   4.821  18.458  0.00  0.00    +0.000 A 
ATOM      5  C   UNL     1       5.029   3.763  19.236  0.00  0.00    +0.000 A 
ATOM      6  C   UNL     1       3.701   3.711  19.659  0.00  0.00    +0.000 A 
ATOM      7  C   UNL     1       3.291   2.665  20.493  0.00  0.00    +0.000 A 
ATOM      8  C   UNL     1       1.986   2.587  20.971  0.00  0.00    +0.000 A 
ATOM      9  C   UNL     1       1.066   3.568  20.602  0.00  0.00    +0.000 A 
ATOM     10  C   UNL     1       1.453   4.605  19.755  0.00  0.00    +0.000 A 
ATOM     11  C   UNL     1       2.773   4.717  19.255  0.00  0.00    +0.000 A 
ENDBRANCH   1   2
BRANCH   1  14
ATOM     12  N   UNL     1       0.744   9.400  19.995  0.00  0.00    +0.000 N 
ATOM     13  C   UNL     1       1.505   8.172  19.969  0.00  0.00    +0.000 C 
ATOM     14  C   UNL     1       2.258   8.189  18.641  0.00  0.00    +0.000 C 
ATOM     15  C   UNL     1       1.584   9.306  17.816  0.00  0.00    +0.000 C 
ATOM     16  C   UNL     1       0.773  10.096  18.806  0.00  0.00    +0.000 C 
ATOM     17  O   UNL     1       0.200  11.143  18.546  0.00  0.00    +0.000 OA
BRANCH  12  18
ATOM     18  C   UNL     1      -0.164   9.737  21.085  0.00  0.00    +0.000 C 
BRANCH  18  19
ATOM     19  C   UNL     1       0.520  10.391  22.287  0.00  0.00    +0.000 C 
BRANCH  19  21
ATOM     20  C   UNL     1      -1.465  11.351  23.111  0.00  0.00    +0.000 C 
ATOM     21  O   UNL     1      -0.391  10.466  23.384  0.00  0.00    +0.000 OA
ENDBRANCH  19  21
ENDBRANCH  18  19
ENDBRANCH  12  18
ENDBRANCH   1  14
TORSDOF 5
ENDMDL
