MODEL 1
REMARK VINA RESULT:      -7.1      0.000      0.000
REMARK  Name = 
REMARK  4 active torsions:
REMARK  status: ('A' for Active; 'I' for Inactive)
REMARK    1  A    between atoms: C_1  and  C_2
REMARK    2  A    between atoms: C_4  and  O_5
REMARK    3  A    between atoms: C_7  and  C_8
REMARK    4  A    between atoms: C_8  and  C_10
REMARK                            x       y       z     vdW  Elec       q    Type
REMARK                         _______ _______ _______ _____ _____    ______ ____
ROOT
ATOM      1  C   UNL     1       7.393   6.866  17.511  0.00  0.00    +0.000 C 
ATOM      2  C   UNL     1       6.943   5.731  16.674  0.00  0.00    +0.000 A 
ATOM      3  N   UNL     1       7.270   5.613  15.344  0.00  0.00    +0.000 N 
ATOM      4  C   UNL     1       6.667   4.486  14.866  0.00  0.00    +0.000 A 
ATOM      5  N   UNL     1       5.975   3.880  15.791  0.00  0.00    +0.000 NA
ATOM      6  C   UNL     1       6.134   4.635  16.943  0.00  0.00    +0.000 A 
ATOM      7  H   UNL     1       7.836   6.259  14.814  0.00  0.00    +0.000 HD
ENDROOT
BRANCH   4   8
ATOM      8  O   UNL     1       6.746   4.053  13.622  0.00  0.00    +0.000 OA
ATOM      9  H   UNL     1       7.529   3.491  13.530  0.00  0.00    +0.000 HD
ENDBRANCH   4   8
BRANCH   6  10
ATOM     10  C   UNL     1       5.507   4.283  18.219  0.00  0.00    +0.000 C 
ATOM     11  O   UNL     1       6.120   4.296  19.286  0.00  0.00    +0.000 OA
BRANCH  10  12
ATOM     12  C   UNL     1       4.063   3.914  18.210  0.00  0.00    +0.000 A 
ATOM     13  C   UNL     1       3.650   2.598  18.467  0.00  0.00    +0.000 A 
ATOM     14  C   UNL     1       2.297   2.265  18.437  0.00  0.00    +0.000 A 
ATOM     15  C   UNL     1       1.348   3.240  18.140  0.00  0.00    +0.000 A 
ATOM     16  C   UNL     1       1.750   4.547  17.862  0.00  0.00    +0.000 A 
ATOM     17  C   UNL     1       3.106   4.884  17.887  0.00  0.00    +0.000 A 
ENDBRANCH  10  12
ENDBRANCH   6  10
TORSDOF 3
ENDMDL
MODEL 2
REMARK VINA RESULT:      -7.0      2.270      3.242
REMARK  Name = 
REMARK  4 active torsions:
REMARK  status: ('A' for Active; 'I' for Inactive)
REMARK    1  A    between atoms: C_1  and  C_2
REMARK    2  A    between atoms: C_4  and  O_5
REMARK    3  A    between atoms: C_7  and  C_8
REMARK    4  A    between atoms: C_8  and  C_10
REMARK                            x       y       z     vdW  Elec       q    Type
REMARK                         _______ _______ _______ _____ _____    ______ ____
ROOT
ATOM      1  C   UNL     1       5.936   4.027  16.181  0.00  0.00    +0.000 C 
ATOM      2  C   UNL     1       6.105   4.629  17.523  0.00  0.00    +0.000 A 
ATOM      3  N   UNL     1       7.290   4.572  18.219  0.00  0.00    +0.000 N 
ATOM      4  C   UNL     1       7.093   5.181  19.424  0.00  0.00    +0.000 A 
ATOM      5  N   UNL     1       5.869   5.615  19.551  0.00  0.00    +0.000 NA
ATOM      6  C   UNL     1       5.224   5.289  18.369  0.00  0.00    +0.000 A 
ATOM      7  H   UNL     1       8.143   4.138  17.900  0.00  0.00    +0.000 HD
ENDROOT
BRANCH   4   8
ATOM      8  O   UNL     1       8.007   5.311  20.367  0.00  0.00    +0.000 OA
ATOM      9  H   UNL     1       7.583   5.234  21.234  0.00  0.00    +0.000 HD
ENDBRANCH   4   8
BRANCH   6  10
ATOM     10  C   UNL     1       3.818   5.610  18.114  0.00  0.00    +0.000 C 
ATOM     11  O   UNL     1       3.469   6.575  17.434  0.00  0.00    +0.000 OA
BRANCH  10  12
ATOM     12  C   UNL     1       2.779   4.712  18.694  0.00  0.00    +0.000 A 
ATOM     13  C   UNL     1       2.241   3.651  17.951  0.00  0.00    +0.000 A 
ATOM     14  C   UNL     1       1.257   2.831  18.503  0.00  0.00    +0.000 A 
ATOM     15  C   UNL     1       0.797   3.072  19.795  0.00  0.00    +0.000 A 
ATOM     16  C   UNL     1       1.311   4.137  20.535  0.00  0.00    +0.000 A 
ATOM     17  C   UNL     1       2.294   4.965  19.984  0.00  0.00    +0.000 A 
ENDBRANCH  10  12
ENDBRANCH   6  10
TORSDOF 3
ENDMDL
MODEL 3
REMARK VINA RESULT:      -7.0      2.108      3.421
REMARK  Name = 
REMARK  4 active torsions:
REMARK  status: ('A' for Active; 'I' for Inactive)
REMARK    1  A    between atoms: C_1  and  C_2
REMARK    2  A    between atoms: C_4  and  O_5
REMARK    3  A    between atoms: C_7  and  C_8
REMARK    4  A    between atoms: C_8  and  C_10
REMARK                            x       y       z     vdW  Elec       q    Type
REMARK                         _______ _______ _______ _____ _____    ______ ____
ROOT
ATOM      1  C   UNL     1       7.748   7.959  17.203  0.00  0.00    +0.000 C 
ATOM      2  C   UNL     1       7.595   6.806  18.118  0.00  0.00    +0.000 A 
ATOM      3  N   UNL     1       8.259   6.717  19.318  0.00  0.00    +0.000 N 
ATOM      4  C   UNL     1       7.929   5.521  19.888  0.00  0.00    +0.000 A 
ATOM      5  N   UNL     1       7.109   4.839  19.137  0.00  0.00    +0.000 NA
ATOM      6  C   UNL     1       6.874   5.624  18.019  0.00  0.00    +0.000 A 
ATOM      7  H   UNL     1       8.894   7.404  19.696  0.00  0.00    +0.000 HD
ENDROOT
BRANCH   4   8
ATOM      8  O   UNL     1       8.384   5.081  21.046  0.00  0.00    +0.000 OA
ATOM      9  H   UNL     1       9.020   5.719  21.400  0.00  0.00    +0.000 HD
ENDBRANCH   4   8
BRANCH   6  10
ATOM     10  C   UNL     1       5.994   5.207  16.924  0.00  0.00    +0.000 C 
ATOM     11  O   UNL     1       6.400   5.029  15.776  0.00  0.00    +0.000 OA
BRANCH  10  12
ATOM     12  C   UNL     1       4.554   4.977  17.234  0.00  0.00    +0.000 A 
ATOM     13  C   UNL     1       3.750   6.004  17.750  0.00  0.00    +0.000 A 
ATOM     14  C   UNL     1       2.409   5.767  18.051  0.00  0.00    +0.000 A 
ATOM     15  C   UNL     1       1.866   4.501  17.850  0.00  0.00    +0.000 A 
ATOM     16  C   UNL     1       2.662   3.466  17.356  0.00  0.00    +0.000 A 
ATOM     17  C   UNL     1       4.008   3.699  17.057  0.00  0.00    +0.000 A 
ENDBRANCH  10  12
ENDBRANCH   6  10
TORSDOF 3
ENDMDL
MODEL 4
REMARK VINA RESULT:      -7.0      0.099      1.253
REMARK  Name = 
REMARK  4 active torsions:
REMARK  status: ('A' for Active; 'I' for Inactive)
REMARK    1  A    between atoms: C_1  and  C_2
REMARK    2  A    between atoms: C_4  and  O_5
REMARK    3  A    between atoms: C_7  and  C_8
REMARK    4  A    between atoms: C_8  and  C_10
REMARK                            x       y       z     vdW  Elec       q    Type
REMARK                         _______ _______ _______ _____ _____    ______ ____
ROOT
ATOM      1  C   UNL     1       7.382   6.856  17.675  0.00  0.00    +0.000 C 
ATOM      2  C   UNL     1       6.958   5.758  16.778  0.00  0.00    +0.000 A 
ATOM      3  N   UNL     1       7.312   5.703  15.450  0.00  0.00    +0.000 N 
ATOM      4  C   UNL     1       6.727   4.595  14.910  0.00  0.00    +0.000 A 
ATOM      5  N   UNL     1       6.022   3.943  15.793  0.00  0.00    +0.000 NA
ATOM      6  C   UNL     1       6.153   4.645  16.980  0.00  0.00    +0.000 A 
ATOM      7  H   UNL     1       7.883   6.376  14.962  0.00  0.00    +0.000 HD
ENDROOT
BRANCH   4   8
ATOM      8  O   UNL     1       6.833   4.219  13.650  0.00  0.00    +0.000 OA
ATOM      9  H   UNL     1       6.037   3.732  13.395  0.00  0.00    +0.000 HD
ENDBRANCH   4   8
BRANCH   6  10
ATOM     10  C   UNL     1       5.504   4.231  18.227  0.00  0.00    +0.000 C 
ATOM     11  O   UNL     1       6.103   4.169  19.299  0.00  0.00    +0.000 OA
BRANCH  10  12
ATOM     12  C   UNL     1       4.053   3.890  18.180  0.00  0.00    +0.000 A 
ATOM     13  C   UNL     1       3.089   4.864  17.877  0.00  0.00    +0.000 A 
ATOM     14  C   UNL     1       1.735   4.533  17.856  0.00  0.00    +0.000 A 
ATOM     15  C   UNL     1       1.333   3.232  18.145  0.00  0.00    +0.000 A 
ATOM     16  C   UNL     1       2.282   2.261  18.467  0.00  0.00    +0.000 A 
ATOM     17  C   UNL     1       3.641   2.589  18.495  0.00  0.00    +0.000 A 
ENDBRANCH  10  12
ENDBRANCH   6  10
TORSDOF 3
ENDMDL
MODEL 5
REMARK VINA RESULT:      -6.9      2.321      3.278
REMARK  Name = 
REMARK  4 active torsions:
REMARK  status: ('A' for Active; 'I' for Inactive)
REMARK    1  A    between atoms: C_1  and  C_2
REMARK    2  A    between atoms: C_4  and  O_5
REMARK    3  A    between atoms: C_7  and  C_8
REMARK    4  A    between atoms: C_8  and  C_10
REMARK                            x       y       z     vdW  Elec       q    Type
REMARK                         _______ _______ _______ _____ _____    ______ ____
ROOT
ATOM      1  C   UNL     1       5.540   3.917  16.214  0.00  0.00    +0.000 C 
ATOM      2  C   UNL     1       5.911   4.583  17.483  0.00  0.00    +0.000 A 
ATOM      3  N   UNL     1       7.166   4.482  18.036  0.00  0.00    +0.000 N 
ATOM      4  C   UNL     1       7.158   5.174  19.212  0.00  0.00    +0.000 A 
ATOM      5  N   UNL     1       5.990   5.702  19.453  0.00  0.00    +0.000 NA
ATOM      6  C   UNL     1       5.185   5.354  18.380  0.00  0.00    +0.000 A 
ATOM      7  H   UNL     1       7.944   3.969  17.649  0.00  0.00    +0.000 HD
ENDROOT
BRANCH   4   8
ATOM      8  O   UNL     1       8.187   5.292  20.029  0.00  0.00    +0.000 OA
ATOM      9  H   UNL     1       8.542   4.413  20.223  0.00  0.00    +0.000 HD
ENDBRANCH   4   8
BRANCH   6  10
ATOM     10  C   UNL     1       3.782   5.761  18.271  0.00  0.00    +0.000 C 
ATOM     11  O   UNL     1       3.433   6.807  17.725  0.00  0.00    +0.000 OA
BRANCH  10  12
ATOM     12  C   UNL     1       2.744   4.851  18.836  0.00  0.00    +0.000 A 
ATOM     13  C   UNL     1       2.399   4.899  20.194  0.00  0.00    +0.000 A 
ATOM     14  C   UNL     1       1.440   4.029  20.710  0.00  0.00    +0.000 A 
ATOM     15  C   UNL     1       0.827   3.097  19.875  0.00  0.00    +0.000 A 
ATOM     16  C   UNL     1       1.178   3.027  18.526  0.00  0.00    +0.000 A 
ATOM     17  C   UNL     1       2.143   3.895  18.006  0.00  0.00    +0.000 A 
ENDBRANCH  10  12
ENDBRANCH   6  10
TORSDOF 3
ENDMDL
MODEL 6
REMARK VINA RESULT:      -6.8      1.253      1.762
REMARK  Name = 
REMARK  4 active torsions:
REMARK  status: ('A' for Active; 'I' for Inactive)
REMARK    1  A    between atoms: C_1  and  C_2
REMARK    2  A    between atoms: C_4  and  O_5
REMARK    3  A    between atoms: C_7  and  C_8
REMARK    4  A    between atoms: C_8  and  C_10
REMARK                            x       y       z     vdW  Elec       q    Type
REMARK                         _______ _______ _______ _____ _____    ______ ____
ROOT
ATOM      1  C   UNL     1       7.559   7.410  17.424  0.00  0.00    +0.000 C 
ATOM      2  C   UNL     1       7.083   6.096  16.938  0.00  0.00    +0.000 A 
ATOM      3  N   UNL     1       7.228   5.691  15.632  0.00  0.00    +0.000 N 
ATOM      4  C   UNL     1       6.650   4.460  15.513  0.00  0.00    +0.000 A 
ATOM      5  N   UNL     1       6.143   4.054  16.644  0.00  0.00    +0.000 NA
ATOM      6  C   UNL     1       6.405   5.058  17.562  0.00  0.00    +0.000 A 
ATOM      7  H   UNL     1       7.663   6.221  14.892  0.00  0.00    +0.000 HD
ENDROOT
BRANCH   4   8
ATOM      8  O   UNL     1       6.585   3.757  14.398  0.00  0.00    +0.000 OA
ATOM      9  H   UNL     1       5.666   3.723  14.097  0.00  0.00    +0.000 HD
ENDBRANCH   4   8
BRANCH   6  10
ATOM     10  C   UNL     1       5.992   4.982  18.966  0.00  0.00    +0.000 C 
ATOM     11  O   UNL     1       6.767   5.188  19.899  0.00  0.00    +0.000 OA
BRANCH  10  12
ATOM     12  C   UNL     1       4.567   4.658  19.259  0.00  0.00    +0.000 A 
ATOM     13  C   UNL     1       3.596   5.668  19.344  0.00  0.00    +0.000 A 
ATOM     14  C   UNL     1       2.271   5.349  19.637  0.00  0.00    +0.000 A 
ATOM     15  C   UNL     1       1.908   4.023  19.856  0.00  0.00    +0.000 A 
ATOM     16  C   UNL     1       2.869   3.013  19.793  0.00  0.00    +0.000 A 
ATOM     17  C   UNL     1       4.200   3.329  19.505  0.00  0.00    +0.000 A 
ENDBRANCH  10  12
ENDBRANCH   6  10
TORSDOF 3
ENDMDL
MODEL 7
REMARK VINA RESULT:      -6.7      1.829      2.147
REMARK  Name = 
REMARK  4 active torsions:
REMARK  status: ('A' for Active; 'I' for Inactive)
REMARK    1  A    between atoms: C_1  and  C_2
REMARK    2  A    between atoms: C_4  and  O_5
REMARK    3  A    between atoms: C_7  and  C_8
REMARK    4  A    between atoms: C_8  and  C_10
REMARK                            x       y       z     vdW  Elec       q    Type
REMARK                         _______ _______ _______ _____ _____    ______ ____
ROOT
ATOM      1  C   UNL     1       6.756   5.455  19.050  0.00  0.00    +0.000 C 
ATOM      2  C   UNL     1       6.178   5.003  17.765  0.00  0.00    +0.000 A 
ATOM      3  N   UNL     1       6.895   4.278  16.842  0.00  0.00    +0.000 N 
ATOM      4  C   UNL     1       6.086   4.063  15.764  0.00  0.00    +0.000 A 
ATOM      5  N   UNL     1       4.910   4.603  15.928  0.00  0.00    +0.000 NA
ATOM      6  C   UNL     1       4.934   5.196  17.181  0.00  0.00    +0.000 A 
ATOM      7  H   UNL     1       7.854   3.980  16.938  0.00  0.00    +0.000 HD
ENDROOT
BRANCH   4   8
ATOM      8  O   UNL     1       6.435   3.409  14.672  0.00  0.00    +0.000 OA
ATOM      9  H   UNL     1       5.707   2.830  14.402  0.00  0.00    +0.000 HD
ENDBRANCH   4   8
BRANCH   6  10
ATOM     10  C   UNL     1       3.788   5.914  17.744  0.00  0.00    +0.000 C 
ATOM     11  O   UNL     1       3.599   7.115  17.555  0.00  0.00    +0.000 OA
BRANCH  10  12
ATOM     12  C   UNL     1       2.812   5.141  18.563  0.00  0.00    +0.000 A 
ATOM     13  C   UNL     1       2.023   4.133  17.988  0.00  0.00    +0.000 A 
ATOM     14  C   UNL     1       1.101   3.431  18.764  0.00  0.00    +0.000 A 
ATOM     15  C   UNL     1       0.953   3.738  20.115  0.00  0.00    +0.000 A 
ATOM     16  C   UNL     1       1.719   4.752  20.691  0.00  0.00    +0.000 A 
ATOM     17  C   UNL     1       2.641   5.462  19.915  0.00  0.00    +0.000 A 
ENDBRANCH  10  12
ENDBRANCH   6  10
TORSDOF 3
ENDMDL
MODEL 8
REMARK VINA RESULT:      -6.7      1.330      1.792
REMARK  Name = 
REMARK  4 active torsions:
REMARK  status: ('A' for Active; 'I' for Inactive)
REMARK    1  A    between atoms: C_1  and  C_2
REMARK    2  A    between atoms: C_4  and  O_5
REMARK    3  A    between atoms: C_7  and  C_8
REMARK    4  A    between atoms: C_8  and  C_10
REMARK                            x       y       z     vdW  Elec       q    Type
REMARK                         _______ _______ _______ _____ _____    ______ ____
ROOT
ATOM      1  C   UNL     1       7.495   5.566  18.026  0.00  0.00    +0.000 C 
ATOM      2  C   UNL     1       6.846   5.270  16.729  0.00  0.00    +0.000 A 
ATOM      3  N   UNL     1       7.557   4.931  15.602  0.00  0.00    +0.000 N 
ATOM      4  C   UNL     1       6.664   4.767  14.582  0.00  0.00    +0.000 A 
ATOM      5  N   UNL     1       5.439   4.982  14.975  0.00  0.00    +0.000 NA
ATOM      6  C   UNL     1       5.519   5.294  16.322  0.00  0.00    +0.000 A 
ATOM      7  H   UNL     1       8.560   4.843  15.539  0.00  0.00    +0.000 HD
ENDROOT
BRANCH   4   8
ATOM      8  O   UNL     1       6.981   4.447  13.342  0.00  0.00    +0.000 OA
ATOM      9  H   UNL     1       6.287   3.882  12.973  0.00  0.00    +0.000 HD
ENDBRANCH   4   8
BRANCH   6  10
ATOM     10  C   UNL     1       4.343   5.605  17.139  0.00  0.00    +0.000 C 
ATOM     11  O   UNL     1       4.064   6.749  17.495  0.00  0.00    +0.000 OA
BRANCH  10  12
ATOM     12  C   UNL     1       3.448   4.479  17.532  0.00  0.00    +0.000 A 
ATOM     13  C   UNL     1       2.113   4.709  17.898  0.00  0.00    +0.000 A 
ATOM     14  C   UNL     1       1.294   3.647  18.281  0.00  0.00    +0.000 A 
ATOM     15  C   UNL     1       1.805   2.352  18.311  0.00  0.00    +0.000 A 
ATOM     16  C   UNL     1       3.137   2.115  17.968  0.00  0.00    +0.000 A 
ATOM     17  C   UNL     1       3.963   3.178  17.589  0.00  0.00    +0.000 A 
ENDBRANCH  10  12
ENDBRANCH   6  10
TORSDOF 3
ENDMDL
MODEL 9
REMARK VINA RESULT:      -6.7      1.217      1.367
REMARK  Name = 
REMARK  4 active torsions:
REMARK  status: ('A' for Active; 'I' for Inactive)
REMARK    1  A    between atoms: C_1  and  C_2
REMARK    2  A    between atoms: C_4  and  O_5
REMARK    3  A    between atoms: C_7  and  C_8
REMARK    4  A    between atoms: C_8  and  C_10
REMARK                            x       y       z     vdW  Elec       q    Type
REMARK                         _______ _______ _______ _____ _____    ______ ____
ROOT
ATOM      1  C   UNL     1       7.372   6.180  17.673  0.00  0.00    +0.000 C 
ATOM      2  C   UNL     1       6.674   5.380  16.643  0.00  0.00    +0.000 A 
ATOM      3  N   UNL     1       7.322   4.833  15.561  0.00  0.00    +0.000 N 
ATOM      4  C   UNL     1       6.388   4.199  14.794  0.00  0.00    +0.000 A 
ATOM      5  N   UNL     1       5.192   4.307  15.303  0.00  0.00    +0.000 NA
ATOM      6  C   UNL     1       5.339   5.039  16.471  0.00  0.00    +0.000 A 
ATOM      7  H   UNL     1       8.308   4.908  15.361  0.00  0.00    +0.000 HD
ENDROOT
BRANCH   4   8
ATOM      8  O   UNL     1       6.637   3.565  13.664  0.00  0.00    +0.000 OA
ATOM      9  H   UNL     1       7.262   4.085  13.138  0.00  0.00    +0.000 HD
ENDBRANCH   4   8
BRANCH   6  10
ATOM     10  C   UNL     1       4.214   5.379  17.345  0.00  0.00    +0.000 C 
ATOM     11  O   UNL     1       3.911   6.540  17.618  0.00  0.00    +0.000 OA
BRANCH  10  12
ATOM     12  C   UNL     1       3.401   4.262  17.906  0.00  0.00    +0.000 A 
ATOM     13  C   UNL     1       4.013   3.121  18.446  0.00  0.00    +0.000 A 
ATOM     14  C   UNL     1       3.238   2.076  18.949  0.00  0.00    +0.000 A 
ATOM     15  C   UNL     1       1.849   2.160  18.907  0.00  0.00    +0.000 A 
ATOM     16  C   UNL     1       1.230   3.281  18.353  0.00  0.00    +0.000 A 
ATOM     17  C   UNL     1       2.004   4.328  17.843  0.00  0.00    +0.000 A 
ENDBRANCH  10  12
ENDBRANCH   6  10
TORSDOF 3
ENDMDL
