MODEL 1
REMARK VINA RESULT:      -7.7      0.000      0.000
REMARK  Name = 
REMARK  7 active torsions:
REMARK  status: ('A' for Active; 'I' for Inactive)
REMARK    1  A    between atoms: C_1  and  O_2
REMARK    2  A    between atoms: O_2  and  C_3
REMARK    3  A    between atoms: C_6  and  C_7
REMARK    4  A    between atoms: C_7  and  O_8
REMARK    5  A    between atoms: O_8  and  C_9
REMARK    6  A    between atoms: C_13  and  C_14
REMARK    7  A    between atoms: C_16  and  C_17
REMARK                            x       y       z     vdW  Elec       q    Type
REMARK                         _______ _______ _______ _____ _____    ______ ____
ROOT
ATOM      1  C   UNL     1       5.265   4.713  18.845  0.00  0.00    +0.000 A 
ATOM      2  C   UNL     1       6.248   5.398  19.561  0.00  0.00    +0.000 A 
ATOM      3  C   UNL     1       7.405   5.845  18.927  0.00  0.00    +0.000 A 
ATOM      4  C   UNL     1       7.577   5.625  17.561  0.00  0.00    +0.000 A 
ATOM      5  C   UNL     1       6.591   4.961  16.817  0.00  0.00    +0.000 A 
ATOM      6  C   UNL     1       5.434   4.502  17.474  0.00  0.00    +0.000 A 
ENDROOT
BRANCH   5   7
ATOM      7  C   UNL     1       6.753   4.773  15.374  0.00  0.00    +0.000 A 
ATOM      8  C   UNL     1       6.084   3.848  14.526  0.00  0.00    +0.000 A 
ATOM      9  C   UNL     1       6.607   4.065  13.274  0.00  0.00    +0.000 A 
ATOM     10  O   UNL     1       7.526   5.062  13.353  0.00  0.00    +0.000 OA
ATOM     11  N   UNL     1       7.614   5.510  14.654  0.00  0.00    +0.000 NA
BRANCH   9  12
ATOM     12  C   UNL     1       6.374   3.512  11.925  0.00  0.00    +0.000 C 
ATOM     13 CL   UNL     1       4.644   3.241  11.612  0.00  0.00    +0.000 Cl
ENDBRANCH   9  12
ENDBRANCH   5   7
BRANCH   1  14
ATOM     14  O   UNL     1       4.165   4.364  19.572  0.00  0.00    +0.000 OA
BRANCH  14  15
ATOM     15  C   UNL     1       2.896   4.504  18.932  0.00  0.00    +0.000 C 
BRANCH  15  19
ATOM     16  C   UNL     1       1.644   8.634  19.262  0.00  0.00    +0.000 A 
ATOM     17  C   UNL     1       2.030   8.104  18.030  0.00  0.00    +0.000 A 
ATOM     18  C   UNL     1       2.427   6.770  17.927  0.00  0.00    +0.000 A 
ATOM     19  C   UNL     1       2.464   5.945  19.061  0.00  0.00    +0.000 A 
ATOM     20  C   UNL     1       2.092   6.489  20.297  0.00  0.00    +0.000 A 
ATOM     21  C   UNL     1       1.686   7.826  20.397  0.00  0.00    +0.000 A 
BRANCH  16  23
ATOM     22  C   UNL     1       1.943  10.755  18.258  0.00  0.00    +0.000 C 
ATOM     23  O   UNL     1       1.293   9.956  19.240  0.00  0.00    +0.000 OA
ENDBRANCH  16  23
ENDBRANCH  15  19
ENDBRANCH  14  15
ENDBRANCH   1  14
TORSDOF 6
ENDMDL
MODEL 2
REMARK VINA RESULT:      -7.6      1.910      3.253
REMARK  Name = 
REMARK  7 active torsions:
REMARK  status: ('A' for Active; 'I' for Inactive)
REMARK    1  A    between atoms: C_1  and  O_2
REMARK    2  A    between atoms: O_2  and  C_3
REMARK    3  A    between atoms: C_6  and  C_7
REMARK    4  A    between atoms: C_7  and  O_8
REMARK    5  A    between atoms: O_8  and  C_9
REMARK    6  A    between atoms: C_13  and  C_14
REMARK    7  A    between atoms: C_16  and  C_17
REMARK                            x       y       z     vdW  Elec       q    Type
REMARK                         _______ _______ _______ _____ _____    ______ ____
ROOT
ATOM      1  C   UNL     1       5.381   6.448  17.425  0.00  0.00    +0.000 A 
ATOM      2  C   UNL     1       6.294   5.965  18.363  0.00  0.00    +0.000 A 
ATOM      3  C   UNL     1       7.240   5.007  18.005  0.00  0.00    +0.000 A 
ATOM      4  C   UNL     1       7.292   4.540  16.692  0.00  0.00    +0.000 A 
ATOM      5  C   UNL     1       6.400   5.031  15.727  0.00  0.00    +0.000 A 
ATOM      6  C   UNL     1       5.440   5.986  16.107  0.00  0.00    +0.000 A 
ENDROOT
BRANCH   5   7
ATOM      7  C   UNL     1       6.487   4.573  14.338  0.00  0.00    +0.000 A 
ATOM      8  C   UNL     1       5.687   3.599  13.681  0.00  0.00    +0.000 A 
ATOM      9  C   UNL     1       6.185   3.528  12.402  0.00  0.00    +0.000 A 
ATOM     10  O   UNL     1       7.216   4.405  12.288  0.00  0.00    +0.000 OA
ATOM     11  N   UNL     1       7.401   5.063  13.486  0.00  0.00    +0.000 NA
BRANCH   9  12
ATOM     12  C   UNL     1       5.842   2.777  11.178  0.00  0.00    +0.000 C 
ATOM     13 CL   UNL     1       6.217   1.045  11.339  0.00  0.00    +0.000 Cl
ENDBRANCH   9  12
ENDBRANCH   5   7
BRANCH   1  14
ATOM     14  O   UNL     1       4.533   7.410  17.892  0.00  0.00    +0.000 OA
BRANCH  14  15
ATOM     15  C   UNL     1       3.155   7.283  17.539  0.00  0.00    +0.000 C 
BRANCH  15  19
ATOM     16  C   UNL     1       1.406   4.206  20.030  0.00  0.00    +0.000 A 
ATOM     17  C   UNL     1       1.851   5.405  20.588  0.00  0.00    +0.000 A 
ATOM     18  C   UNL     1       2.409   6.397  19.780  0.00  0.00    +0.000 A 
ATOM     19  C   UNL     1       2.549   6.199  18.399  0.00  0.00    +0.000 A 
ATOM     20  C   UNL     1       2.116   4.986  17.848  0.00  0.00    +0.000 A 
ATOM     21  C   UNL     1       1.549   3.995  18.660  0.00  0.00    +0.000 A 
BRANCH  16  23
ATOM     22  C   UNL     1       1.850   2.544  21.653  0.00  0.00    +0.000 C 
ATOM     23  O   UNL     1       0.895   3.305  20.924  0.00  0.00    +0.000 OA
ENDBRANCH  16  23
ENDBRANCH  15  19
ENDBRANCH  14  15
ENDBRANCH   1  14
TORSDOF 6
ENDMDL
MODEL 3
REMARK VINA RESULT:      -7.5      4.603      6.036
REMARK  Name = 
REMARK  7 active torsions:
REMARK  status: ('A' for Active; 'I' for Inactive)
REMARK    1  A    between atoms: C_1  and  O_2
REMARK    2  A    between atoms: O_2  and  C_3
REMARK    3  A    between atoms: C_6  and  C_7
REMARK    4  A    between atoms: C_7  and  O_8
REMARK    5  A    between atoms: O_8  and  C_9
REMARK    6  A    between atoms: C_13  and  C_14
REMARK    7  A    between atoms: C_16  and  C_17
REMARK                            x       y       z     vdW  Elec       q    Type
REMARK                         _______ _______ _______ _____ _____    ______ ____
ROOT
ATOM      1  C   UNL     1       7.726   6.911  18.159  0.00  0.00    +0.000 A 
ATOM      2  C   UNL     1       7.184   6.090  19.149  0.00  0.00    +0.000 A 
ATOM      3  C   UNL     1       6.528   4.909  18.811  0.00  0.00    +0.000 A 
ATOM      4  C   UNL     1       6.429   4.529  17.472  0.00  0.00    +0.000 A 
ATOM      5  C   UNL     1       6.988   5.326  16.463  0.00  0.00    +0.000 A 
ATOM      6  C   UNL     1       7.634   6.524  16.818  0.00  0.00    +0.000 A 
ENDROOT
BRANCH   5   7
ATOM      7  C   UNL     1       6.923   4.901  15.063  0.00  0.00    +0.000 A 
ATOM      8  C   UNL     1       6.094   3.901  14.484  0.00  0.00    +0.000 A 
ATOM      9  C   UNL     1       6.432   3.880  13.152  0.00  0.00    +0.000 A 
ATOM     10  O   UNL     1       7.398   4.810  12.934  0.00  0.00    +0.000 OA
ATOM     11  N   UNL     1       7.700   5.452  14.117  0.00  0.00    +0.000 NA
BRANCH   9  12
ATOM     12  C   UNL     1       5.975   3.137  11.961  0.00  0.00    +0.000 C 
ATOM     13 CL   UNL     1       4.235   3.365  11.668  0.00  0.00    +0.000 Cl
ENDBRANCH   9  12
ENDBRANCH   5   7
BRANCH   1  14
ATOM     14  O   UNL     1       8.374   8.018  18.623  0.00  0.00    +0.000 OA
BRANCH  14  15
ATOM     15  C   UNL     1       8.219   9.221  17.869  0.00  0.00    +0.000 C 
BRANCH  15  19
ATOM     16  C   UNL     1      10.841  12.193  19.610  0.00  0.00    +0.000 A 
ATOM     17  C   UNL     1      10.073  11.357  20.422  0.00  0.00    +0.000 A 
ATOM     18  C   UNL     1       9.234  10.396  19.857  0.00  0.00    +0.000 A 
ATOM     19  C   UNL     1       9.132  10.267  18.465  0.00  0.00    +0.000 A 
ATOM     20  C   UNL     1       9.891  11.120  17.655  0.00  0.00    +0.000 A 
ATOM     21  C   UNL     1      10.740  12.079  18.224  0.00  0.00    +0.000 A 
BRANCH  16  23
ATOM     22  C   UNL     1      11.639  14.417  19.726  0.00  0.00    +0.000 C 
ATOM     23  O   UNL     1      11.610  13.106  20.278  0.00  0.00    +0.000 OA
ENDBRANCH  16  23
ENDBRANCH  15  19
ENDBRANCH  14  15
ENDBRANCH   1  14
TORSDOF 6
ENDMDL
MODEL 4
REMARK VINA RESULT:      -7.4      0.499      1.116
REMARK  Name = 
REMARK  7 active torsions:
REMARK  status: ('A' for Active; 'I' for Inactive)
REMARK    1  A    between atoms: C_1  and  O_2
REMARK    2  A    between atoms: O_2  and  C_3
REMARK    3  A    between atoms: C_6  and  C_7
REMARK    4  A    between atoms: C_7  and  O_8
REMARK    5  A    between atoms: O_8  and  C_9
REMARK    6  A    between atoms: C_13  and  C_14
REMARK    7  A    between atoms: C_16  and  C_17
REMARK                            x       y       z     vdW  Elec       q    Type
REMARK                         _______ _______ _______ _____ _____    ______ ____
ROOT
ATOM      1  C   UNL     1       5.297   4.516  18.722  0.00  0.00    +0.000 A 
ATOM      2  C   UNL     1       6.187   5.307  19.448  0.00  0.00    +0.000 A 
ATOM      3  C   UNL     1       7.286   5.895  18.825  0.00  0.00    +0.000 A 
ATOM      4  C   UNL     1       7.489   5.711  17.458  0.00  0.00    +0.000 A 
ATOM      5  C   UNL     1       6.592   4.940  16.703  0.00  0.00    +0.000 A 
ATOM      6  C   UNL     1       5.496   4.340  17.349  0.00  0.00    +0.000 A 
ENDROOT
BRANCH   5   7
ATOM      7  C   UNL     1       6.782   4.788  15.258  0.00  0.00    +0.000 A 
ATOM      8  C   UNL     1       6.023   3.999  14.350  0.00  0.00    +0.000 A 
ATOM      9  C   UNL     1       6.618   4.189  13.126  0.00  0.00    +0.000 A 
ATOM     10  O   UNL     1       7.665   5.041  13.279  0.00  0.00    +0.000 OA
ATOM     11  N   UNL     1       7.765   5.422  14.600  0.00  0.00    +0.000 NA
BRANCH   9  12
ATOM     12  C   UNL     1       6.362   3.726  11.748  0.00  0.00    +0.000 C 
ATOM     13 CL   UNL     1       5.665   2.090  11.719  0.00  0.00    +0.000 Cl
ENDBRANCH   9  12
ENDBRANCH   5   7
BRANCH   1  14
ATOM     14  O   UNL     1       4.244   4.030  19.439  0.00  0.00    +0.000 OA
BRANCH  14  15
ATOM     15  C   UNL     1       2.945   4.180  18.863  0.00  0.00    +0.000 C 
BRANCH  15  19
ATOM     16  C   UNL     1       1.664   8.257  19.552  0.00  0.00    +0.000 A 
ATOM     17  C   UNL     1       1.574   7.302  20.565  0.00  0.00    +0.000 A 
ATOM     18  C   UNL     1       1.994   5.990  20.341  0.00  0.00    +0.000 A 
ATOM     19  C   UNL     1       2.494   5.603  19.089  0.00  0.00    +0.000 A 
ATOM     20  C   UNL     1       2.565   6.562  18.071  0.00  0.00    +0.000 A 
ATOM     21  C   UNL     1       2.151   7.881  18.301  0.00  0.00    +0.000 A 
BRANCH  16  23
ATOM     22  C   UNL     1       1.266  10.481  18.855  0.00  0.00    +0.000 C 
ATOM     23  O   UNL     1       1.206   9.502  19.885  0.00  0.00    +0.000 OA
ENDBRANCH  16  23
ENDBRANCH  15  19
ENDBRANCH  14  15
ENDBRANCH   1  14
TORSDOF 6
ENDMDL
MODEL 5
REMARK VINA RESULT:      -7.3      4.572      8.733
REMARK  Name = 
REMARK  7 active torsions:
REMARK  status: ('A' for Active; 'I' for Inactive)
REMARK    1  A    between atoms: C_1  and  O_2
REMARK    2  A    between atoms: O_2  and  C_3
REMARK    3  A    between atoms: C_6  and  C_7
REMARK    4  A    between atoms: C_7  and  O_8
REMARK    5  A    between atoms: O_8  and  C_9
REMARK    6  A    between atoms: C_13  and  C_14
REMARK    7  A    between atoms: C_16  and  C_17
REMARK                            x       y       z     vdW  Elec       q    Type
REMARK                         _______ _______ _______ _____ _____    ______ ____
ROOT
ATOM      1  C   UNL     1       2.429   6.788  19.096  0.00  0.00    +0.000 A 
ATOM      2  C   UNL     1       2.570   7.477  17.891  0.00  0.00    +0.000 A 
ATOM      3  C   UNL     1       2.071   8.770  17.750  0.00  0.00    +0.000 A 
ATOM      4  C   UNL     1       1.443   9.392  18.829  0.00  0.00    +0.000 A 
ATOM      5  C   UNL     1       1.313   8.728  20.057  0.00  0.00    +0.000 A 
ATOM      6  C   UNL     1       1.808   7.416  20.180  0.00  0.00    +0.000 A 
ENDROOT
BRANCH   5   7
ATOM      7  C   UNL     1       0.696   9.401  21.202  0.00  0.00    +0.000 A 
ATOM      8  C   UNL     1      -0.498  10.173  21.229  0.00  0.00    +0.000 A 
ATOM      9  C   UNL     1      -0.624  10.593  22.532  0.00  0.00    +0.000 A 
ATOM     10  O   UNL     1       0.419  10.102  23.250  0.00  0.00    +0.000 OA
ATOM     11  N   UNL     1       1.237   9.355  22.430  0.00  0.00    +0.000 NA
BRANCH   9  12
ATOM     12  C   UNL     1      -1.612  11.384  23.293  0.00  0.00    +0.000 C 
ATOM     13 CL   UNL     1      -1.273  13.128  23.201  0.00  0.00    +0.000 Cl
ENDBRANCH   9  12
ENDBRANCH   5   7
BRANCH   1  14
ATOM     14  O   UNL     1       2.994   5.546  19.116  0.00  0.00    +0.000 OA
BRANCH  14  15
ATOM     15  C   UNL     1       4.357   5.462  19.536  0.00  0.00    +0.000 C 
BRANCH  15  19
ATOM     16  C   UNL     1       6.808   5.308  15.972  0.00  0.00    +0.000 A 
ATOM     17  C   UNL     1       5.568   4.670  16.011  0.00  0.00    +0.000 A 
ATOM     18  C   UNL     1       4.778   4.728  17.160  0.00  0.00    +0.000 A 
ATOM     19  C   UNL     1       5.224   5.409  18.300  0.00  0.00    +0.000 A 
ATOM     20  C   UNL     1       6.478   6.033  18.261  0.00  0.00    +0.000 A 
ATOM     21  C   UNL     1       7.265   5.982  17.103  0.00  0.00    +0.000 A 
BRANCH  16  23
ATOM     22  C   UNL     1       6.796   4.524  13.740  0.00  0.00    +0.000 C 
ATOM     23  O   UNL     1       7.497   5.167  14.798  0.00  0.00    +0.000 OA
ENDBRANCH  16  23
ENDBRANCH  15  19
ENDBRANCH  14  15
ENDBRANCH   1  14
TORSDOF 6
ENDMDL
MODEL 6
REMARK VINA RESULT:      -7.2      3.371      6.801
REMARK  Name = 
REMARK  7 active torsions:
REMARK  status: ('A' for Active; 'I' for Inactive)
REMARK    1  A    between atoms: C_1  and  O_2
REMARK    2  A    between atoms: O_2  and  C_3
REMARK    3  A    between atoms: C_6  and  C_7
REMARK    4  A    between atoms: C_7  and  O_8
REMARK    5  A    between atoms: O_8  and  C_9
REMARK    6  A    between atoms: C_13  and  C_14
REMARK    7  A    between atoms: C_16  and  C_17
REMARK                            x       y       z     vdW  Elec       q    Type
REMARK                         _______ _______ _______ _____ _____    ______ ____
ROOT
ATOM      1  C   UNL     1       2.398   4.597  18.467  0.00  0.00    +0.000 A 
ATOM      2  C   UNL     1       2.199   4.216  19.794  0.00  0.00    +0.000 A 
ATOM      3  C   UNL     1       1.936   5.171  20.774  0.00  0.00    +0.000 A 
ATOM      4  C   UNL     1       1.849   6.518  20.424  0.00  0.00    +0.000 A 
ATOM      5  C   UNL     1       2.021   6.920  19.092  0.00  0.00    +0.000 A 
ATOM      6  C   UNL     1       2.301   5.946  18.115  0.00  0.00    +0.000 A 
ENDROOT
BRANCH   5   7
ATOM      7  C   UNL     1       1.882   8.330  18.720  0.00  0.00    +0.000 A 
ATOM      8  C   UNL     1       1.279   9.381  19.464  0.00  0.00    +0.000 A 
ATOM      9  C   UNL     1       1.394  10.496  18.669  0.00  0.00    +0.000 A 
ATOM     10  O   UNL     1       2.030  10.147  17.520  0.00  0.00    +0.000 OA
ATOM     11  N   UNL     1       2.343   8.805  17.552  0.00  0.00    +0.000 NA
BRANCH   9  12
ATOM     12  C   UNL     1       1.032  11.922  18.795  0.00  0.00    +0.000 C 
ATOM     13 CL   UNL     1       2.289  12.985  18.121  0.00  0.00    +0.000 Cl
ENDBRANCH   9  12
ENDBRANCH   5   7
BRANCH   1  14
ATOM     14  O   UNL     1       2.609   3.564  17.600  0.00  0.00    +0.000 OA
BRANCH  14  15
ATOM     15  C   UNL     1       3.897   2.946  17.633  0.00  0.00    +0.000 C 
BRANCH  15  19
ATOM     16  C   UNL     1       6.889   5.967  16.826  0.00  0.00    +0.000 A 
ATOM     17  C   UNL     1       6.765   5.411  18.099  0.00  0.00    +0.000 A 
ATOM     18  C   UNL     1       5.803   4.432  18.354  0.00  0.00    +0.000 A 
ATOM     19  C   UNL     1       4.932   4.006  17.341  0.00  0.00    +0.000 A 
ATOM     20  C   UNL     1       5.051   4.580  16.069  0.00  0.00    +0.000 A 
ATOM     21  C   UNL     1       6.023   5.556  15.814  0.00  0.00    +0.000 A 
BRANCH  16  23
ATOM     22  C   UNL     1       7.673   8.096  17.495  0.00  0.00    +0.000 C 
ATOM     23  O   UNL     1       7.855   6.928  16.703  0.00  0.00    +0.000 OA
ENDBRANCH  16  23
ENDBRANCH  15  19
ENDBRANCH  14  15
ENDBRANCH   1  14
TORSDOF 6
ENDMDL
MODEL 7
REMARK VINA RESULT:      -7.0      2.954      4.208
REMARK  Name = 
REMARK  7 active torsions:
REMARK  status: ('A' for Active; 'I' for Inactive)
REMARK    1  A    between atoms: C_1  and  O_2
REMARK    2  A    between atoms: O_2  and  C_3
REMARK    3  A    between atoms: C_6  and  C_7
REMARK    4  A    between atoms: C_7  and  O_8
REMARK    5  A    between atoms: O_8  and  C_9
REMARK    6  A    between atoms: C_13  and  C_14
REMARK    7  A    between atoms: C_16  and  C_17
REMARK                            x       y       z     vdW  Elec       q    Type
REMARK                         _______ _______ _______ _____ _____    ______ ____
ROOT
ATOM      1  C   UNL     1       2.412   6.784  19.507  0.00  0.00    +0.000 A 
ATOM      2  C   UNL     1       2.248   5.653  20.308  0.00  0.00    +0.000 A 
ATOM      3  C   UNL     1       2.804   4.432  19.935  0.00  0.00    +0.000 A 
ATOM      4  C   UNL     1       3.553   4.340  18.761  0.00  0.00    +0.000 A 
ATOM      5  C   UNL     1       3.753   5.470  17.955  0.00  0.00    +0.000 A 
ATOM      6  C   UNL     1       3.171   6.693  18.336  0.00  0.00    +0.000 A 
ENDROOT
BRANCH   5   7
ATOM      7  C   UNL     1       4.579   5.382  16.748  0.00  0.00    +0.000 A 
ATOM      8  C   UNL     1       4.960   4.218  16.027  0.00  0.00    +0.000 A 
ATOM      9  C   UNL     1       5.744   4.676  14.994  0.00  0.00    +0.000 A 
ATOM     10  O   UNL     1       5.828   6.029  15.079  0.00  0.00    +0.000 OA
ATOM     11  N   UNL     1       5.099   6.472  16.163  0.00  0.00    +0.000 NA
BRANCH   9  12
ATOM     12  C   UNL     1       6.445   4.059  13.851  0.00  0.00    +0.000 C 
ATOM     13 CL   UNL     1       7.637   5.167  13.132  0.00  0.00    +0.000 Cl
ENDBRANCH   9  12
ENDBRANCH   5   7
BRANCH   1  14
ATOM     14  O   UNL     1       1.850   7.924  20.002  0.00  0.00    +0.000 OA
BRANCH  14  15
ATOM     15  C   UNL     1       1.254   7.841  21.298  0.00  0.00    +0.000 C 
BRANCH  15  19
ATOM     16  C   UNL     1      -1.103  11.412  21.953  0.00  0.00    +0.000 A 
ATOM     17  C   UNL     1      -0.817  10.544  23.007  0.00  0.00    +0.000 A 
ATOM     18  C   UNL     1      -0.052   9.397  22.793  0.00  0.00    +0.000 A 
ATOM     19  C   UNL     1       0.427   9.086  21.513  0.00  0.00    +0.000 A 
ATOM     20  C   UNL     1       0.122   9.952  20.455  0.00  0.00    +0.000 A 
ATOM     21  C   UNL     1      -0.639  11.107  20.674  0.00  0.00    +0.000 A 
BRANCH  16  23
ATOM     22  C   UNL     1      -2.928  12.243  23.207  0.00  0.00    +0.000 C 
ATOM     23  O   UNL     1      -1.875  12.491  22.282  0.00  0.00    +0.000 OA
ENDBRANCH  16  23
ENDBRANCH  15  19
ENDBRANCH  14  15
ENDBRANCH   1  14
TORSDOF 6
ENDMDL
MODEL 8
REMARK VINA RESULT:      -7.0      5.054      6.314
REMARK  Name = 
REMARK  7 active torsions:
REMARK  status: ('A' for Active; 'I' for Inactive)
REMARK    1  A    between atoms: C_1  and  O_2
REMARK    2  A    between atoms: O_2  and  C_3
REMARK    3  A    between atoms: C_6  and  C_7
REMARK    4  A    between atoms: C_7  and  O_8
REMARK    5  A    between atoms: O_8  and  C_9
REMARK    6  A    between atoms: C_13  and  C_14
REMARK    7  A    between atoms: C_16  and  C_17
REMARK                            x       y       z     vdW  Elec       q    Type
REMARK                         _______ _______ _______ _____ _____    ______ ____
ROOT
ATOM      1  C   UNL     1       7.742   7.833  17.810  0.00  0.00    +0.000 A 
ATOM      2  C   UNL     1       8.040   7.039  18.917  0.00  0.00    +0.000 A 
ATOM      3  C   UNL     1       7.907   5.654  18.854  0.00  0.00    +0.000 A 
ATOM      4  C   UNL     1       7.493   5.049  17.667  0.00  0.00    +0.000 A 
ATOM      5  C   UNL     1       7.212   5.826  16.534  0.00  0.00    +0.000 A 
ATOM      6  C   UNL     1       7.336   7.226  16.617  0.00  0.00    +0.000 A 
ENDROOT
BRANCH   5   7
ATOM      7  C   UNL     1       6.824   5.186  15.275  0.00  0.00    +0.000 A 
ATOM      8  C   UNL     1       5.612   4.507  14.971  0.00  0.00    +0.000 A 
ATOM      9  C   UNL     1       5.755   4.080  13.673  0.00  0.00    +0.000 A 
ATOM     10  O   UNL     1       6.970   4.480  13.215  0.00  0.00    +0.000 OA
ATOM     11  N   UNL     1       7.634   5.174  14.205  0.00  0.00    +0.000 NA
BRANCH   9  12
ATOM     12  C   UNL     1       4.910   3.356  12.703  0.00  0.00    +0.000 C 
ATOM     13 CL   UNL     1       5.868   2.257  11.683  0.00  0.00    +0.000 Cl
ENDBRANCH   9  12
ENDBRANCH   5   7
BRANCH   1  14
ATOM     14  O   UNL     1       7.949   9.169  17.989  0.00  0.00    +0.000 OA
BRANCH  14  15
ATOM     15  C   UNL     1       8.935   9.547  18.951  0.00  0.00    +0.000 C 
BRANCH  15  19
ATOM     16  C   UNL     1      10.666  13.302  17.671  0.00  0.00    +0.000 A 
ATOM     17  C   UNL     1       9.298  13.065  17.534  0.00  0.00    +0.000 A 
ATOM     18  C   UNL     1       8.743  11.856  17.954  0.00  0.00    +0.000 A 
ATOM     19  C   UNL     1       9.552  10.850  18.502  0.00  0.00    +0.000 A 
ATOM     20  C   UNL     1      10.927  11.086  18.620  0.00  0.00    +0.000 A 
ATOM     21  C   UNL     1      11.481  12.305  18.206  0.00  0.00    +0.000 A 
BRANCH  16  23
ATOM     22  C   UNL     1      10.809  15.633  18.041  0.00  0.00    +0.000 C 
ATOM     23  O   UNL     1      11.095  14.515  17.208  0.00  0.00    +0.000 OA
ENDBRANCH  16  23
ENDBRANCH  15  19
ENDBRANCH  14  15
ENDBRANCH   1  14
TORSDOF 6
ENDMDL
MODEL 9
REMARK VINA RESULT:      -6.9      3.938      7.252
REMARK  Name = 
REMARK  7 active torsions:
REMARK  status: ('A' for Active; 'I' for Inactive)
REMARK    1  A    between atoms: C_1  and  O_2
REMARK    2  A    between atoms: O_2  and  C_3
REMARK    3  A    between atoms: C_6  and  C_7
REMARK    4  A    between atoms: C_7  and  O_8
REMARK    5  A    between atoms: O_8  and  C_9
REMARK    6  A    between atoms: C_13  and  C_14
REMARK    7  A    between atoms: C_16  and  C_17
REMARK                            x       y       z     vdW  Elec       q    Type
REMARK                         _______ _______ _______ _____ _____    ______ ____
ROOT
ATOM      1  C   UNL     1       2.525   3.875  18.593  0.00  0.00    +0.000 A 
ATOM      2  C   UNL     1       2.288   3.002  19.655  0.00  0.00    +0.000 A 
ATOM      3  C   UNL     1       1.878   3.487  20.895  0.00  0.00    +0.000 A 
ATOM      4  C   UNL     1       1.680   4.856  21.074  0.00  0.00    +0.000 A 
ATOM      5  C   UNL     1       1.888   5.749  20.012  0.00  0.00    +0.000 A 
ATOM      6  C   UNL     1       2.318   5.246  18.770  0.00  0.00    +0.000 A 
ENDROOT
BRANCH   5   7
ATOM      7  C   UNL     1       1.634   7.181  20.189  0.00  0.00    +0.000 A 
ATOM      8  C   UNL     1       1.048   7.839  21.305  0.00  0.00    +0.000 A 
ATOM      9  C   UNL     1       1.021   9.170  20.963  0.00  0.00    +0.000 A 
ATOM     10  O   UNL     1       1.561   9.312  19.725  0.00  0.00    +0.000 OA
ATOM     11  N   UNL     1       1.951   8.080  19.244  0.00  0.00    +0.000 NA
BRANCH   9  12
ATOM     12  C   UNL     1       0.594  10.419  21.624  0.00  0.00    +0.000 C 
ATOM     13 CL   UNL     1      -0.563  10.107  22.940  0.00  0.00    +0.000 Cl
ENDBRANCH   9  12
ENDBRANCH   5   7
BRANCH   1  14
ATOM     14  O   UNL     1       2.885   3.271  17.424  0.00  0.00    +0.000 OA
BRANCH  14  15
ATOM     15  C   UNL     1       4.239   2.827  17.316  0.00  0.00    +0.000 C 
BRANCH  15  19
ATOM     16  C   UNL     1       6.746   6.339  16.974  0.00  0.00    +0.000 A 
ATOM     17  C   UNL     1       5.943   5.932  15.909  0.00  0.00    +0.000 A 
ATOM     18  C   UNL     1       5.131   4.803  16.025  0.00  0.00    +0.000 A 
ATOM     19  C   UNL     1       5.123   4.047  17.206  0.00  0.00    +0.000 A 
ATOM     20  C   UNL     1       5.945   4.451  18.266  0.00  0.00    +0.000 A 
ATOM     21  C   UNL     1       6.752   5.590  18.150  0.00  0.00    +0.000 A 
BRANCH  16  23
ATOM     22  C   UNL     1       7.897   8.195  17.883  0.00  0.00    +0.000 C 
ATOM     23  O   UNL     1       7.509   7.449  16.735  0.00  0.00    +0.000 OA
ENDBRANCH  16  23
ENDBRANCH  15  19
ENDBRANCH  14  15
ENDBRANCH   1  14
TORSDOF 6
ENDMDL
