MODEL 1
REMARK VINA RESULT:      -7.5      0.000      0.000
REMARK  Name = 
REMARK  9 active torsions:
REMARK  status: ('A' for Active; 'I' for Inactive)
REMARK    1  A    between atoms: C_1  and  O_2
REMARK    2  A    between atoms: O_2  and  C_3
REMARK    3  A    between atoms: C_3  and  C_4
REMARK    4  A    between atoms: C_3  and  O_30
REMARK    5  A    between atoms: C_4  and  N_5
REMARK    6  A    between atoms: C_6  and  C_8
REMARK    7  A    between atoms: C_11  and  C_12
REMARK    8  A    between atoms: C_12  and  N_13
REMARK    9  A    between atoms: O_30  and  C_31
REMARK                            x       y       z     vdW  Elec       q    Type
REMARK                         _______ _______ _______ _____ _____    ______ ____
ROOT
ATOM      1  C   UNL     1       0.368  11.233  18.543  0.00  0.00    +0.000 C 
ENDROOT
BRANCH   1   2
ATOM      2  N   UNL     1      -0.963  11.475  19.127  0.00  0.00    +0.000 N 
ATOM      3  C   UNL     1      -1.297  12.607  19.863  0.00  0.00    +0.000 A 
ATOM      4  S   UNL     1      -0.655  14.145  19.704  0.00  0.00    +0.000 S 
ATOM      5  N   UNL     1      -2.464  12.446  20.621  0.00  0.00    +0.000 N 
ATOM      6  C   UNL     1      -3.593  12.159  19.815  0.00  0.00    +0.000 A 
ATOM      7  C   UNL     1      -4.816  12.758  20.105  0.00  0.00    +0.000 A 
ATOM      8  C   UNL     1      -5.718  12.828  19.065  0.00  0.00    +0.000 A 
ATOM      9  C   UNL     1      -5.445  12.302  17.818  0.00  0.00    +0.000 A 
ATOM     10  C   UNL     1      -4.288  11.595  17.555  0.00  0.00    +0.000 A 
ATOM     11  C   UNL     1      -3.356  11.515  18.589  0.00  0.00    +0.000 A 
ATOM     12  C   UNL     1      -2.024  10.874  18.425  0.00  0.00    +0.000 A 
ATOM     13  O   UNL     1      -1.916   9.930  17.649  0.00  0.00    +0.000 OA
ATOM     14  O   UNL     1      -6.408  12.614  16.907  0.00  0.00    +0.000 OA
ATOM     15  C   UNL     1      -7.343  13.344  17.731  0.00  0.00    +0.000 C 
ATOM     16  O   UNL     1      -6.909  13.486  19.100  0.00  0.00    +0.000 OA
ATOM     17  H   UNL     1      -2.344  11.698  21.301  0.00  0.00    +0.000 HD
ENDBRANCH   1   2
BRANCH   1  21
ATOM     18  C   UNL     1       2.201   7.378  19.443  0.00  0.00    +0.000 A 
ATOM     19  C   UNL     1       1.527   8.095  20.438  0.00  0.00    +0.000 A 
ATOM     20  C   UNL     1       0.982   9.360  20.166  0.00  0.00    +0.000 A 
ATOM     21  C   UNL     1       1.079   9.929  18.886  0.00  0.00    +0.000 A 
ATOM     22  C   UNL     1       1.760   9.202  17.900  0.00  0.00    +0.000 A 
ATOM     23  C   UNL     1       2.338   7.954  18.177  0.00  0.00    +0.000 A 
BRANCH  18  25
ATOM     24  N   UNL     1       4.062   5.821  19.169  0.00  0.00    +0.000 N 
ATOM     25  C   UNL     1       2.805   6.019  19.678  0.00  0.00    +0.000 C 
ATOM     26  O   UNL     1       2.191   5.180  20.328  0.00  0.00    +0.000 OA
ATOM     27  H   UNL     1       4.584   6.576  18.735  0.00  0.00    +0.000 HD
BRANCH  24  28
ATOM     28  C   UNL     1       4.751   4.542  19.294  0.00  0.00    +0.000 C 
BRANCH  28  29
ATOM     29  C   UNL     1       4.592   3.657  18.032  0.00  0.00    +0.000 C 
BRANCH  29  31
ATOM     30  C   UNL     1       5.239   4.628  15.948  0.00  0.00    +0.000 C 
ATOM     31  O   UNL     1       4.194   4.415  16.885  0.00  0.00    +0.000 OA
ENDBRANCH  29  31
BRANCH  29  32
ATOM     32  O   UNL     1       3.581   2.673  18.306  0.00  0.00    +0.000 OA
ATOM     33  C   UNL     1       2.411   2.873  17.523  0.00  0.00    +0.000 C 
ENDBRANCH  29  32
ENDBRANCH  28  29
ENDBRANCH  24  28
ENDBRANCH  18  25
ENDBRANCH   1  21
TORSDOF 7
ENDMDL
MODEL 2
REMARK VINA RESULT:      -7.5      2.349      9.685
REMARK  Name = 
REMARK  9 active torsions:
REMARK  status: ('A' for Active; 'I' for Inactive)
REMARK    1  A    between atoms: C_1  and  O_2
REMARK    2  A    between atoms: O_2  and  C_3
REMARK    3  A    between atoms: C_3  and  C_4
REMARK    4  A    between atoms: C_3  and  O_30
REMARK    5  A    between atoms: C_4  and  N_5
REMARK    6  A    between atoms: C_6  and  C_8
REMARK    7  A    between atoms: C_11  and  C_12
REMARK    8  A    between atoms: C_12  and  N_13
REMARK    9  A    between atoms: O_30  and  C_31
REMARK                            x       y       z     vdW  Elec       q    Type
REMARK                         _______ _______ _______ _____ _____    ______ ____
ROOT
ATOM      1  C   UNL     1       1.258  10.450  18.764  0.00  0.00    +0.000 C 
ENDROOT
BRANCH   1   2
ATOM      2  N   UNL     1       1.732   9.167  19.312  0.00  0.00    +0.000 N 
ATOM      3  C   UNL     1       1.271   8.608  20.500  0.00  0.00    +0.000 A 
ATOM      4  S   UNL     1      -0.249   8.787  21.180  0.00  0.00    +0.000 S 
ATOM      5  N   UNL     1       2.114   7.610  21.003  0.00  0.00    +0.000 N 
ATOM      6  C   UNL     1       2.265   6.529  20.098  0.00  0.00    +0.000 A 
ATOM      7  C   UNL     1       2.269   5.224  20.581  0.00  0.00    +0.000 A 
ATOM      8  C   UNL     1       1.948   4.240  19.670  0.00  0.00    +0.000 A 
ATOM      9  C   UNL     1       1.674   4.525  18.347  0.00  0.00    +0.000 A 
ATOM     10  C   UNL     1       1.792   5.799  17.829  0.00  0.00    +0.000 A 
ATOM     11  C   UNL     1       2.110   6.813  18.732  0.00  0.00    +0.000 A 
ATOM     12  C   UNL     1       2.173   8.247  18.342  0.00  0.00    +0.000 A 
ATOM     13  O   UNL     1       2.525   8.534  17.202  0.00  0.00    +0.000 OA
ATOM     14  O   UNL     1       1.237   3.429  17.666  0.00  0.00    +0.000 OA
ATOM     15  C   UNL     1       1.319   2.415  18.691  0.00  0.00    +0.000 C 
ATOM     16  O   UNL     1       1.766   2.924  19.965  0.00  0.00    +0.000 OA
ATOM     17  H   UNL     1       3.032   7.995  21.215  0.00  0.00    +0.000 HD
ENDBRANCH   1   2
BRANCH   1  21
ATOM     18  C   UNL     1      -2.994  11.199  18.145  0.00  0.00    +0.000 A 
ATOM     19  C   UNL     1      -2.274  11.931  19.097  0.00  0.00    +0.000 A 
ATOM     20  C   UNL     1      -0.918  11.656  19.336  0.00  0.00    +0.000 A 
ATOM     21  C   UNL     1      -0.245  10.658  18.614  0.00  0.00    +0.000 A 
ATOM     22  C   UNL     1      -0.979   9.931  17.668  0.00  0.00    +0.000 A 
ATOM     23  C   UNL     1      -2.343  10.177  17.451  0.00  0.00    +0.000 A 
BRANCH  18  25
ATOM     24  N   UNL     1      -5.198  11.950  18.881  0.00  0.00    +0.000 N 
ATOM     25  C   UNL     1      -4.449  11.451  17.847  0.00  0.00    +0.000 C 
ATOM     26  O   UNL     1      -4.888  11.245  16.721  0.00  0.00    +0.000 OA
ATOM     27  H   UNL     1      -4.774  12.214  19.765  0.00  0.00    +0.000 HD
BRANCH  24  28
ATOM     28  C   UNL     1      -6.627  12.208  18.742  0.00  0.00    +0.000 C 
BRANCH  28  29
ATOM     29  C   UNL     1      -7.399  11.998  20.069  0.00  0.00    +0.000 C 
BRANCH  29  31
ATOM     30  C   UNL     1      -7.916  14.300  20.441  0.00  0.00    +0.000 C 
ATOM     31  O   UNL     1      -7.293  13.128  20.942  0.00  0.00    +0.000 OA
ENDBRANCH  29  31
BRANCH  29  32
ATOM     32  O   UNL     1      -6.840  10.852  20.730  0.00  0.00    +0.000 OA
ATOM     33  C   UNL     1      -7.531   9.653  20.400  0.00  0.00    +0.000 C 
ENDBRANCH  29  32
ENDBRANCH  28  29
ENDBRANCH  24  28
ENDBRANCH  18  25
ENDBRANCH   1  21
TORSDOF 7
ENDMDL
MODEL 3
REMARK VINA RESULT:      -7.4      1.011      1.425
REMARK  Name = 
REMARK  9 active torsions:
REMARK  status: ('A' for Active; 'I' for Inactive)
REMARK    1  A    between atoms: C_1  and  O_2
REMARK    2  A    between atoms: O_2  and  C_3
REMARK    3  A    between atoms: C_3  and  C_4
REMARK    4  A    between atoms: C_3  and  O_30
REMARK    5  A    between atoms: C_4  and  N_5
REMARK    6  A    between atoms: C_6  and  C_8
REMARK    7  A    between atoms: C_11  and  C_12
REMARK    8  A    between atoms: C_12  and  N_13
REMARK    9  A    between atoms: O_30  and  C_31
REMARK                            x       y       z     vdW  Elec       q    Type
REMARK                         _______ _______ _______ _____ _____    ______ ____
ROOT
ATOM      1  C   UNL     1       0.323  11.318  18.472  0.00  0.00    +0.000 C 
ENDROOT
BRANCH   1   2
ATOM      2  N   UNL     1      -0.990  11.599  19.079  0.00  0.00    +0.000 N 
ATOM      3  C   UNL     1      -1.306  12.781  19.742  0.00  0.00    +0.000 A 
ATOM      4  S   UNL     1      -0.674  14.305  19.452  0.00  0.00    +0.000 S 
ATOM      5  N   UNL     1      -2.447  12.674  20.546  0.00  0.00    +0.000 N 
ATOM      6  C   UNL     1      -3.600  12.328  19.798  0.00  0.00    +0.000 A 
ATOM      7  C   UNL     1      -4.815  12.945  20.083  0.00  0.00    +0.000 A 
ATOM      8  C   UNL     1      -5.750  12.938  19.070  0.00  0.00    +0.000 A 
ATOM      9  C   UNL     1      -5.514  12.324  17.856  0.00  0.00    +0.000 A 
ATOM     10  C   UNL     1      -4.363  11.601  17.608  0.00  0.00    +0.000 A 
ATOM     11  C   UNL     1      -3.399  11.598  18.616  0.00  0.00    +0.000 A 
ATOM     12  C   UNL     1      -2.071  10.948  18.456  0.00  0.00    +0.000 A 
ATOM     13  O   UNL     1      -1.983   9.950  17.747  0.00  0.00    +0.000 OA
ATOM     14  O   UNL     1      -6.506  12.568  16.956  0.00  0.00    +0.000 OA
ATOM     15  C   UNL     1      -7.418  13.354  17.754  0.00  0.00    +0.000 C 
ATOM     16  O   UNL     1      -6.942  13.595  19.094  0.00  0.00    +0.000 OA
ATOM     17  H   UNL     1      -2.303  11.977  21.274  0.00  0.00    +0.000 HD
ENDBRANCH   1   2
BRANCH   1  21
ATOM     18  C   UNL     1       2.138   7.476  19.459  0.00  0.00    +0.000 A 
ATOM     19  C   UNL     1       1.425   8.196  20.425  0.00  0.00    +0.000 A 
ATOM     20  C   UNL     1       0.886   9.457  20.126  0.00  0.00    +0.000 A 
ATOM     21  C   UNL     1       1.026  10.019  18.848  0.00  0.00    +0.000 A 
ATOM     22  C   UNL     1       1.746   9.290  17.891  0.00  0.00    +0.000 A 
ATOM     23  C   UNL     1       2.318   8.046  18.196  0.00  0.00    +0.000 A 
BRANCH  18  25
ATOM     24  N   UNL     1       3.831   5.787  18.965  0.00  0.00    +0.000 N 
ATOM     25  C   UNL     1       2.739   6.121  19.723  0.00  0.00    +0.000 C 
ATOM     26  O   UNL     1       2.272   5.405  20.603  0.00  0.00    +0.000 OA
ATOM     27  H   UNL     1       4.257   6.451  18.326  0.00  0.00    +0.000 HD
BRANCH  24  28
ATOM     28  C   UNL     1       4.490   4.492  19.093  0.00  0.00    +0.000 C 
BRANCH  28  29
ATOM     29  C   UNL     1       5.907   4.484  18.465  0.00  0.00    +0.000 C 
BRANCH  29  31
ATOM     30  C   UNL     1       7.623   6.114  18.788  0.00  0.00    +0.000 C 
ATOM     31  O   UNL     1       6.893   5.031  19.346  0.00  0.00    +0.000 OA
ENDBRANCH  29  31
BRANCH  29  32
ATOM     32  O   UNL     1       5.866   5.279  17.269  0.00  0.00    +0.000 OA
ATOM     33  C   UNL     1       5.898   4.480  16.093  0.00  0.00    +0.000 C 
ENDBRANCH  29  32
ENDBRANCH  28  29
ENDBRANCH  24  28
ENDBRANCH  18  25
ENDBRANCH   1  21
TORSDOF 7
ENDMDL
MODEL 4
REMARK VINA RESULT:      -7.4      3.407      4.541
REMARK  Name = 
REMARK  9 active torsions:
REMARK  status: ('A' for Active; 'I' for Inactive)
REMARK    1  A    between atoms: C_1  and  O_2
REMARK    2  A    between atoms: O_2  and  C_3
REMARK    3  A    between atoms: C_3  and  C_4
REMARK    4  A    between atoms: C_3  and  O_30
REMARK    5  A    between atoms: C_4  and  N_5
REMARK    6  A    between atoms: C_6  and  C_8
REMARK    7  A    between atoms: C_11  and  C_12
REMARK    8  A    between atoms: C_12  and  N_13
REMARK    9  A    between atoms: O_30  and  C_31
REMARK                            x       y       z     vdW  Elec       q    Type
REMARK                         _______ _______ _______ _____ _____    ______ ____
ROOT
ATOM      1  C   UNL     1      -0.062  10.205  20.110  0.00  0.00    +0.000 C 
ENDROOT
BRANCH   1   2
ATOM      2  N   UNL     1       0.044  11.569  19.562  0.00  0.00    +0.000 N 
ATOM      3  C   UNL     1      -0.883  12.134  18.693  0.00  0.00    +0.000 A 
ATOM      4  S   UNL     1      -2.522  11.804  18.605  0.00  0.00    +0.000 S 
ATOM      5  N   UNL     1      -0.393  13.262  18.022  0.00  0.00    +0.000 N 
ATOM      6  C   UNL     1      -0.016  14.296  18.914  0.00  0.00    +0.000 A 
ATOM      7  C   UNL     1      -0.321  15.618  18.602  0.00  0.00    +0.000 A 
ATOM      8  C   UNL     1      -0.368  16.495  19.664  0.00  0.00    +0.000 A 
ATOM      9  C   UNL     1      -0.093  16.099  20.958  0.00  0.00    +0.000 A 
ATOM     10  C   UNL     1       0.334  14.821  21.261  0.00  0.00    +0.000 A 
ATOM     11  C   UNL     1       0.384  13.913  20.204  0.00  0.00    +0.000 A 
ATOM     12  C   UNL     1       0.727  12.478  20.392  0.00  0.00    +0.000 A 
ATOM     13  O   UNL     1       1.510  12.170  21.286  0.00  0.00    +0.000 OA
ATOM     14  O   UNL     1      -0.344  17.086  21.862  0.00  0.00    +0.000 OA
ATOM     15  C   UNL     1      -0.753  18.163  20.990  0.00  0.00    +0.000 C 
ATOM     16  O   UNL     1      -0.774  17.793  19.596  0.00  0.00    +0.000 OA
ATOM     17  H   UNL     1       0.409  13.010  17.448  0.00  0.00    +0.000 HD
ENDBRANCH   1   2
BRANCH   1  21
ATOM     18  C   UNL     1       2.669   7.099  18.721  0.00  0.00    +0.000 A 
ATOM     19  C   UNL     1       2.200   7.097  20.041  0.00  0.00    +0.000 A 
ATOM     20  C   UNL     1       1.364   8.124  20.506  0.00  0.00    +0.000 A 
ATOM     21  C   UNL     1       0.958   9.167  19.657  0.00  0.00    +0.000 A 
ATOM     22  C   UNL     1       1.439   9.159  18.341  0.00  0.00    +0.000 A 
ATOM     23  C   UNL     1       2.303   8.154  17.882  0.00  0.00    +0.000 A 
BRANCH  18  25
ATOM     24  N   UNL     1       4.556   6.444  17.317  0.00  0.00    +0.000 N 
ATOM     25  C   UNL     1       3.568   6.025  18.169  0.00  0.00    +0.000 C 
ATOM     26  O   UNL     1       3.415   4.859  18.518  0.00  0.00    +0.000 OA
ATOM     27  H   UNL     1       4.722   7.430  17.141  0.00  0.00    +0.000 HD
BRANCH  24  28
ATOM     28  C   UNL     1       5.475   5.506  16.683  0.00  0.00    +0.000 C 
BRANCH  28  29
ATOM     29  C   UNL     1       6.936   6.024  16.671  0.00  0.00    +0.000 C 
BRANCH  29  31
ATOM     30  C   UNL     1       7.921   7.944  17.694  0.00  0.00    +0.000 C 
ATOM     31  O   UNL     1       7.005   7.452  16.728  0.00  0.00    +0.000 OA
ENDBRANCH  29  31
BRANCH  29  32
ATOM     32  O   UNL     1       7.553   5.581  15.451  0.00  0.00    +0.000 OA
ATOM     33  C   UNL     1       6.678   4.777  14.670  0.00  0.00    +0.000 C 
ENDBRANCH  29  32
ENDBRANCH  28  29
ENDBRANCH  24  28
ENDBRANCH  18  25
ENDBRANCH   1  21
TORSDOF 7
ENDMDL
MODEL 5
REMARK VINA RESULT:      -7.4      2.372      9.834
REMARK  Name = 
REMARK  9 active torsions:
REMARK  status: ('A' for Active; 'I' for Inactive)
REMARK    1  A    between atoms: C_1  and  O_2
REMARK    2  A    between atoms: O_2  and  C_3
REMARK    3  A    between atoms: C_3  and  C_4
REMARK    4  A    between atoms: C_3  and  O_30
REMARK    5  A    between atoms: C_4  and  N_5
REMARK    6  A    between atoms: C_6  and  C_8
REMARK    7  A    between atoms: C_11  and  C_12
REMARK    8  A    between atoms: C_12  and  N_13
REMARK    9  A    between atoms: O_30  and  C_31
REMARK                            x       y       z     vdW  Elec       q    Type
REMARK                         _______ _______ _______ _____ _____    ______ ____
ROOT
ATOM      1  C   UNL     1       1.348  10.447  18.829  0.00  0.00    +0.000 C 
ENDROOT
BRANCH   1   2
ATOM      2  N   UNL     1       1.745   9.143  19.390  0.00  0.00    +0.000 N 
ATOM      3  C   UNL     1       1.203   8.594  20.547  0.00  0.00    +0.000 A 
ATOM      4  S   UNL     1      -0.343   8.824  21.149  0.00  0.00    +0.000 S 
ATOM      5  N   UNL     1       1.981   7.561  21.084  0.00  0.00    +0.000 N 
ATOM      6  C   UNL     1       2.139   6.482  20.179  0.00  0.00    +0.000 A 
ATOM      7  C   UNL     1       2.070   5.174  20.649  0.00  0.00    +0.000 A 
ATOM      8  C   UNL     1       1.761   4.209  19.714  0.00  0.00    +0.000 A 
ATOM      9  C   UNL     1       1.567   4.514  18.381  0.00  0.00    +0.000 A 
ATOM     10  C   UNL     1       1.759   5.787  17.881  0.00  0.00    +0.000 A 
ATOM     11  C   UNL     1       2.066   6.781  18.809  0.00  0.00    +0.000 A 
ATOM     12  C   UNL     1       2.202   8.215  18.436  0.00  0.00    +0.000 A 
ATOM     13  O   UNL     1       2.623   8.497  17.318  0.00  0.00    +0.000 OA
ATOM     14  O   UNL     1       1.126   3.440  17.669  0.00  0.00    +0.000 OA
ATOM     15  C   UNL     1       1.118   2.416  18.687  0.00  0.00    +0.000 C 
ATOM     16  O   UNL     1       1.516   2.898  19.986  0.00  0.00    +0.000 OA
ATOM     17  H   UNL     1       2.900   7.911  21.347  0.00  0.00    +0.000 HD
ENDBRANCH   1   2
BRANCH   1  21
ATOM     18  C   UNL     1      -2.918  10.946  18.066  0.00  0.00    +0.000 A 
ATOM     19  C   UNL     1      -2.198   9.923  17.439  0.00  0.00    +0.000 A 
ATOM     20  C   UNL     1      -0.815   9.792  17.641  0.00  0.00    +0.000 A 
ATOM     21  C   UNL     1      -0.122  10.668  18.492  0.00  0.00    +0.000 A 
ATOM     22  C   UNL     1      -0.855  11.690  19.110  0.00  0.00    +0.000 A 
ATOM     23  C   UNL     1      -2.230  11.847  18.883  0.00  0.00    +0.000 A 
BRANCH  18  25
ATOM     24  N   UNL     1      -4.788  12.251  17.192  0.00  0.00    +0.000 N 
ATOM     25  C   UNL     1      -4.401  11.134  17.886  0.00  0.00    +0.000 C 
ATOM     26  O   UNL     1      -5.182  10.292  18.316  0.00  0.00    +0.000 OA
ATOM     27  H   UNL     1      -4.108  12.865  16.754  0.00  0.00    +0.000 HD
BRANCH  24  28
ATOM     28  C   UNL     1      -6.193  12.574  16.974  0.00  0.00    +0.000 C 
BRANCH  28  29
ATOM     29  C   UNL     1      -6.803  13.388  18.144  0.00  0.00    +0.000 C 
BRANCH  29  31
ATOM     30  C   UNL     1      -7.201  12.693  20.394  0.00  0.00    +0.000 C 
ATOM     31  O   UNL     1      -7.573  12.569  19.029  0.00  0.00    +0.000 OA
ENDBRANCH  29  31
BRANCH  29  32
ATOM     32  O   UNL     1      -7.661  14.394  17.583  0.00  0.00    +0.000 OA
ATOM     33  C   UNL     1      -7.006  15.158  16.577  0.00  0.00    +0.000 C 
ENDBRANCH  29  32
ENDBRANCH  28  29
ENDBRANCH  24  28
ENDBRANCH  18  25
ENDBRANCH   1  21
TORSDOF 7
ENDMDL
MODEL 6
REMARK VINA RESULT:      -7.4      2.472      3.519
REMARK  Name = 
REMARK  9 active torsions:
REMARK  status: ('A' for Active; 'I' for Inactive)
REMARK    1  A    between atoms: C_1  and  O_2
REMARK    2  A    between atoms: O_2  and  C_3
REMARK    3  A    between atoms: C_3  and  C_4
REMARK    4  A    between atoms: C_3  and  O_30
REMARK    5  A    between atoms: C_4  and  N_5
REMARK    6  A    between atoms: C_6  and  C_8
REMARK    7  A    between atoms: C_11  and  C_12
REMARK    8  A    between atoms: C_12  and  N_13
REMARK    9  A    between atoms: O_30  and  C_31
REMARK                            x       y       z     vdW  Elec       q    Type
REMARK                         _______ _______ _______ _____ _____    ______ ____
ROOT
ATOM      1  C   UNL     1       1.108  11.785  18.981  0.00  0.00    +0.000 C 
ENDROOT
BRANCH   1   2
ATOM      2  N   UNL     1      -0.197  12.334  19.388  0.00  0.00    +0.000 N 
ATOM      3  C   UNL     1      -1.409  11.975  18.808  0.00  0.00    +0.000 A 
ATOM      4  S   UNL     1      -1.804  10.502  18.117  0.00  0.00    +0.000 S 
ATOM      5  N   UNL     1      -2.442  12.880  19.083  0.00  0.00    +0.000 N 
ATOM      6  C   UNL     1      -2.695  13.001  20.472  0.00  0.00    +0.000 A 
ATOM      7  C   UNL     1      -4.008  13.078  20.927  0.00  0.00    +0.000 A 
ATOM      8  C   UNL     1      -4.215  12.724  22.243  0.00  0.00    +0.000 A 
ATOM      9  C   UNL     1      -3.178  12.350  23.075  0.00  0.00    +0.000 A 
ATOM     10  C   UNL     1      -1.858  12.392  22.671  0.00  0.00    +0.000 A 
ATOM     11  C   UNL     1      -1.624  12.742  21.342  0.00  0.00    +0.000 A 
ATOM     12  C   UNL     1      -0.265  12.734  20.735  0.00  0.00    +0.000 A 
ATOM     13  O   UNL     1       0.700  12.996  21.447  0.00  0.00    +0.000 OA
ATOM     14  O   UNL     1      -3.624  11.899  24.280  0.00  0.00    +0.000 OA
ATOM     15  C   UNL     1      -5.049  12.083  24.135  0.00  0.00    +0.000 C 
ATOM     16  O   UNL     1      -5.430  12.603  22.844  0.00  0.00    +0.000 OA
ATOM     17  H   UNL     1      -2.215  13.799  18.706  0.00  0.00    +0.000 HD
ENDBRANCH   1   2
BRANCH   1  21
ATOM     18  C   UNL     1       1.933   7.517  19.352  0.00  0.00    +0.000 A 
ATOM     19  C   UNL     1       2.143   8.179  18.137  0.00  0.00    +0.000 A 
ATOM     20  C   UNL     1       1.828   9.540  17.998  0.00  0.00    +0.000 A 
ATOM     21  C   UNL     1       1.317  10.278  19.078  0.00  0.00    +0.000 A 
ATOM     22  C   UNL     1       1.108   9.601  20.288  0.00  0.00    +0.000 A 
ATOM     23  C   UNL     1       1.387   8.233  20.420  0.00  0.00    +0.000 A 
BRANCH  18  25
ATOM     24  N   UNL     1       2.750   5.392  18.468  0.00  0.00    +0.000 N 
ATOM     25  C   UNL     1       2.252   6.060  19.557  0.00  0.00    +0.000 C 
ATOM     26  O   UNL     1       2.100   5.549  20.661  0.00  0.00    +0.000 OA
ATOM     27  H   UNL     1       2.969   5.877  17.603  0.00  0.00    +0.000 HD
BRANCH  24  28
ATOM     28  C   UNL     1       3.069   3.970  18.516  0.00  0.00    +0.000 C 
BRANCH  28  29
ATOM     29  C   UNL     1       4.592   3.701  18.416  0.00  0.00    +0.000 C 
BRANCH  29  31
ATOM     30  C   UNL     1       4.282   2.265  20.299  0.00  0.00    +0.000 C 
ATOM     31  O   UNL     1       5.133   3.188  19.637  0.00  0.00    +0.000 OA
ENDBRANCH  29  31
BRANCH  29  32
ATOM     32  O   UNL     1       5.242   4.945  18.111  0.00  0.00    +0.000 OA
ATOM     33  C   UNL     1       6.257   5.266  19.054  0.00  0.00    +0.000 C 
ENDBRANCH  29  32
ENDBRANCH  28  29
ENDBRANCH  24  28
ENDBRANCH  18  25
ENDBRANCH   1  21
TORSDOF 7
ENDMDL
MODEL 7
REMARK VINA RESULT:      -7.4      2.393      3.211
REMARK  Name = 
REMARK  9 active torsions:
REMARK  status: ('A' for Active; 'I' for Inactive)
REMARK    1  A    between atoms: C_1  and  O_2
REMARK    2  A    between atoms: O_2  and  C_3
REMARK    3  A    between atoms: C_3  and  C_4
REMARK    4  A    between atoms: C_3  and  O_30
REMARK    5  A    between atoms: C_4  and  N_5
REMARK    6  A    between atoms: C_6  and  C_8
REMARK    7  A    between atoms: C_11  and  C_12
REMARK    8  A    between atoms: C_12  and  N_13
REMARK    9  A    between atoms: O_30  and  C_31
REMARK                            x       y       z     vdW  Elec       q    Type
REMARK                         _______ _______ _______ _____ _____    ______ ____
ROOT
ATOM      1  C   UNL     1       1.235  11.426  18.960  0.00  0.00    +0.000 C 
ENDROOT
BRANCH   1   2
ATOM      2  N   UNL     1      -0.048  12.056  19.320  0.00  0.00    +0.000 N 
ATOM      3  C   UNL     1      -1.265  11.743  18.724  0.00  0.00    +0.000 A 
ATOM      4  S   UNL     1      -1.722  10.271  18.068  0.00  0.00    +0.000 S 
ATOM      5  N   UNL     1      -2.253  12.710  18.946  0.00  0.00    +0.000 N 
ATOM      6  C   UNL     1      -2.529  12.887  20.325  0.00  0.00    +0.000 A 
ATOM      7  C   UNL     1      -3.847  13.047  20.747  0.00  0.00    +0.000 A 
ATOM      8  C   UNL     1      -4.100  12.746  22.068  0.00  0.00    +0.000 A 
ATOM      9  C   UNL     1      -3.103  12.344  22.935  0.00  0.00    +0.000 A 
ATOM     10  C   UNL     1      -1.774  12.304  22.560  0.00  0.00    +0.000 A 
ATOM     11  C   UNL     1      -1.493  12.599  21.227  0.00  0.00    +0.000 A 
ATOM     12  C   UNL     1      -0.124  12.501  20.653  0.00  0.00    +0.000 A 
ATOM     13  O   UNL     1       0.838  12.735  21.378  0.00  0.00    +0.000 OA
ATOM     14  O   UNL     1      -3.599  11.956  24.142  0.00  0.00    +0.000 OA
ATOM     15  C   UNL     1      -5.009  12.210  23.958  0.00  0.00    +0.000 C 
ATOM     16  O   UNL     1      -5.333  12.708  22.644  0.00  0.00    +0.000 OA
ATOM     17  H   UNL     1      -1.970  13.603  18.548  0.00  0.00    +0.000 HD
ENDBRANCH   1   2
BRANCH   1  21
ATOM     18  C   UNL     1       1.933   7.204  19.809  0.00  0.00    +0.000 A 
ATOM     19  C   UNL     1       2.252   7.741  18.556  0.00  0.00    +0.000 A 
ATOM     20  C   UNL     1       1.980   9.086  18.261  0.00  0.00    +0.000 A 
ATOM     21  C   UNL     1       1.402   9.933  19.220  0.00  0.00    +0.000 A 
ATOM     22  C   UNL     1       1.083   9.382  20.469  0.00  0.00    +0.000 A 
ATOM     23  C   UNL     1       1.320   8.029  20.755  0.00  0.00    +0.000 A 
BRANCH  18  25
ATOM     24  N   UNL     1       3.329   5.208  19.637  0.00  0.00    +0.000 N 
ATOM     25  C   UNL     1       2.202   5.769  20.179  0.00  0.00    +0.000 C 
ATOM     26  O   UNL     1       1.453   5.186  20.955  0.00  0.00    +0.000 OA
ATOM     27  H   UNL     1       3.984   5.757  19.090  0.00  0.00    +0.000 HD
BRANCH  24  28
ATOM     28  C   UNL     1       3.691   3.818  19.884  0.00  0.00    +0.000 C 
BRANCH  28  29
ATOM     29  C   UNL     1       4.793   3.312  18.919  0.00  0.00    +0.000 C 
BRANCH  29  31
ATOM     30  C   UNL     1       6.174   4.560  17.423  0.00  0.00    +0.000 C 
ATOM     31  O   UNL     1       5.860   4.254  18.773  0.00  0.00    +0.000 OA
ENDBRANCH  29  31
BRANCH  29  32
ATOM     32  O   UNL     1       4.189   3.096  17.633  0.00  0.00    +0.000 OA
ATOM     33  C   UNL     1       3.051   2.248  17.710  0.00  0.00    +0.000 C 
ENDBRANCH  29  32
ENDBRANCH  28  29
ENDBRANCH  24  28
ENDBRANCH  18  25
ENDBRANCH   1  21
TORSDOF 7
ENDMDL
MODEL 8
REMARK VINA RESULT:      -7.3      2.295      9.754
REMARK  Name = 
REMARK  9 active torsions:
REMARK  status: ('A' for Active; 'I' for Inactive)
REMARK    1  A    between atoms: C_1  and  O_2
REMARK    2  A    between atoms: O_2  and  C_3
REMARK    3  A    between atoms: C_3  and  C_4
REMARK    4  A    between atoms: C_3  and  O_30
REMARK    5  A    between atoms: C_4  and  N_5
REMARK    6  A    between atoms: C_6  and  C_8
REMARK    7  A    between atoms: C_11  and  C_12
REMARK    8  A    between atoms: C_12  and  N_13
REMARK    9  A    between atoms: O_30  and  C_31
REMARK                            x       y       z     vdW  Elec       q    Type
REMARK                         _______ _______ _______ _____ _____    ______ ____
ROOT
ATOM      1  C   UNL     1       1.600  10.259  18.534  0.00  0.00    +0.000 C 
ENDROOT
BRANCH   1   2
ATOM      2  N   UNL     1       1.938   8.977  19.176  0.00  0.00    +0.000 N 
ATOM      3  C   UNL     1       1.366   8.523  20.361  0.00  0.00    +0.000 A 
ATOM      4  S   UNL     1      -0.171   8.855  20.935  0.00  0.00    +0.000 S 
ATOM      5  N   UNL     1       2.096   7.493  20.966  0.00  0.00    +0.000 N 
ATOM      6  C   UNL     1       2.214   6.355  20.131  0.00  0.00    +0.000 A 
ATOM      7  C   UNL     1       2.086   5.082  20.680  0.00  0.00    +0.000 A 
ATOM      8  C   UNL     1       1.741   4.076  19.803  0.00  0.00    +0.000 A 
ATOM      9  C   UNL     1       1.567   4.305  18.453  0.00  0.00    +0.000 A 
ATOM     10  C   UNL     1       1.815   5.536  17.877  0.00  0.00    +0.000 A 
ATOM     11  C   UNL     1       2.161   6.572  18.744  0.00  0.00    +0.000 A 
ATOM     12  C   UNL     1       2.359   7.973  18.285  0.00  0.00    +0.000 A 
ATOM     13  O   UNL     1       2.798   8.166  17.155  0.00  0.00    +0.000 OA
ATOM     14  O   UNL     1       1.084   3.209  17.804  0.00  0.00    +0.000 OA
ATOM     15  C   UNL     1       1.027   2.251  18.884  0.00  0.00    +0.000 C 
ATOM     16  O   UNL     1       1.438   2.796  20.154  0.00  0.00    +0.000 OA
ATOM     17  H   UNL     1       3.028   7.819  21.215  0.00  0.00    +0.000 HD
ENDBRANCH   1   2
BRANCH   1  21
ATOM     18  C   UNL     1      -2.658  11.191  18.344  0.00  0.00    +0.000 A 
ATOM     19  C   UNL     1      -2.140  10.086  17.658  0.00  0.00    +0.000 A 
ATOM     20  C   UNL     1      -0.763   9.814  17.673  0.00  0.00    +0.000 A 
ATOM     21  C   UNL     1       0.127  10.627  18.393  0.00  0.00    +0.000 A 
ATOM     22  C   UNL     1      -0.404  11.732  19.072  0.00  0.00    +0.000 A 
ATOM     23  C   UNL     1      -1.775  12.029  19.029  0.00  0.00    +0.000 A 
BRANCH  18  25
ATOM     24  N   UNL     1      -4.486  12.604  19.135  0.00  0.00    +0.000 N 
ATOM     25  C   UNL     1      -4.125  11.531  18.362  0.00  0.00    +0.000 C 
ATOM     26  O   UNL     1      -4.911  10.885  17.679  0.00  0.00    +0.000 OA
ATOM     27  H   UNL     1      -3.791  13.183  19.596  0.00  0.00    +0.000 HD
BRANCH  24  28
ATOM     28  C   UNL     1      -5.876  13.022  19.271  0.00  0.00    +0.000 C 
BRANCH  28  29
ATOM     29  C   UNL     1      -6.396  12.888  20.725  0.00  0.00    +0.000 C 
BRANCH  29  31
ATOM     30  C   UNL     1      -7.421  10.758  20.389  0.00  0.00    +0.000 C 
ATOM     31  O   UNL     1      -6.493  11.523  21.142  0.00  0.00    +0.000 OA
ENDBRANCH  29  31
BRANCH  29  32
ATOM     32  O   UNL     1      -7.703  13.482  20.783  0.00  0.00    +0.000 OA
ATOM     33  C   UNL     1      -7.916  14.415  19.732  0.00  0.00    +0.000 C 
ENDBRANCH  29  32
ENDBRANCH  28  29
ENDBRANCH  24  28
ENDBRANCH  18  25
ENDBRANCH   1  21
TORSDOF 7
ENDMDL
MODEL 9
REMARK VINA RESULT:      -7.3      3.806      4.574
REMARK  Name = 
REMARK  9 active torsions:
REMARK  status: ('A' for Active; 'I' for Inactive)
REMARK    1  A    between atoms: C_1  and  O_2
REMARK    2  A    between atoms: O_2  and  C_3
REMARK    3  A    between atoms: C_3  and  C_4
REMARK    4  A    between atoms: C_3  and  O_30
REMARK    5  A    between atoms: C_4  and  N_5
REMARK    6  A    between atoms: C_6  and  C_8
REMARK    7  A    between atoms: C_11  and  C_12
REMARK    8  A    between atoms: C_12  and  N_13
REMARK    9  A    between atoms: O_30  and  C_31
REMARK                            x       y       z     vdW  Elec       q    Type
REMARK                         _______ _______ _______ _____ _____    ______ ____
ROOT
ATOM      1  C   UNL     1      -0.223   9.815  20.486  0.00  0.00    +0.000 C 
ENDROOT
BRANCH   1   2
ATOM      2  N   UNL     1       0.107  11.208  20.836  0.00  0.00    +0.000 N 
ATOM      3  C   UNL     1       0.145  12.254  19.920  0.00  0.00    +0.000 A 
ATOM      4  S   UNL     1      -0.759  12.405  18.518  0.00  0.00    +0.000 S 
ATOM      5  N   UNL     1       0.835  13.376  20.393  0.00  0.00    +0.000 N 
ATOM      6  C   UNL     1       0.251  13.910  21.568  0.00  0.00    +0.000 A 
ATOM      7  C   UNL     1       0.149  15.290  21.719  0.00  0.00    +0.000 A 
ATOM      8  C   UNL     1      -0.810  15.733  22.605  0.00  0.00    +0.000 A 
ATOM      9  C   UNL     1      -1.600  14.862  23.329  0.00  0.00    +0.000 A 
ATOM     10  C   UNL     1      -1.421  13.494  23.282  0.00  0.00    +0.000 A 
ATOM     11  C   UNL     1      -0.460  13.020  22.389  0.00  0.00    +0.000 A 
ATOM     12  C   UNL     1      -0.225  11.571  22.155  0.00  0.00    +0.000 A 
ATOM     13  O   UNL     1      -0.401  10.787  23.083  0.00  0.00    +0.000 OA
ATOM     14  O   UNL     1      -2.575  15.511  24.024  0.00  0.00    +0.000 OA
ATOM     15  C   UNL     1      -2.277  16.887  23.701  0.00  0.00    +0.000 C 
ATOM     16  O   UNL     1      -1.161  17.034  22.799  0.00  0.00    +0.000 OA
ATOM     17  H   UNL     1       1.807  13.139  20.584  0.00  0.00    +0.000 HD
ENDBRANCH   1   2
BRANCH   1  21
ATOM     18  C   UNL     1       2.729   7.207  18.612  0.00  0.00    +0.000 A 
ATOM     19  C   UNL     1       2.266   6.942  19.906  0.00  0.00    +0.000 A 
ATOM     20  C   UNL     1       1.357   7.809  20.533  0.00  0.00    +0.000 A 
ATOM     21  C   UNL     1       0.871   8.949  19.872  0.00  0.00    +0.000 A 
ATOM     22  C   UNL     1       1.346   9.203  18.578  0.00  0.00    +0.000 A 
ATOM     23  C   UNL     1       2.282   8.360  17.962  0.00  0.00    +0.000 A 
BRANCH  18  25
ATOM     24  N   UNL     1       4.500   6.920  16.955  0.00  0.00    +0.000 N 
ATOM     25  C   UNL     1       3.704   6.313  17.892  0.00  0.00    +0.000 C 
ATOM     26  O   UNL     1       3.778   5.125  18.185  0.00  0.00    +0.000 OA
ATOM     27  H   UNL     1       4.489   7.926  16.821  0.00  0.00    +0.000 HD
BRANCH  24  28
ATOM     28  C   UNL     1       5.464   6.168  16.160  0.00  0.00    +0.000 C 
BRANCH  28  29
ATOM     29  C   UNL     1       6.842   6.046  16.858  0.00  0.00    +0.000 C 
BRANCH  29  31
ATOM     30  C   UNL     1       7.862   8.019  17.736  0.00  0.00    +0.000 C 
ATOM     31  O   UNL     1       7.679   7.180  16.606  0.00  0.00    +0.000 OA
ENDBRANCH  29  31
BRANCH  29  32
ATOM     32  O   UNL     1       7.494   4.871  16.350  0.00  0.00    +0.000 OA
ATOM     33  C   UNL     1       6.715   4.212  15.359  0.00  0.00    +0.000 C 
ENDBRANCH  29  32
ENDBRANCH  28  29
ENDBRANCH  24  28
ENDBRANCH  18  25
ENDBRANCH   1  21
TORSDOF 7
ENDMDL
