MODEL 1
REMARK VINA RESULT:      -9.1      0.000      0.000
REMARK  Name = 
REMARK  5 active torsions:
REMARK  status: ('A' for Active; 'I' for Inactive)
REMARK    1  A    between atoms: N_3  and  C_4
REMARK    2  A    between atoms: N_11  and  C_12
REMARK    3  A    between atoms: C_15  and  C_16
REMARK    4  A    between atoms: C_16  and  C_18
REMARK    5  A    between atoms: C_19  and  C_20
REMARK                            x       y       z     vdW  Elec       q    Type
REMARK                         _______ _______ _______ _____ _____    ______ ____
ROOT
ATOM      1  C   UNL     1       8.180   7.558  18.402  0.00  0.00    +0.000 A 
ATOM      2  C   UNL     1       8.135   6.319  19.049  0.00  0.00    +0.000 A 
ATOM      3  C   UNL     1       7.375   5.266  18.534  0.00  0.00    +0.000 A 
ATOM      4  C   UNL     1       6.646   5.435  17.355  0.00  0.00    +0.000 A 
ATOM      5  C   UNL     1       6.688   6.672  16.700  0.00  0.00    +0.000 A 
ATOM      6  C   UNL     1       7.447   7.729  17.225  0.00  0.00    +0.000 A 
ENDROOT
BRANCH   1  10
ATOM      7  O   UNL     1       7.996  10.306  17.577  0.00  0.00    +0.000 OA
ATOM      8  C   UNL     1       8.824   9.951  18.404  0.00  0.00    +0.000 C 
ATOM      9  N   UNL     1       9.811  10.772  18.931  0.00  0.00    +0.000 N 
ATOM     10  N   UNL     1       8.898   8.664  18.913  0.00  0.00    +0.000 N 
ATOM     11  H   UNL     1      10.566  10.310  19.413  0.00  0.00    +0.000 HD
ATOM     12  H   UNL     1       9.325   8.560  19.820  0.00  0.00    +0.000 HD
BRANCH   9  13
ATOM     13  C   UNL     1      10.019  12.125  18.575  0.00  0.00    +0.000 A 
ATOM     14  C   UNL     1       9.325  13.190  19.160  0.00  0.00    +0.000 A 
ATOM     15  C   UNL     1       9.497  14.499  18.704  0.00  0.00    +0.000 A 
ATOM     16  C   UNL     1      10.386  14.757  17.670  0.00  0.00    +0.000 A 
ATOM     17 CL   UNL     1      10.567  16.362  17.079  0.00  0.00    +0.000 Cl
ATOM     18  C   UNL     1      11.125  13.718  17.108  0.00  0.00    +0.000 A 
ATOM     19  C   UNL     1      10.948  12.406  17.564  0.00  0.00    +0.000 A 
ENDBRANCH   9  13
ENDBRANCH   1  10
BRANCH   4  20
ATOM     20  C   UNL     1       5.821   4.287  16.885  0.00  0.00    +0.000 C 
ATOM     21  O   UNL     1       5.892   3.904  15.722  0.00  0.00    +0.000 OA
BRANCH  20  22
ATOM     22  C   UNL     1       4.897   3.658  17.862  0.00  0.00    +0.000 C 
ATOM     23  C   UNL     1       3.957   4.390  18.481  0.00  0.00    +0.000 C 
BRANCH  23  24
ATOM     24  C   UNL     1       3.026   3.830  19.474  0.00  0.00    +0.000 A 
ATOM     25  C   UNL     1       3.552   3.191  20.607  0.00  0.00    +0.000 A 
ATOM     26  C   UNL     1       2.698   2.649  21.573  0.00  0.00    +0.000 A 
ATOM     27  C   UNL     1       1.321   2.730  21.402  0.00  0.00    +0.000 A 
ATOM     28  F   UNL     1       0.508   2.217  22.334  0.00  0.00    +0.000 F 
ATOM     29  C   UNL     1       0.775   3.337  20.283  0.00  0.00    +0.000 A 
ATOM     30  C   UNL     1       1.627   3.871  19.325  0.00  0.00    +0.000 A 
ATOM     31  F   UNL     1       1.070   4.435  18.242  0.00  0.00    +0.000 F 
ENDBRANCH  23  24
ENDBRANCH  20  22
ENDBRANCH   4  20
TORSDOF 5
ENDMDL
MODEL 2
REMARK VINA RESULT:      -8.7      0.785      1.192
REMARK  Name = 
REMARK  5 active torsions:
REMARK  status: ('A' for Active; 'I' for Inactive)
REMARK    1  A    between atoms: N_3  and  C_4
REMARK    2  A    between atoms: N_11  and  C_12
REMARK    3  A    between atoms: C_15  and  C_16
REMARK    4  A    between atoms: C_16  and  C_18
REMARK    5  A    between atoms: C_19  and  C_20
REMARK                            x       y       z     vdW  Elec       q    Type
REMARK                         _______ _______ _______ _____ _____    ______ ____
ROOT
ATOM      1  C   UNL     1       8.408   8.215  18.535  0.00  0.00    +0.000 A 
ATOM      2  C   UNL     1       7.619   8.285  17.382  0.00  0.00    +0.000 A 
ATOM      3  C   UNL     1       6.902   7.172  16.933  0.00  0.00    +0.000 A 
ATOM      4  C   UNL     1       6.961   5.967  17.635  0.00  0.00    +0.000 A 
ATOM      5  C   UNL     1       7.748   5.890  18.792  0.00  0.00    +0.000 A 
ATOM      6  C   UNL     1       8.471   7.008  19.235  0.00  0.00    +0.000 A 
ENDROOT
BRANCH   1  10
ATOM      7  O   UNL     1       8.306  10.950  17.654  0.00  0.00    +0.000 OA
ATOM      8  C   UNL     1       9.146  10.580  18.463  0.00  0.00    +0.000 C 
ATOM      9  N   UNL     1      10.181  11.371  18.940  0.00  0.00    +0.000 N 
ATOM     10  N   UNL     1       9.185   9.302  18.999  0.00  0.00    +0.000 N 
ATOM     11  H   UNL     1      10.932  10.889  19.409  0.00  0.00    +0.000 HD
ATOM     12  H   UNL     1       9.636   9.199  19.894  0.00  0.00    +0.000 HD
BRANCH   9  13
ATOM     13  C   UNL     1      10.432  12.707  18.548  0.00  0.00    +0.000 A 
ATOM     14  C   UNL     1       9.970  13.818  19.263  0.00  0.00    +0.000 A 
ATOM     15  C   UNL     1      10.160  15.115  18.779  0.00  0.00    +0.000 A 
ATOM     16  C   UNL     1      10.837  15.312  17.584  0.00  0.00    +0.000 A 
ATOM     17 CL   UNL     1      11.035  16.905  16.967  0.00  0.00    +0.000 Cl
ATOM     18  C   UNL     1      11.350  14.222  16.882  0.00  0.00    +0.000 A 
ATOM     19  C   UNL     1      11.154  12.923  17.367  0.00  0.00    +0.000 A 
ENDBRANCH   9  13
ENDBRANCH   1  10
BRANCH   4  20
ATOM     20  C   UNL     1       6.210   4.808  17.077  0.00  0.00    +0.000 C 
ATOM     21  O   UNL     1       6.376   4.460  15.913  0.00  0.00    +0.000 OA
BRANCH  20  22
ATOM     22  C   UNL     1       5.239   4.124  17.968  0.00  0.00    +0.000 C 
ATOM     23  C   UNL     1       4.319   4.829  18.645  0.00  0.00    +0.000 C 
BRANCH  23  24
ATOM     24  C   UNL     1       3.344   4.213  19.559  0.00  0.00    +0.000 A 
ATOM     25  C   UNL     1       3.651   2.969  20.133  0.00  0.00    +0.000 A 
ATOM     26  C   UNL     1       2.750   2.353  21.007  0.00  0.00    +0.000 A 
ATOM     27  C   UNL     1       1.538   2.969  21.299  0.00  0.00    +0.000 A 
ATOM     28  F   UNL     1       0.683   2.380  22.143  0.00  0.00    +0.000 F 
ATOM     29  C   UNL     1       1.202   4.187  20.731  0.00  0.00    +0.000 A 
ATOM     30  C   UNL     1       2.099   4.793  19.860  0.00  0.00    +0.000 A 
ATOM     31  F   UNL     1       1.737   5.962  19.309  0.00  0.00    +0.000 F 
ENDBRANCH  23  24
ENDBRANCH  20  22
ENDBRANCH   4  20
TORSDOF 5
ENDMDL
MODEL 3
REMARK VINA RESULT:      -8.3      8.551      9.964
REMARK  Name = 
REMARK  5 active torsions:
REMARK  status: ('A' for Active; 'I' for Inactive)
REMARK    1  A    between atoms: N_3  and  C_4
REMARK    2  A    between atoms: N_11  and  C_12
REMARK    3  A    between atoms: C_15  and  C_16
REMARK    4  A    between atoms: C_16  and  C_18
REMARK    5  A    between atoms: C_19  and  C_20
REMARK                            x       y       z     vdW  Elec       q    Type
REMARK                         _______ _______ _______ _____ _____    ______ ____
ROOT
ATOM      1  C   UNL     1      -0.097  10.326  21.505  0.00  0.00    +0.000 A 
ATOM      2  C   UNL     1       0.109  10.948  20.269  0.00  0.00    +0.000 A 
ATOM      3  C   UNL     1       0.828  10.311  19.254  0.00  0.00    +0.000 A 
ATOM      4  C   UNL     1       1.353   9.034  19.458  0.00  0.00    +0.000 A 
ATOM      5  C   UNL     1       1.149   8.403  20.693  0.00  0.00    +0.000 A 
ATOM      6  C   UNL     1       0.433   9.050  21.711  0.00  0.00    +0.000 A 
ENDROOT
BRANCH   1  10
ATOM      7  O   UNL     1      -2.354  12.100  21.352  0.00  0.00    +0.000 OA
ATOM      8  C   UNL     1      -1.805  11.871  22.421  0.00  0.00    +0.000 C 
ATOM      9  N   UNL     1      -2.114  12.503  23.616  0.00  0.00    +0.000 N 
ATOM     10  N   UNL     1      -0.778  10.952  22.574  0.00  0.00    +0.000 N 
ATOM     11  H   UNL     1      -1.443  12.402  24.361  0.00  0.00    +0.000 HD
ATOM     12  H   UNL     1      -0.656  10.559  23.494  0.00  0.00    +0.000 HD
BRANCH   9  13
ATOM     13  C   UNL     1      -3.087  13.518  23.771  0.00  0.00    +0.000 A 
ATOM     14  C   UNL     1      -4.464  13.268  23.784  0.00  0.00    +0.000 A 
ATOM     15  C   UNL     1      -5.386  14.317  23.840  0.00  0.00    +0.000 A 
ATOM     16  C   UNL     1      -4.935  15.628  23.910  0.00  0.00    +0.000 A 
ATOM     17 CL   UNL     1      -6.068  16.921  23.937  0.00  0.00    +0.000 Cl
ATOM     18  C   UNL     1      -3.568  15.895  23.950  0.00  0.00    +0.000 A 
ATOM     19  C   UNL     1      -2.646  14.843  23.889  0.00  0.00    +0.000 A 
ENDBRANCH   9  13
ENDBRANCH   1  10
BRANCH   4  20
ATOM     20  C   UNL     1       2.148   8.431  18.352  0.00  0.00    +0.000 C 
ATOM     21  O   UNL     1       2.345   9.054  17.315  0.00  0.00    +0.000 OA
BRANCH  20  22
ATOM     22  C   UNL     1       2.652   7.048  18.543  0.00  0.00    +0.000 C 
ATOM     23  C   UNL     1       2.006   6.003  18.001  0.00  0.00    +0.000 C 
BRANCH  23  24
ATOM     24  C   UNL     1       2.444   4.609  18.172  0.00  0.00    +0.000 A 
ATOM     25  C   UNL     1       3.528   4.145  17.411  0.00  0.00    +0.000 A 
ATOM     26  C   UNL     1       3.974   2.827  17.547  0.00  0.00    +0.000 A 
ATOM     27  C   UNL     1       3.331   1.967  18.431  0.00  0.00    +0.000 A 
ATOM     28  F   UNL     1       3.766   0.708  18.563  0.00  0.00    +0.000 F 
ATOM     29  C   UNL     1       2.246   2.393  19.179  0.00  0.00    +0.000 A 
ATOM     30  C   UNL     1       1.805   3.703  19.037  0.00  0.00    +0.000 A 
ATOM     31  F   UNL     1       0.739   4.081  19.760  0.00  0.00    +0.000 F 
ENDBRANCH  23  24
ENDBRANCH  20  22
ENDBRANCH   4  20
TORSDOF 5
ENDMDL
MODEL 4
REMARK VINA RESULT:      -8.2      7.624     10.133
REMARK  Name = 
REMARK  5 active torsions:
REMARK  status: ('A' for Active; 'I' for Inactive)
REMARK    1  A    between atoms: N_3  and  C_4
REMARK    2  A    between atoms: N_11  and  C_12
REMARK    3  A    between atoms: C_15  and  C_16
REMARK    4  A    between atoms: C_16  and  C_18
REMARK    5  A    between atoms: C_19  and  C_20
REMARK                            x       y       z     vdW  Elec       q    Type
REMARK                         _______ _______ _______ _____ _____    ______ ____
ROOT
ATOM      1  C   UNL     1       0.990   9.347  18.964  0.00  0.00    +0.000 A 
ATOM      2  C   UNL     1       1.704   9.115  17.783  0.00  0.00    +0.000 A 
ATOM      3  C   UNL     1       2.625   8.068  17.694  0.00  0.00    +0.000 A 
ATOM      4  C   UNL     1       2.846   7.230  18.788  0.00  0.00    +0.000 A 
ATOM      5  C   UNL     1       2.134   7.455  19.973  0.00  0.00    +0.000 A 
ATOM      6  C   UNL     1       1.215   8.512  20.060  0.00  0.00    +0.000 A 
ENDROOT
BRANCH   1  10
ATOM      7  O   UNL     1      -1.869   9.290  18.669  0.00  0.00    +0.000 OA
ATOM      8  C   UNL     1      -1.277  10.342  18.866  0.00  0.00    +0.000 C 
ATOM      9  N   UNL     1      -1.874  11.595  18.851  0.00  0.00    +0.000 N 
ATOM     10  N   UNL     1       0.084  10.423  19.112  0.00  0.00    +0.000 N 
ATOM     11  H   UNL     1      -1.251  12.385  18.790  0.00  0.00    +0.000 HD
ATOM     12  H   UNL     1       0.406  11.232  19.622  0.00  0.00    +0.000 HD
BRANCH   9  13
ATOM     13  C   UNL     1      -3.241  11.842  18.584  0.00  0.00    +0.000 A 
ATOM     14  C   UNL     1      -3.839  11.598  17.342  0.00  0.00    +0.000 A 
ATOM     15  C   UNL     1      -5.169  11.952  17.102  0.00  0.00    +0.000 A 
ATOM     16  C   UNL     1      -5.921  12.534  18.113  0.00  0.00    +0.000 A 
ATOM     17 CL   UNL     1      -7.545  13.009  17.805  0.00  0.00    +0.000 Cl
ATOM     18  C   UNL     1      -5.359  12.739  19.372  0.00  0.00    +0.000 A 
ATOM     19  C   UNL     1      -4.025  12.387  19.610  0.00  0.00    +0.000 A 
ENDBRANCH   9  13
ENDBRANCH   1  10
BRANCH   4  20
ATOM     20  C   UNL     1       3.874   6.161  18.641  0.00  0.00    +0.000 C 
ATOM     21  O   UNL     1       4.134   5.415  19.578  0.00  0.00    +0.000 OA
BRANCH  20  22
ATOM     22  C   UNL     1       4.584   6.065  17.341  0.00  0.00    +0.000 C 
ATOM     23  C   UNL     1       4.813   4.870  16.774  0.00  0.00    +0.000 C 
BRANCH  23  24
ATOM     24  C   UNL     1       5.530   4.708  15.499  0.00  0.00    +0.000 A 
ATOM     25  C   UNL     1       4.936   3.942  14.484  0.00  0.00    +0.000 A 
ATOM     26  C   UNL     1       5.585   3.766  13.258  0.00  0.00    +0.000 A 
ATOM     27  C   UNL     1       6.833   4.343  13.048  0.00  0.00    +0.000 A 
ATOM     28  F   UNL     1       7.447   4.180  11.871  0.00  0.00    +0.000 F 
ATOM     29  C   UNL     1       7.451   5.088  14.040  0.00  0.00    +0.000 A 
ATOM     30  C   UNL     1       6.803   5.256  15.257  0.00  0.00    +0.000 A 
ATOM     31  F   UNL     1       7.434   5.965  16.205  0.00  0.00    +0.000 F 
ENDBRANCH  23  24
ENDBRANCH  20  22
ENDBRANCH   4  20
TORSDOF 5
ENDMDL
MODEL 5
REMARK VINA RESULT:      -8.2      6.138      8.137
REMARK  Name = 
REMARK  5 active torsions:
REMARK  status: ('A' for Active; 'I' for Inactive)
REMARK    1  A    between atoms: N_3  and  C_4
REMARK    2  A    between atoms: N_11  and  C_12
REMARK    3  A    between atoms: C_15  and  C_16
REMARK    4  A    between atoms: C_16  and  C_18
REMARK    5  A    between atoms: C_19  and  C_20
REMARK                            x       y       z     vdW  Elec       q    Type
REMARK                         _______ _______ _______ _____ _____    ______ ____
ROOT
ATOM      1  C   UNL     1       1.936   6.955  20.248  0.00  0.00    +0.000 A 
ATOM      2  C   UNL     1       2.665   7.005  19.055  0.00  0.00    +0.000 A 
ATOM      3  C   UNL     1       3.005   5.835  18.370  0.00  0.00    +0.000 A 
ATOM      4  C   UNL     1       2.619   4.590  18.870  0.00  0.00    +0.000 A 
ATOM      5  C   UNL     1       1.888   4.531  20.063  0.00  0.00    +0.000 A 
ATOM      6  C   UNL     1       1.554   5.708  20.750  0.00  0.00    +0.000 A 
ENDROOT
BRANCH   1  10
ATOM      7  O   UNL     1       0.478   9.268  19.362  0.00  0.00    +0.000 OA
ATOM      8  C   UNL     1       0.981   9.230  20.476  0.00  0.00    +0.000 C 
ATOM      9  N   UNL     1       1.012  10.297  21.363  0.00  0.00    +0.000 N 
ATOM     10  N   UNL     1       1.611   8.110  20.996  0.00  0.00    +0.000 N 
ATOM     11  H   UNL     1       1.652  10.216  22.137  0.00  0.00    +0.000 HD
ATOM     12  H   UNL     1       1.648   8.036  22.001  0.00  0.00    +0.000 HD
BRANCH   9  13
ATOM     13  C   UNL     1       0.491  11.586  21.103  0.00  0.00    +0.000 A 
ATOM     14  C   UNL     1      -0.848  11.932  21.320  0.00  0.00    +0.000 A 
ATOM     15  C   UNL     1      -1.335  13.189  20.954  0.00  0.00    +0.000 A 
ATOM     16  C   UNL     1      -0.477  14.122  20.388  0.00  0.00    +0.000 A 
ATOM     17 CL   UNL     1      -1.085  15.655  19.898  0.00  0.00    +0.000 Cl
ATOM     18  C   UNL     1       0.871  13.816  20.210  0.00  0.00    +0.000 A 
ATOM     19  C   UNL     1       1.355  12.553  20.573  0.00  0.00    +0.000 A 
ENDBRANCH   9  13
ENDBRANCH   1  10
BRANCH   4  20
ATOM     20  C   UNL     1       3.054   3.380  18.116  0.00  0.00    +0.000 C 
ATOM     21  O   UNL     1       2.872   2.260  18.579  0.00  0.00    +0.000 OA
BRANCH  20  22
ATOM     22  C   UNL     1       3.740   3.589  16.816  0.00  0.00    +0.000 C 
ATOM     23  C   UNL     1       5.027   3.966  16.776  0.00  0.00    +0.000 C 
BRANCH  23  24
ATOM     24  C   UNL     1       5.756   4.209  15.520  0.00  0.00    +0.000 A 
ATOM     25  C   UNL     1       5.331   3.551  14.356  0.00  0.00    +0.000 A 
ATOM     26  C   UNL     1       5.997   3.758  13.144  0.00  0.00    +0.000 A 
ATOM     27  C   UNL     1       7.095   4.611  13.095  0.00  0.00    +0.000 A 
ATOM     28  F   UNL     1       7.724   4.813  11.931  0.00  0.00    +0.000 F 
ATOM     29  C   UNL     1       7.547   5.258  14.234  0.00  0.00    +0.000 A 
ATOM     30  C   UNL     1       6.884   5.046  15.436  0.00  0.00    +0.000 A 
ATOM     31  F   UNL     1       7.357   5.670  16.525  0.00  0.00    +0.000 F 
ENDBRANCH  23  24
ENDBRANCH  20  22
ENDBRANCH   4  20
TORSDOF 5
ENDMDL
MODEL 6
REMARK VINA RESULT:      -8.1      7.456      9.766
REMARK  Name = 
REMARK  5 active torsions:
REMARK  status: ('A' for Active; 'I' for Inactive)
REMARK    1  A    between atoms: N_3  and  C_4
REMARK    2  A    between atoms: N_11  and  C_12
REMARK    3  A    between atoms: C_15  and  C_16
REMARK    4  A    between atoms: C_16  and  C_18
REMARK    5  A    between atoms: C_19  and  C_20
REMARK                            x       y       z     vdW  Elec       q    Type
REMARK                         _______ _______ _______ _____ _____    ______ ____
ROOT
ATOM      1  C   UNL     1       1.297   9.343  19.321  0.00  0.00    +0.000 A 
ATOM      2  C   UNL     1       1.834   9.103  18.052  0.00  0.00    +0.000 A 
ATOM      3  C   UNL     1       2.532   7.924  17.777  0.00  0.00    +0.000 A 
ATOM      4  C   UNL     1       2.704   6.960  18.772  0.00  0.00    +0.000 A 
ATOM      5  C   UNL     1       2.167   7.192  20.045  0.00  0.00    +0.000 A 
ATOM      6  C   UNL     1       1.473   8.380  20.318  0.00  0.00    +0.000 A 
ENDROOT
BRANCH   1  10
ATOM      7  O   UNL     1      -0.617   9.756  21.425  0.00  0.00    +0.000 OA
ATOM      8  C   UNL     1      -0.357  10.646  20.628  0.00  0.00    +0.000 C 
ATOM      9  N   UNL     1      -1.012  11.867  20.570  0.00  0.00    +0.000 N 
ATOM     10  N   UNL     1       0.624  10.541  19.655  0.00  0.00    +0.000 N 
ATOM     11  H   UNL     1      -0.872  12.411  19.733  0.00  0.00    +0.000 HD
ATOM     12  H   UNL     1       1.021  11.404  19.316  0.00  0.00    +0.000 HD
BRANCH   9  13
ATOM     13  C   UNL     1      -2.088  12.253  21.404  0.00  0.00    +0.000 A 
ATOM     14  C   UNL     1      -2.039  12.191  22.801  0.00  0.00    +0.000 A 
ATOM     15  C   UNL     1      -3.163  12.490  23.575  0.00  0.00    +0.000 A 
ATOM     16  C   UNL     1      -4.343  12.879  22.956  0.00  0.00    +0.000 A 
ATOM     17 CL   UNL     1      -5.739  13.206  23.905  0.00  0.00    +0.000 Cl
ATOM     18  C   UNL     1      -4.398  12.996  21.568  0.00  0.00    +0.000 A 
ATOM     19  C   UNL     1      -3.271  12.691  20.794  0.00  0.00    +0.000 A 
ENDBRANCH   9  13
ENDBRANCH   1  10
BRANCH   4  20
ATOM     20  C   UNL     1       3.497   5.747  18.426  0.00  0.00    +0.000 C 
ATOM     21  O   UNL     1       3.551   4.797  19.199  0.00  0.00    +0.000 OA
BRANCH  20  22
ATOM     22  C   UNL     1       4.238   5.754  17.140  0.00  0.00    +0.000 C 
ATOM     23  C   UNL     1       4.769   4.622  16.651  0.00  0.00    +0.000 C 
BRANCH  23  24
ATOM     24  C   UNL     1       5.531   4.567  15.394  0.00  0.00    +0.000 A 
ATOM     25  C   UNL     1       4.998   3.850  14.312  0.00  0.00    +0.000 A 
ATOM     26  C   UNL     1       5.692   3.777  13.100  0.00  0.00    +0.000 A 
ATOM     27  C   UNL     1       6.925   4.408  12.971  0.00  0.00    +0.000 A 
ATOM     28  F   UNL     1       7.582   4.342  11.807  0.00  0.00    +0.000 F 
ATOM     29  C   UNL     1       7.484   5.106  14.030  0.00  0.00    +0.000 A 
ATOM     30  C   UNL     1       6.791   5.172  15.232  0.00  0.00    +0.000 A 
ATOM     31  F   UNL     1       7.367   5.837  16.245  0.00  0.00    +0.000 F 
ENDBRANCH  23  24
ENDBRANCH  20  22
ENDBRANCH   4  20
TORSDOF 5
ENDMDL
MODEL 7
REMARK VINA RESULT:      -8.1      1.393      1.888
REMARK  Name = 
REMARK  5 active torsions:
REMARK  status: ('A' for Active; 'I' for Inactive)
REMARK    1  A    between atoms: N_3  and  C_4
REMARK    2  A    between atoms: N_11  and  C_12
REMARK    3  A    between atoms: C_15  and  C_16
REMARK    4  A    between atoms: C_16  and  C_18
REMARK    5  A    between atoms: C_19  and  C_20
REMARK                            x       y       z     vdW  Elec       q    Type
REMARK                         _______ _______ _______ _____ _____    ______ ____
ROOT
ATOM      1  C   UNL     1       8.260   7.750  18.500  0.00  0.00    +0.000 A 
ATOM      2  C   UNL     1       7.618   7.954  17.274  0.00  0.00    +0.000 A 
ATOM      3  C   UNL     1       7.009   6.896  16.596  0.00  0.00    +0.000 A 
ATOM      4  C   UNL     1       7.030   5.609  17.136  0.00  0.00    +0.000 A 
ATOM      5  C   UNL     1       7.670   5.396  18.365  0.00  0.00    +0.000 A 
ATOM      6  C   UNL     1       8.286   6.461  19.039  0.00  0.00    +0.000 A 
ENDROOT
BRANCH   1  10
ATOM      7  O   UNL     1       8.347  10.546  17.837  0.00  0.00    +0.000 OA
ATOM      8  C   UNL     1       9.003  10.099  18.768  0.00  0.00    +0.000 C 
ATOM      9  N   UNL     1       9.920  10.832  19.507  0.00  0.00    +0.000 N 
ATOM     10  N   UNL     1       8.929   8.783  19.197  0.00  0.00    +0.000 N 
ATOM     11  H   UNL     1      10.558  10.301  20.080  0.00  0.00    +0.000 HD
ATOM     12  H   UNL     1       9.187   8.603  20.155  0.00  0.00    +0.000 HD
BRANCH   9  13
ATOM     13  C   UNL     1      10.249  12.189  19.282  0.00  0.00    +0.000 A 
ATOM     14  C   UNL     1       9.668  12.963  18.270  0.00  0.00    +0.000 A 
ATOM     15  C   UNL     1      10.100  14.269  18.026  0.00  0.00    +0.000 A 
ATOM     16  C   UNL     1      11.103  14.822  18.811  0.00  0.00    +0.000 A 
ATOM     17 CL   UNL     1      11.663  16.414  18.484  0.00  0.00    +0.000 Cl
ATOM     18  C   UNL     1      11.658  14.086  19.856  0.00  0.00    +0.000 A 
ATOM     19  C   UNL     1      11.227  12.775  20.096  0.00  0.00    +0.000 A 
ENDBRANCH   9  13
ENDBRANCH   1  10
BRANCH   4  20
ATOM     20  C   UNL     1       6.402   4.517  16.341  0.00  0.00    +0.000 C 
ATOM     21  O   UNL     1       6.978   4.047  15.365  0.00  0.00    +0.000 OA
BRANCH  20  22
ATOM     22  C   UNL     1       5.053   4.054  16.752  0.00  0.00    +0.000 C 
ATOM     23  C   UNL     1       4.685   4.082  18.043  0.00  0.00    +0.000 C 
BRANCH  23  24
ATOM     24  C   UNL     1       3.371   3.619  18.515  0.00  0.00    +0.000 A 
ATOM     25  C   UNL     1       2.502   4.547  19.110  0.00  0.00    +0.000 A 
ATOM     26  C   UNL     1       1.244   4.144  19.569  0.00  0.00    +0.000 A 
ATOM     27  C   UNL     1       0.858   2.813  19.449  0.00  0.00    +0.000 A 
ATOM     28  F   UNL     1      -0.350   2.434  19.883  0.00  0.00    +0.000 F 
ATOM     29  C   UNL     1       1.704   1.873  18.884  0.00  0.00    +0.000 A 
ATOM     30  C   UNL     1       2.953   2.278  18.433  0.00  0.00    +0.000 A 
ATOM     31  F   UNL     1       3.759   1.341  17.909  0.00  0.00    +0.000 F 
ENDBRANCH  23  24
ENDBRANCH  20  22
ENDBRANCH   4  20
TORSDOF 5
ENDMDL
MODEL 8
REMARK VINA RESULT:      -8.1      6.853      9.232
REMARK  Name = 
REMARK  5 active torsions:
REMARK  status: ('A' for Active; 'I' for Inactive)
REMARK    1  A    between atoms: N_3  and  C_4
REMARK    2  A    between atoms: N_11  and  C_12
REMARK    3  A    between atoms: C_15  and  C_16
REMARK    4  A    between atoms: C_16  and  C_18
REMARK    5  A    between atoms: C_19  and  C_20
REMARK                            x       y       z     vdW  Elec       q    Type
REMARK                         _______ _______ _______ _____ _____    ______ ____
ROOT
ATOM      1  C   UNL     1       1.861   8.009  19.791  0.00  0.00    +0.000 A 
ATOM      2  C   UNL     1       1.915   6.890  20.629  0.00  0.00    +0.000 A 
ATOM      3  C   UNL     1       2.273   5.634  20.131  0.00  0.00    +0.000 A 
ATOM      4  C   UNL     1       2.588   5.477  18.780  0.00  0.00    +0.000 A 
ATOM      5  C   UNL     1       2.539   6.594  17.934  0.00  0.00    +0.000 A 
ATOM      6  C   UNL     1       2.172   7.850  18.438  0.00  0.00    +0.000 A 
ENDROOT
BRANCH   1  10
ATOM      7  O   UNL     1      -0.526   8.687  21.242  0.00  0.00    +0.000 OA
ATOM      8  C   UNL     1       0.247   9.555  20.861  0.00  0.00    +0.000 C 
ATOM      9  N   UNL     1       0.015  10.918  20.970  0.00  0.00    +0.000 N 
ATOM     10  N   UNL     1       1.459   9.286  20.244  0.00  0.00    +0.000 N 
ATOM     11  H   UNL     1       0.605  11.518  20.415  0.00  0.00    +0.000 HD
ATOM     12  H   UNL     1       2.170   9.998  20.312  0.00  0.00    +0.000 HD
BRANCH   9  13
ATOM     13  C   UNL     1      -1.152  11.504  21.515  0.00  0.00    +0.000 A 
ATOM     14  C   UNL     1      -2.051  12.269  20.763  0.00  0.00    +0.000 A 
ATOM     15  C   UNL     1      -3.135  12.908  21.370  0.00  0.00    +0.000 A 
ATOM     16  C   UNL     1      -3.342  12.766  22.735  0.00  0.00    +0.000 A 
ATOM     17 CL   UNL     1      -4.652  13.586  23.490  0.00  0.00    +0.000 Cl
ATOM     18  C   UNL     1      -2.488  11.967  23.493  0.00  0.00    +0.000 A 
ATOM     19  C   UNL     1      -1.399  11.331  22.883  0.00  0.00    +0.000 A 
ENDBRANCH   9  13
ENDBRANCH   1  10
BRANCH   4  20
ATOM     20  C   UNL     1       2.918   4.105  18.304  0.00  0.00    +0.000 C 
ATOM     21  O   UNL     1       2.618   3.124  18.976  0.00  0.00    +0.000 OA
BRANCH  20  22
ATOM     22  C   UNL     1       3.647   3.979  17.017  0.00  0.00    +0.000 C 
ATOM     23  C   UNL     1       4.753   4.704  16.784  0.00  0.00    +0.000 C 
BRANCH  23  24
ATOM     24  C   UNL     1       5.507   4.640  15.522  0.00  0.00    +0.000 A 
ATOM     25  C   UNL     1       4.972   3.905  14.454  0.00  0.00    +0.000 A 
ATOM     26  C   UNL     1       5.658   3.822  13.238  0.00  0.00    +0.000 A 
ATOM     27  C   UNL     1       6.885   4.461  13.092  0.00  0.00    +0.000 A 
ATOM     28  F   UNL     1       7.534   4.386  11.924  0.00  0.00    +0.000 F 
ATOM     29  C   UNL     1       7.445   5.177  14.137  0.00  0.00    +0.000 A 
ATOM     30  C   UNL     1       6.761   5.252  15.344  0.00  0.00    +0.000 A 
ATOM     31  F   UNL     1       7.338   5.936  16.344  0.00  0.00    +0.000 F 
ENDBRANCH  23  24
ENDBRANCH  20  22
ENDBRANCH   4  20
TORSDOF 5
ENDMDL
MODEL 9
REMARK VINA RESULT:      -8.1      8.875     10.470
REMARK  Name = 
REMARK  5 active torsions:
REMARK  status: ('A' for Active; 'I' for Inactive)
REMARK    1  A    between atoms: N_3  and  C_4
REMARK    2  A    between atoms: N_11  and  C_12
REMARK    3  A    between atoms: C_15  and  C_16
REMARK    4  A    between atoms: C_16  and  C_18
REMARK    5  A    between atoms: C_19  and  C_20
REMARK                            x       y       z     vdW  Elec       q    Type
REMARK                         _______ _______ _______ _____ _____    ______ ____
ROOT
ATOM      1  C   UNL     1      -0.760  11.767  18.732  0.00  0.00    +0.000 A 
ATOM      2  C   UNL     1       0.599  11.993  18.973  0.00  0.00    +0.000 A 
ATOM      3  C   UNL     1       1.553  11.011  18.693  0.00  0.00    +0.000 A 
ATOM      4  C   UNL     1       1.160   9.780  18.163  0.00  0.00    +0.000 A 
ATOM      5  C   UNL     1      -0.199   9.546  17.917  0.00  0.00    +0.000 A 
ATOM      6  C   UNL     1      -1.153  10.534  18.206  0.00  0.00    +0.000 A 
ENDROOT
BRANCH   1  10
ATOM      7  O   UNL     1      -2.320  11.949  21.140  0.00  0.00    +0.000 OA
ATOM      8  C   UNL     1      -2.539  12.688  20.191  0.00  0.00    +0.000 C 
ATOM      9  N   UNL     1      -3.598  13.581  20.118  0.00  0.00    +0.000 N 
ATOM     10  N   UNL     1      -1.762  12.715  19.043  0.00  0.00    +0.000 N 
ATOM     11  H   UNL     1      -3.806  13.954  19.204  0.00  0.00    +0.000 HD
ATOM     12  H   UNL     1      -1.772  13.570  18.509  0.00  0.00    +0.000 HD
BRANCH   9  13
ATOM     13  C   UNL     1      -4.588  13.753  21.113  0.00  0.00    +0.000 A 
ATOM     14  C   UNL     1      -5.471  12.739  21.502  0.00  0.00    +0.000 A 
ATOM     15  C   UNL     1      -6.495  12.990  22.419  0.00  0.00    +0.000 A 
ATOM     16  C   UNL     1      -6.629  14.255  22.974  0.00  0.00    +0.000 A 
ATOM     17 CL   UNL     1      -7.915  14.575  24.071  0.00  0.00    +0.000 Cl
ATOM     18  C   UNL     1      -5.729  15.264  22.639  0.00  0.00    +0.000 A 
ATOM     19  C   UNL     1      -4.706  15.012  21.716  0.00  0.00    +0.000 A 
ENDBRANCH   9  13
ENDBRANCH   1  10
BRANCH   4  20
ATOM     20  C   UNL     1       2.221   8.760  17.931  0.00  0.00    +0.000 C 
ATOM     21  O   UNL     1       2.973   8.852  16.967  0.00  0.00    +0.000 OA
BRANCH  20  22
ATOM     22  C   UNL     1       2.304   7.624  18.883  0.00  0.00    +0.000 C 
ATOM     23  C   UNL     1       2.491   6.372  18.439  0.00  0.00    +0.000 C 
BRANCH  23  24
ATOM     24  C   UNL     1       2.560   5.203  19.330  0.00  0.00    +0.000 A 
ATOM     25  C   UNL     1       1.741   5.174  20.469  0.00  0.00    +0.000 A 
ATOM     26  C   UNL     1       1.777   4.080  21.339  0.00  0.00    +0.000 A 
ATOM     27  C   UNL     1       2.640   3.020  21.081  0.00  0.00    +0.000 A 
ATOM     28  F   UNL     1       2.666   1.971  21.912  0.00  0.00    +0.000 F 
ATOM     29  C   UNL     1       3.474   3.032  19.974  0.00  0.00    +0.000 A 
ATOM     30  C   UNL     1       3.436   4.123  19.116  0.00  0.00    +0.000 A 
ATOM     31  F   UNL     1       4.269   4.116  18.064  0.00  0.00    +0.000 F 
ENDBRANCH  23  24
ENDBRANCH  20  22
ENDBRANCH   4  20
TORSDOF 5
ENDMDL
