MODEL 1
REMARK VINA RESULT:      -8.3      0.000      0.000
REMARK  Name = 
REMARK  5 active torsions:
REMARK  status: ('A' for Active; 'I' for Inactive)
REMARK    1  A    between atoms: C_1  and  C_2
REMARK    2  A    between atoms: C_2  and  N_3
REMARK    3  A    between atoms: C_2  and  C_23
REMARK    4  A    between atoms: C_4  and  C_6
REMARK    5  A    between atoms: C_9  and  N_10
REMARK                            x       y       z     vdW  Elec       q    Type
REMARK                         _______ _______ _______ _____ _____    ______ ____
ROOT
ATOM      1  C   UNL     1       2.347   7.492  19.080  0.00  0.00    +0.000 A 
ATOM      2  C   UNL     1       1.751   7.974  20.251  0.00  0.00    +0.000 A 
ATOM      3  C   UNL     1       1.056   9.191  20.234  0.00  0.00    +0.000 A 
ATOM      4  C   UNL     1       0.956   9.947  19.059  0.00  0.00    +0.000 A 
ATOM      5  C   UNL     1       1.540   9.429  17.893  0.00  0.00    +0.000 A 
ATOM      6  C   UNL     1       2.244   8.225  17.902  0.00  0.00    +0.000 A 
ENDROOT
BRANCH   4   7
ATOM      7  N   UNL     1       0.340  11.211  19.101  0.00  0.00    +0.000 N 
ATOM      8  C   UNL     1       0.991  12.406  19.094  0.00  0.00    +0.000 C 
ATOM      9  N   UNL     1       2.235  12.653  18.817  0.00  0.00    +0.000 NA
ATOM     10  C   UNL     1       2.489  14.062  19.105  0.00  0.00    +0.000 C 
ATOM     11  C   UNL     1       3.658  14.678  18.365  0.00  0.00    +0.000 C 
ATOM     12  S   UNL     1       3.208  16.422  18.302  0.00  0.00    +0.000 S 
ATOM     13  O   UNL     1       4.078  17.180  19.173  0.00  0.00    +0.000 OA
ATOM     14  O   UNL     1       3.000  16.789  16.912  0.00  0.00    +0.000 OA
ATOM     15  C   UNL     1       1.589  16.264  19.081  0.00  0.00    +0.000 C 
ATOM     16  C   UNL     1       1.249  14.847  18.699  0.00  0.00    +0.000 C 
ATOM     17  S   UNL     1      -0.002  13.830  19.497  0.00  0.00    +0.000 S 
ATOM     18  H   UNL     1      -0.598  11.231  19.476  0.00  0.00    +0.000 HD
ENDBRANCH   4   7
BRANCH   1  20
ATOM     19  N   UNL     1       4.317   6.263  18.416  0.00  0.00    +0.000 N 
ATOM     20  C   UNL     1       3.094   6.208  19.037  0.00  0.00    +0.000 C 
ATOM     21  O   UNL     1       2.635   5.204  19.570  0.00  0.00    +0.000 OA
ATOM     22  H   UNL     1       4.697   7.156  18.155  0.00  0.00    +0.000 HD
BRANCH  19  24
ATOM     23  C   UNL     1       6.393   5.318  19.329  0.00  0.00    +0.000 C 
ATOM     24  C   UNL     1       5.210   5.120  18.378  0.00  0.00    +0.000 C 
BRANCH  24  25
ATOM     25  C   UNL     1       5.653   4.890  16.947  0.00  0.00    +0.000 A 
ATOM     26  C   UNL     1       6.960   5.233  16.564  0.00  0.00    +0.000 A 
ATOM     27  C   UNL     1       7.401   5.007  15.260  0.00  0.00    +0.000 A 
ATOM     28  C   UNL     1       6.546   4.428  14.326  0.00  0.00    +0.000 A 
ATOM     29  C   UNL     1       5.251   4.072  14.691  0.00  0.00    +0.000 A 
ATOM     30  C   UNL     1       4.807   4.300  15.995  0.00  0.00    +0.000 A 
ENDBRANCH  24  25
ENDBRANCH  19  24
ENDBRANCH   1  20
TORSDOF 4
ENDMDL
MODEL 2
REMARK VINA RESULT:      -8.2      0.352      1.333
REMARK  Name = 
REMARK  5 active torsions:
REMARK  status: ('A' for Active; 'I' for Inactive)
REMARK    1  A    between atoms: C_1  and  C_2
REMARK    2  A    between atoms: C_2  and  N_3
REMARK    3  A    between atoms: C_2  and  C_23
REMARK    4  A    between atoms: C_4  and  C_6
REMARK    5  A    between atoms: C_9  and  N_10
REMARK                            x       y       z     vdW  Elec       q    Type
REMARK                         _______ _______ _______ _____ _____    ______ ____
ROOT
ATOM      1  C   UNL     1       2.361   7.611  18.911  0.00  0.00    +0.000 A 
ATOM      2  C   UNL     1       2.365   8.445  17.786  0.00  0.00    +0.000 A 
ATOM      3  C   UNL     1       1.721   9.689  17.832  0.00  0.00    +0.000 A 
ATOM      4  C   UNL     1       1.056  10.112  18.990  0.00  0.00    +0.000 A 
ATOM      5  C   UNL     1       1.087   9.270  20.111  0.00  0.00    +0.000 A 
ATOM      6  C   UNL     1       1.715   8.025  20.072  0.00  0.00    +0.000 A 
ENDROOT
BRANCH   4   7
ATOM      7  N   UNL     1       0.334  11.319  18.969  0.00  0.00    +0.000 N 
ATOM      8  C   UNL     1       0.876  12.563  19.085  0.00  0.00    +0.000 C 
ATOM      9  N   UNL     1       2.121  12.919  18.999  0.00  0.00    +0.000 NA
ATOM     10  C   UNL     1       2.210  14.333  19.353  0.00  0.00    +0.000 C 
ATOM     11  C   UNL     1       3.417  15.068  18.807  0.00  0.00    +0.000 C 
ATOM     12  S   UNL     1       2.834  16.771  18.718  0.00  0.00    +0.000 S 
ATOM     13  O   UNL     1       3.501  17.565  19.723  0.00  0.00    +0.000 OA
ATOM     14  O   UNL     1       2.798  17.167  17.321  0.00  0.00    +0.000 OA
ATOM     15  C   UNL     1       1.138  16.455  19.247  0.00  0.00    +0.000 C 
ATOM     16  C   UNL     1       0.980  15.029  18.787  0.00  0.00    +0.000 C 
ATOM     17  S   UNL     1      -0.282  13.887  19.370  0.00  0.00    +0.000 S 
ATOM     18  H   UNL     1      -0.647  11.251  19.203  0.00  0.00    +0.000 HD
ENDBRANCH   4   7
BRANCH   1  20
ATOM     19  N   UNL     1       4.235   6.231  18.269  0.00  0.00    +0.000 N 
ATOM     20  C   UNL     1       3.028   6.284  18.921  0.00  0.00    +0.000 C 
ATOM     21  O   UNL     1       2.524   5.338  19.516  0.00  0.00    +0.000 OA
ATOM     22  H   UNL     1       4.662   7.085  17.952  0.00  0.00    +0.000 HD
BRANCH  19  24
ATOM     23  C   UNL     1       6.149   5.124  19.341  0.00  0.00    +0.000 C 
ATOM     24  C   UNL     1       5.057   5.035  18.272  0.00  0.00    +0.000 C 
BRANCH  24  25
ATOM     25  C   UNL     1       5.626   4.826  16.883  0.00  0.00    +0.000 A 
ATOM     26  C   UNL     1       4.795   4.338  15.861  0.00  0.00    +0.000 A 
ATOM     27  C   UNL     1       5.288   4.161  14.568  0.00  0.00    +0.000 A 
ATOM     28  C   UNL     1       6.612   4.479  14.277  0.00  0.00    +0.000 A 
ATOM     29  C   UNL     1       7.446   4.975  15.276  0.00  0.00    +0.000 A 
ATOM     30  C   UNL     1       6.957   5.149  16.571  0.00  0.00    +0.000 A 
ENDBRANCH  24  25
ENDBRANCH  19  24
ENDBRANCH   1  20
TORSDOF 4
ENDMDL
MODEL 3
REMARK VINA RESULT:      -7.8      0.858      1.311
REMARK  Name = 
REMARK  5 active torsions:
REMARK  status: ('A' for Active; 'I' for Inactive)
REMARK    1  A    between atoms: C_1  and  C_2
REMARK    2  A    between atoms: C_2  and  N_3
REMARK    3  A    between atoms: C_2  and  C_23
REMARK    4  A    between atoms: C_4  and  C_6
REMARK    5  A    between atoms: C_9  and  N_10
REMARK                            x       y       z     vdW  Elec       q    Type
REMARK                         _______ _______ _______ _____ _____    ______ ____
ROOT
ATOM      1  C   UNL     1       2.459   7.338  18.971  0.00  0.00    +0.000 A 
ATOM      2  C   UNL     1       1.839   7.769  20.150  0.00  0.00    +0.000 A 
ATOM      3  C   UNL     1       1.165   8.997  20.179  0.00  0.00    +0.000 A 
ATOM      4  C   UNL     1       1.111   9.815  19.043  0.00  0.00    +0.000 A 
ATOM      5  C   UNL     1       1.718   9.349  17.868  0.00  0.00    +0.000 A 
ATOM      6  C   UNL     1       2.401   8.133  17.832  0.00  0.00    +0.000 A 
ENDROOT
BRANCH   4   7
ATOM      7  N   UNL     1       0.515  11.086  19.135  0.00  0.00    +0.000 N 
ATOM      8  C   UNL     1       1.179  12.274  19.089  0.00  0.00    +0.000 C 
ATOM      9  N   UNL     1       2.404  12.507  18.728  0.00  0.00    +0.000 NA
ATOM     10  C   UNL     1       2.695  13.911  19.006  0.00  0.00    +0.000 C 
ATOM     11  C   UNL     1       3.817  14.518  18.190  0.00  0.00    +0.000 C 
ATOM     12  S   UNL     1       3.386  16.268  18.169  0.00  0.00    +0.000 S 
ATOM     13  O   UNL     1       4.324  17.009  18.980  0.00  0.00    +0.000 OA
ATOM     14  O   UNL     1       3.086  16.646  16.798  0.00  0.00    +0.000 OA
ATOM     15  C   UNL     1       1.823  16.125  19.057  0.00  0.00    +0.000 C 
ATOM     16  C   UNL     1       1.440  14.714  18.692  0.00  0.00    +0.000 C 
ATOM     17  S   UNL     1       0.235  13.707  19.570  0.00  0.00    +0.000 S 
ATOM     18  H   UNL     1      -0.395  11.116  19.575  0.00  0.00    +0.000 HD
ENDBRANCH   4   7
BRANCH   1  20
ATOM     19  N   UNL     1       2.847   5.256  17.810  0.00  0.00    +0.000 N 
ATOM     20  C   UNL     1       3.185   6.045  18.882  0.00  0.00    +0.000 C 
ATOM     21  O   UNL     1       4.049   5.758  19.703  0.00  0.00    +0.000 OA
ATOM     22  H   UNL     1       2.255   5.633  17.089  0.00  0.00    +0.000 HD
BRANCH  19  24
ATOM     23  C   UNL     1       3.718   3.183  18.801  0.00  0.00    +0.000 C 
ATOM     24  C   UNL     1       3.535   4.011  17.527  0.00  0.00    +0.000 C 
BRANCH  24  25
ATOM     25  C   UNL     1       4.855   4.322  16.848  0.00  0.00    +0.000 A 
ATOM     26  C   UNL     1       4.868   4.664  15.486  0.00  0.00    +0.000 A 
ATOM     27  C   UNL     1       6.067   4.979  14.844  0.00  0.00    +0.000 A 
ATOM     28  C   UNL     1       7.263   4.966  15.557  0.00  0.00    +0.000 A 
ATOM     29  C   UNL     1       7.266   4.640  16.910  0.00  0.00    +0.000 A 
ATOM     30  C   UNL     1       6.069   4.320  17.553  0.00  0.00    +0.000 A 
ENDBRANCH  24  25
ENDBRANCH  19  24
ENDBRANCH   1  20
TORSDOF 4
ENDMDL
MODEL 4
REMARK VINA RESULT:      -7.8      4.782      9.963
REMARK  Name = 
REMARK  5 active torsions:
REMARK  status: ('A' for Active; 'I' for Inactive)
REMARK    1  A    between atoms: C_1  and  C_2
REMARK    2  A    between atoms: C_2  and  N_3
REMARK    3  A    between atoms: C_2  and  C_23
REMARK    4  A    between atoms: C_4  and  C_6
REMARK    5  A    between atoms: C_9  and  N_10
REMARK                            x       y       z     vdW  Elec       q    Type
REMARK                         _______ _______ _______ _____ _____    ______ ____
ROOT
ATOM      1  C   UNL     1       0.644  10.105  19.675  0.00  0.00    +0.000 A 
ATOM      2  C   UNL     1       0.727   9.344  20.848  0.00  0.00    +0.000 A 
ATOM      3  C   UNL     1       1.449   8.143  20.855  0.00  0.00    +0.000 A 
ATOM      4  C   UNL     1       2.084   7.678  19.696  0.00  0.00    +0.000 A 
ATOM      5  C   UNL     1       2.008   8.472  18.541  0.00  0.00    +0.000 A 
ATOM      6  C   UNL     1       1.282   9.662  18.521  0.00  0.00    +0.000 A 
ENDROOT
BRANCH   4   7
ATOM      7  N   UNL     1       2.714   6.420  19.710  0.00  0.00    +0.000 N 
ATOM      8  C   UNL     1       3.428   5.884  18.682  0.00  0.00    +0.000 C 
ATOM      9  N   UNL     1       3.874   6.466  17.611  0.00  0.00    +0.000 NA
ATOM     10  C   UNL     1       4.436   5.437  16.740  0.00  0.00    +0.000 C 
ATOM     11  C   UNL     1       5.466   5.919  15.741  0.00  0.00    +0.000 C 
ATOM     12  S   UNL     1       6.461   4.443  15.458  0.00  0.00    +0.000 S 
ATOM     13  O   UNL     1       6.217   3.943  14.125  0.00  0.00    +0.000 OA
ATOM     14  O   UNL     1       7.803   4.697  15.953  0.00  0.00    +0.000 OA
ATOM     15  C   UNL     1       5.624   3.377  16.649  0.00  0.00    +0.000 C 
ATOM     16  C   UNL     1       5.130   4.411  17.627  0.00  0.00    +0.000 C 
ATOM     17  S   UNL     1       3.823   4.153  18.835  0.00  0.00    +0.000 S 
ATOM     18  H   UNL     1       2.355   5.755  20.381  0.00  0.00    +0.000 HD
ENDBRANCH   4   7
BRANCH   1  20
ATOM     19  N   UNL     1      -1.460  11.283  19.803  0.00  0.00    +0.000 N 
ATOM     20  C   UNL     1      -0.105  11.386  19.610  0.00  0.00    +0.000 C 
ATOM     21  O   UNL     1       0.488  12.445  19.436  0.00  0.00    +0.000 OA
ATOM     22  H   UNL     1      -1.848  10.406  20.107  0.00  0.00    +0.000 HD
BRANCH  19  24
ATOM     23  C   UNL     1      -2.523  12.902  21.315  0.00  0.00    +0.000 C 
ATOM     24  C   UNL     1      -2.317  12.451  19.866  0.00  0.00    +0.000 C 
BRANCH  24  25
ATOM     25  C   UNL     1      -3.627  12.139  19.169  0.00  0.00    +0.000 A 
ATOM     26  C   UNL     1      -3.610  11.457  17.941  0.00  0.00    +0.000 A 
ATOM     27  C   UNL     1      -4.803  11.135  17.292  0.00  0.00    +0.000 A 
ATOM     28  C   UNL     1      -6.024  11.481  17.864  0.00  0.00    +0.000 A 
ATOM     29  C   UNL     1      -6.058  12.148  19.086  0.00  0.00    +0.000 A 
ATOM     30  C   UNL     1      -4.866  12.475  19.736  0.00  0.00    +0.000 A 
ENDBRANCH  24  25
ENDBRANCH  19  24
ENDBRANCH   1  20
TORSDOF 4
ENDMDL
MODEL 5
REMARK VINA RESULT:      -7.8      3.933      9.391
REMARK  Name = 
REMARK  5 active torsions:
REMARK  status: ('A' for Active; 'I' for Inactive)
REMARK    1  A    between atoms: C_1  and  C_2
REMARK    2  A    between atoms: C_2  and  N_3
REMARK    3  A    between atoms: C_2  and  C_23
REMARK    4  A    between atoms: C_4  and  C_6
REMARK    5  A    between atoms: C_9  and  N_10
REMARK                            x       y       z     vdW  Elec       q    Type
REMARK                         _______ _______ _______ _____ _____    ______ ____
ROOT
ATOM      1  C   UNL     1       1.177  10.208  20.266  0.00  0.00    +0.000 A 
ATOM      2  C   UNL     1       1.321   9.884  18.912  0.00  0.00    +0.000 A 
ATOM      3  C   UNL     1       1.584   8.561  18.532  0.00  0.00    +0.000 A 
ATOM      4  C   UNL     1       1.719   7.549  19.491  0.00  0.00    +0.000 A 
ATOM      5  C   UNL     1       1.545   7.895  20.839  0.00  0.00    +0.000 A 
ATOM      6  C   UNL     1       1.294   9.211  21.229  0.00  0.00    +0.000 A 
ENDROOT
BRANCH   4   7
ATOM      7  N   UNL     1       2.084   6.253  19.082  0.00  0.00    +0.000 N 
ATOM      8  C   UNL     1       3.123   5.950  18.256  0.00  0.00    +0.000 C 
ATOM      9  N   UNL     1       4.105   6.707  17.874  0.00  0.00    +0.000 NA
ATOM     10  C   UNL     1       4.869   5.978  16.866  0.00  0.00    +0.000 C 
ATOM     11  C   UNL     1       6.310   6.415  16.697  0.00  0.00    +0.000 C 
ATOM     12  S   UNL     1       7.103   4.922  16.072  0.00  0.00    +0.000 S 
ATOM     13  O   UNL     1       7.466   5.109  14.687  0.00  0.00    +0.000 OA
ATOM     14  O   UNL     1       8.061   4.466  17.065  0.00  0.00    +0.000 OA
ATOM     15  C   UNL     1       5.658   3.846  16.162  0.00  0.00    +0.000 C 
ATOM     16  C   UNL     1       4.902   4.513  17.281  0.00  0.00    +0.000 C 
ATOM     17  S   UNL     1       3.152   4.282  17.631  0.00  0.00    +0.000 S 
ATOM     18  H   UNL     1       1.357   5.553  19.140  0.00  0.00    +0.000 HD
ENDBRANCH   4   7
BRANCH   1  20
ATOM     19  N   UNL     1       1.044  12.568  19.774  0.00  0.00    +0.000 N 
ATOM     20  C   UNL     1       0.896  11.592  20.728  0.00  0.00    +0.000 C 
ATOM     21  O   UNL     1       0.519  11.800  21.876  0.00  0.00    +0.000 OA
ATOM     22  H   UNL     1       1.190  12.302  18.816  0.00  0.00    +0.000 HD
BRANCH  19  24
ATOM     23  C   UNL     1      -0.781  14.213  19.826  0.00  0.00    +0.000 C 
ATOM     24  C   UNL     1       0.713  13.955  20.039  0.00  0.00    +0.000 C 
BRANCH  24  25
ATOM     25  C   UNL     1       1.580  14.843  19.168  0.00  0.00    +0.000 A 
ATOM     26  C   UNL     1       2.703  14.296  18.527  0.00  0.00    +0.000 A 
ATOM     27  C   UNL     1       3.503  15.086  17.699  0.00  0.00    +0.000 A 
ATOM     28  C   UNL     1       3.184  16.425  17.494  0.00  0.00    +0.000 A 
ATOM     29  C   UNL     1       2.067  16.980  18.113  0.00  0.00    +0.000 A 
ATOM     30  C   UNL     1       1.269  16.194  18.945  0.00  0.00    +0.000 A 
ENDBRANCH  24  25
ENDBRANCH  19  24
ENDBRANCH   1  20
TORSDOF 4
ENDMDL
MODEL 6
REMARK VINA RESULT:      -7.8      0.898      1.656
REMARK  Name = 
REMARK  5 active torsions:
REMARK  status: ('A' for Active; 'I' for Inactive)
REMARK    1  A    between atoms: C_1  and  C_2
REMARK    2  A    between atoms: C_2  and  N_3
REMARK    3  A    between atoms: C_2  and  C_23
REMARK    4  A    between atoms: C_4  and  C_6
REMARK    5  A    between atoms: C_9  and  N_10
REMARK                            x       y       z     vdW  Elec       q    Type
REMARK                         _______ _______ _______ _____ _____    ______ ____
ROOT
ATOM      1  C   UNL     1       2.235   7.405  19.019  0.00  0.00    +0.000 A 
ATOM      2  C   UNL     1       2.170   8.180  17.855  0.00  0.00    +0.000 A 
ATOM      3  C   UNL     1       1.596   9.458  17.894  0.00  0.00    +0.000 A 
ATOM      4  C   UNL     1       1.069   9.974  19.086  0.00  0.00    +0.000 A 
ATOM      5  C   UNL     1       1.170   9.189  20.243  0.00  0.00    +0.000 A 
ATOM      6  C   UNL     1       1.728   7.911  20.212  0.00  0.00    +0.000 A 
ENDROOT
BRANCH   4   7
ATOM      7  N   UNL     1       0.410  11.217  19.068  0.00  0.00    +0.000 N 
ATOM      8  C   UNL     1       1.021  12.434  19.090  0.00  0.00    +0.000 C 
ATOM      9  N   UNL     1       2.272  12.719  18.897  0.00  0.00    +0.000 NA
ATOM     10  C   UNL     1       2.459  14.139  19.184  0.00  0.00    +0.000 C 
ATOM     11  C   UNL     1       3.656  14.786  18.518  0.00  0.00    +0.000 C 
ATOM     12  S   UNL     1       3.155  16.514  18.401  0.00  0.00    +0.000 S 
ATOM     13  O   UNL     1       3.936  17.309  19.319  0.00  0.00    +0.000 OA
ATOM     14  O   UNL     1       3.032  16.858  16.995  0.00  0.00    +0.000 OA
ATOM     15  C   UNL     1       1.491  16.310  19.068  0.00  0.00    +0.000 C 
ATOM     16  C   UNL     1       1.226  14.878  18.682  0.00  0.00    +0.000 C 
ATOM     17  S   UNL     1      -0.044  13.828  19.405  0.00  0.00    +0.000 S 
ATOM     18  H   UNL     1      -0.552  11.210  19.377  0.00  0.00    +0.000 HD
ENDBRANCH   4   7
BRANCH   1  20
ATOM     19  N   UNL     1       2.763   5.359  17.851  0.00  0.00    +0.000 N 
ATOM     20  C   UNL     1       2.833   6.046  19.038  0.00  0.00    +0.000 C 
ATOM     21  O   UNL     1       3.380   5.620  20.049  0.00  0.00    +0.000 OA
ATOM     22  H   UNL     1       2.453   5.838  17.023  0.00  0.00    +0.000 HD
BRANCH  19  24
ATOM     23  C   UNL     1       3.325   3.246  18.972  0.00  0.00    +0.000 C 
ATOM     24  C   UNL     1       3.387   4.061  17.678  0.00  0.00    +0.000 C 
BRANCH  24  25
ATOM     25  C   UNL     1       4.809   4.261  17.191  0.00  0.00    +0.000 A 
ATOM     26  C   UNL     1       5.068   4.304  15.812  0.00  0.00    +0.000 A 
ATOM     27  C   UNL     1       6.364   4.512  15.338  0.00  0.00    +0.000 A 
ATOM     28  C   UNL     1       7.414   4.689  16.235  0.00  0.00    +0.000 A 
ATOM     29  C   UNL     1       7.173   4.661  17.606  0.00  0.00    +0.000 A 
ATOM     30  C   UNL     1       5.878   4.448  18.082  0.00  0.00    +0.000 A 
ENDBRANCH  24  25
ENDBRANCH  19  24
ENDBRANCH   1  20
TORSDOF 4
ENDMDL
MODEL 7
REMARK VINA RESULT:      -7.8      3.839      4.529
REMARK  Name = 
REMARK  5 active torsions:
REMARK  status: ('A' for Active; 'I' for Inactive)
REMARK    1  A    between atoms: C_1  and  C_2
REMARK    2  A    between atoms: C_2  and  N_3
REMARK    3  A    between atoms: C_2  and  C_23
REMARK    4  A    between atoms: C_4  and  C_6
REMARK    5  A    between atoms: C_9  and  N_10
REMARK                            x       y       z     vdW  Elec       q    Type
REMARK                         _______ _______ _______ _____ _____    ______ ____
ROOT
ATOM      1  C   UNL     1       3.471   6.267  18.440  0.00  0.00    +0.000 A 
ATOM      2  C   UNL     1       2.716   6.295  19.619  0.00  0.00    +0.000 A 
ATOM      3  C   UNL     1       1.942   7.421  19.930  0.00  0.00    +0.000 A 
ATOM      4  C   UNL     1       1.919   8.535  19.081  0.00  0.00    +0.000 A 
ATOM      5  C   UNL     1       2.663   8.472  17.894  0.00  0.00    +0.000 A 
ATOM      6  C   UNL     1       3.446   7.361  17.581  0.00  0.00    +0.000 A 
ENDROOT
BRANCH   4   7
ATOM      7  N   UNL     1       1.213   9.687  19.473  0.00  0.00    +0.000 N 
ATOM      8  C   UNL     1       0.037  10.112  18.933  0.00  0.00    +0.000 C 
ATOM      9  N   UNL     1      -0.780   9.470  18.156  0.00  0.00    +0.000 NA
ATOM     10  C   UNL     1      -1.814  10.405  17.719  0.00  0.00    +0.000 C 
ATOM     11  C   UNL     1      -3.121   9.775  17.283  0.00  0.00    +0.000 C 
ATOM     12  S   UNL     1      -4.314  11.089  17.596  0.00  0.00    +0.000 S 
ATOM     13  O   UNL     1      -4.793  11.618  16.340  0.00  0.00    +0.000 OA
ATOM     14  O   UNL     1      -5.220  10.641  18.640  0.00  0.00    +0.000 OA
ATOM     15  C   UNL     1      -3.162  12.267  18.331  0.00  0.00    +0.000 C 
ATOM     16  C   UNL     1      -2.137  11.318  18.894  0.00  0.00    +0.000 C 
ATOM     17  S   UNL     1      -0.461  11.766  19.370  0.00  0.00    +0.000 S 
ATOM     18  H   UNL     1       1.755  10.398  19.943  0.00  0.00    +0.000 HD
ENDBRANCH   4   7
BRANCH   1  20
ATOM     19  N   UNL     1       5.332   5.375  17.186  0.00  0.00    +0.000 N 
ATOM     20  C   UNL     1       4.308   5.100  18.058  0.00  0.00    +0.000 C 
ATOM     21  O   UNL     1       4.094   3.995  18.544  0.00  0.00    +0.000 OA
ATOM     22  H   UNL     1       5.548   6.332  16.965  0.00  0.00    +0.000 HD
BRANCH  19  24
ATOM     23  C   UNL     1       7.636   4.583  17.502  0.00  0.00    +0.000 C 
ATOM     24  C   UNL     1       6.297   4.365  16.794  0.00  0.00    +0.000 C 
BRANCH  24  25
ATOM     25  C   UNL     1       6.435   4.377  15.284  0.00  0.00    +0.000 A 
ATOM     26  C   UNL     1       7.477   5.108  14.691  0.00  0.00    +0.000 A 
ATOM     27  C   UNL     1       7.641   5.115  13.305  0.00  0.00    +0.000 A 
ATOM     28  C   UNL     1       6.773   4.384  12.497  0.00  0.00    +0.000 A 
ATOM     29  C   UNL     1       5.742   3.645  13.070  0.00  0.00    +0.000 A 
ATOM     30  C   UNL     1       5.573   3.641  14.456  0.00  0.00    +0.000 A 
ENDBRANCH  24  25
ENDBRANCH  19  24
ENDBRANCH   1  20
TORSDOF 4
ENDMDL
MODEL 8
REMARK VINA RESULT:      -7.8      5.368      6.738
REMARK  Name = 
REMARK  5 active torsions:
REMARK  status: ('A' for Active; 'I' for Inactive)
REMARK    1  A    between atoms: C_1  and  C_2
REMARK    2  A    between atoms: C_2  and  N_3
REMARK    3  A    between atoms: C_2  and  C_23
REMARK    4  A    between atoms: C_4  and  C_6
REMARK    5  A    between atoms: C_9  and  N_10
REMARK                            x       y       z     vdW  Elec       q    Type
REMARK                         _______ _______ _______ _____ _____    ______ ____
ROOT
ATOM      1  C   UNL     1       0.804   9.476  20.564  0.00  0.00    +0.000 A 
ATOM      2  C   UNL     1       0.659  10.854  20.363  0.00  0.00    +0.000 A 
ATOM      3  C   UNL     1      -0.043  11.629  21.296  0.00  0.00    +0.000 A 
ATOM      4  C   UNL     1      -0.618  11.043  22.431  0.00  0.00    +0.000 A 
ATOM      5  C   UNL     1      -0.436   9.666  22.623  0.00  0.00    +0.000 A 
ATOM      6  C   UNL     1       0.250   8.883  21.694  0.00  0.00    +0.000 A 
ENDROOT
BRANCH   4   7
ATOM      7  N   UNL     1      -1.401  11.832  23.294  0.00  0.00    +0.000 N 
ATOM      8  C   UNL     1      -2.626  12.346  22.998  0.00  0.00    +0.000 C 
ATOM      9  N   UNL     1      -3.416  12.047  22.012  0.00  0.00    +0.000 NA
ATOM     10  C   UNL     1      -4.538  12.982  22.036  0.00  0.00    +0.000 C 
ATOM     11  C   UNL     1      -5.805  12.499  21.361  0.00  0.00    +0.000 C 
ATOM     12  S   UNL     1      -7.088  13.423  22.224  0.00  0.00    +0.000 S 
ATOM     13  O   UNL     1      -7.655  14.412  21.336  0.00  0.00    +0.000 OA
ATOM     14  O   UNL     1      -7.916  12.479  22.954  0.00  0.00    +0.000 OA
ATOM     15  C   UNL     1      -6.010  14.248  23.412  0.00  0.00    +0.000 C 
ATOM     16  C   UNL     1      -4.891  13.243  23.494  0.00  0.00    +0.000 C 
ATOM     17  S   UNL     1      -3.240  13.580  24.127  0.00  0.00    +0.000 S 
ATOM     18  H   UNL     1      -0.901  12.304  24.035  0.00  0.00    +0.000 HD
ENDBRANCH   4   7
BRANCH   1  20
ATOM     19  N   UNL     1       2.272   7.597  20.184  0.00  0.00    +0.000 N 
ATOM     20  C   UNL     1       1.538   8.605  19.610  0.00  0.00    +0.000 C 
ATOM     21  O   UNL     1       1.436   8.782  18.402  0.00  0.00    +0.000 OA
ATOM     22  H   UNL     1       2.171   7.412  21.167  0.00  0.00    +0.000 HD
BRANCH  19  24
ATOM     23  C   UNL     1       3.179   7.102  17.954  0.00  0.00    +0.000 C 
ATOM     24  C   UNL     1       2.965   6.603  19.385  0.00  0.00    +0.000 C 
BRANCH  24  25
ATOM     25  C   UNL     1       2.184   5.304  19.432  0.00  0.00    +0.000 A 
ATOM     26  C   UNL     1       1.965   4.586  18.245  0.00  0.00    +0.000 A 
ATOM     27  C   UNL     1       1.271   3.376  18.264  0.00  0.00    +0.000 A 
ATOM     28  C   UNL     1       0.798   2.863  19.469  0.00  0.00    +0.000 A 
ATOM     29  C   UNL     1       1.016   3.557  20.656  0.00  0.00    +0.000 A 
ATOM     30  C   UNL     1       1.705   4.770  20.639  0.00  0.00    +0.000 A 
ENDBRANCH  24  25
ENDBRANCH  19  24
ENDBRANCH   1  20
TORSDOF 4
ENDMDL
MODEL 9
REMARK VINA RESULT:      -7.7      5.016     10.346
REMARK  Name = 
REMARK  5 active torsions:
REMARK  status: ('A' for Active; 'I' for Inactive)
REMARK    1  A    between atoms: C_1  and  C_2
REMARK    2  A    between atoms: C_2  and  N_3
REMARK    3  A    between atoms: C_2  and  C_23
REMARK    4  A    between atoms: C_4  and  C_6
REMARK    5  A    between atoms: C_9  and  N_10
REMARK                            x       y       z     vdW  Elec       q    Type
REMARK                         _______ _______ _______ _____ _____    ______ ____
ROOT
ATOM      1  C   UNL     1      -0.264  10.319  20.011  0.00  0.00    +0.000 A 
ATOM      2  C   UNL     1      -0.060   9.626  21.210  0.00  0.00    +0.000 A 
ATOM      3  C   UNL     1       0.857   8.568  21.262  0.00  0.00    +0.000 A 
ATOM      4  C   UNL     1       1.572   8.179  20.122  0.00  0.00    +0.000 A 
ATOM      5  C   UNL     1       1.369   8.905  18.939  0.00  0.00    +0.000 A 
ATOM      6  C   UNL     1       0.449   9.952  18.875  0.00  0.00    +0.000 A 
ENDROOT
BRANCH   4   7
ATOM      7  N   UNL     1       2.409   7.049  20.184  0.00  0.00    +0.000 N 
ATOM      8  C   UNL     1       3.148   6.559  19.151  0.00  0.00    +0.000 C 
ATOM      9  N   UNL     1       3.431   7.120  18.015  0.00  0.00    +0.000 NA
ATOM     10  C   UNL     1       4.115   6.133  17.184  0.00  0.00    +0.000 C 
ATOM     11  C   UNL     1       4.993   6.700  16.088  0.00  0.00    +0.000 C 
ATOM     12  S   UNL     1       6.210   5.393  15.844  0.00  0.00    +0.000 S 
ATOM     13  O   UNL     1       5.986   4.753  14.568  0.00  0.00    +0.000 OA
ATOM     14  O   UNL     1       7.513   5.907  16.231  0.00  0.00    +0.000 OA
ATOM     15  C   UNL     1       5.634   4.301  17.159  0.00  0.00    +0.000 C 
ATOM     16  C   UNL     1       5.021   5.313  18.092  0.00  0.00    +0.000 C 
ATOM     17  S   UNL     1       3.843   4.937  19.399  0.00  0.00    +0.000 S 
ATOM     18  H   UNL     1       2.205   6.390  20.922  0.00  0.00    +0.000 HD
ENDBRANCH   4   7
BRANCH   1  20
ATOM     19  N   UNL     1      -1.584  12.030  21.087  0.00  0.00    +0.000 N 
ATOM     20  C   UNL     1      -1.222  11.449  19.897  0.00  0.00    +0.000 C 
ATOM     21  O   UNL     1      -1.604  11.832  18.798  0.00  0.00    +0.000 OA
ATOM     22  H   UNL     1      -1.100  11.772  21.929  0.00  0.00    +0.000 HD
BRANCH  19  24
ATOM     23  C   UNL     1      -1.610  14.465  21.419  0.00  0.00    +0.000 C 
ATOM     24  C   UNL     1      -2.433  13.206  21.138  0.00  0.00    +0.000 C 
BRANCH  24  25
ATOM     25  C   UNL     1      -3.518  12.984  22.175  0.00  0.00    +0.000 A 
ATOM     26  C   UNL     1      -3.160  12.609  23.480  0.00  0.00    +0.000 A 
ATOM     27  C   UNL     1      -4.137  12.423  24.459  0.00  0.00    +0.000 A 
ATOM     28  C   UNL     1      -5.480  12.619  24.149  0.00  0.00    +0.000 A 
ATOM     29  C   UNL     1      -5.851  13.002  22.863  0.00  0.00    +0.000 A 
ATOM     30  C   UNL     1      -4.876  13.184  21.881  0.00  0.00    +0.000 A 
ENDBRANCH  24  25
ENDBRANCH  19  24
ENDBRANCH   1  20
TORSDOF 4
ENDMDL
