MODEL 1
REMARK VINA RESULT:      -8.6      0.000      0.000
REMARK  Name = 
REMARK  11 active torsions:
REMARK  status: ('A' for Active; 'I' for Inactive)
REMARK    1  A    between atoms: C_1  and  O_2
REMARK    2  A    between atoms: O_2  and  C_3
REMARK    3  A    between atoms: C_5  and  C_6
REMARK    4  A    between atoms: C_8  and  C_9
REMARK    5  A    between atoms: C_17  and  O_19
REMARK    6  A    between atoms: O_19  and  C_20
REMARK    7  A    between atoms: C_20  and  C_21
REMARK    8  A    between atoms: C_28  and  O_29
REMARK    9  A    between atoms: O_29  and  C_30
REMARK   10  A    between atoms: C_31  and  O_32
REMARK   11  A    between atoms: O_32  and  C_33
REMARK                            x       y       z     vdW  Elec       q    Type
REMARK                         _______ _______ _______ _____ _____    ______ ____
ROOT
ATOM      1  C   UNL     1       5.643   4.159  17.812  0.00  0.00    +0.000 C 
ATOM      2  C   UNL     1       5.452   3.661  16.386  0.00  0.00    +0.000 C 
ATOM      3  C   UNL     1       6.424   4.552  15.654  0.00  0.00    +0.000 C 
ATOM      4  N   UNL     1       7.072   5.399  16.395  0.00  0.00    +0.000 NA
ATOM      5  N   UNL     1       6.645   5.204  17.685  0.00  0.00    +0.000 N 
ATOM      6  C   UNL     1       7.198   5.870  18.766  0.00  0.00    +0.000 C 
ATOM      7  O   UNL     1       6.921   5.630  19.941  0.00  0.00    +0.000 OA
ENDROOT
BRANCH   1  10
ATOM      8  C   UNL     1       2.907   4.692  20.416  0.00  0.00    +0.000 A 
ATOM      9  C   UNL     1       3.923   4.093  19.647  0.00  0.00    +0.000 A 
ATOM     10  C   UNL     1       4.369   4.666  18.457  0.00  0.00    +0.000 A 
ATOM     11  C   UNL     1       3.685   5.779  17.966  0.00  0.00    +0.000 A 
ATOM     12  C   UNL     1       2.614   6.353  18.671  0.00  0.00    +0.000 A 
ATOM     13  C   UNL     1       2.219   5.823  19.920  0.00  0.00    +0.000 A 
BRANCH   8  15
ATOM     14  C   UNL     1       1.791   2.988  21.627  0.00  0.00    +0.000 C 
ATOM     15  O   UNL     1       2.592   4.174  21.651  0.00  0.00    +0.000 OA
ENDBRANCH   8  15
BRANCH  12  16
ATOM     16  O   UNL     1       2.114   7.440  17.995  0.00  0.00    +0.000 OA
ATOM     17  C   UNL     1       2.962   8.538  17.702  0.00  0.00    +0.000 C 
ENDBRANCH  12  16
BRANCH  13  18
ATOM     18  O   UNL     1       1.200   6.488  20.542  0.00  0.00    +0.000 OA
ATOM     19  C   UNL     1       1.373   7.772  21.110  0.00  0.00    +0.000 C 
ENDBRANCH  13  18
ENDBRANCH   1  10
BRANCH   3  20
ATOM     20  C   UNL     1       6.636   4.433  14.192  0.00  0.00    +0.000 A 
ATOM     21  C   UNL     1       5.902   3.529  13.417  0.00  0.00    +0.000 A 
ATOM     22  C   UNL     1       6.146   3.425  12.044  0.00  0.00    +0.000 A 
ATOM     23  C   UNL     1       7.124   4.221  11.445  0.00  0.00    +0.000 A 
ATOM     24  C   UNL     1       7.856   5.123  12.213  0.00  0.00    +0.000 A 
ATOM     25  C   UNL     1       7.612   5.232  13.583  0.00  0.00    +0.000 A 
ENDBRANCH   3  20
BRANCH   6  26
ATOM     26  O   UNL     1       8.076   6.840  18.382  0.00  0.00    +0.000 OA
BRANCH  26  27
ATOM     27  C   UNL     1       7.531   8.002  17.737  0.00  0.00    +0.000 C 
BRANCH  27  28
ATOM     28  C   UNL     1       8.256   9.256  18.163  0.00  0.00    +0.000 A 
ATOM     29  C   UNL     1       8.120  10.458  17.455  0.00  0.00    +0.000 A 
ATOM     30  C   UNL     1       8.795  11.608  17.870  0.00  0.00    +0.000 A 
ATOM     31  C   UNL     1       9.599  11.573  19.008  0.00  0.00    +0.000 A 
ATOM     32  C   UNL     1       9.717  10.395  19.740  0.00  0.00    +0.000 A 
ATOM     33  C   UNL     1       9.044   9.244  19.324  0.00  0.00    +0.000 A 
ENDBRANCH  27  28
ENDBRANCH  26  27
ENDBRANCH   6  26
TORSDOF 8
ENDMDL
MODEL 2
REMARK VINA RESULT:      -8.5      0.532      1.301
REMARK  Name = 
REMARK  11 active torsions:
REMARK  status: ('A' for Active; 'I' for Inactive)
REMARK    1  A    between atoms: C_1  and  O_2
REMARK    2  A    between atoms: O_2  and  C_3
REMARK    3  A    between atoms: C_5  and  C_6
REMARK    4  A    between atoms: C_8  and  C_9
REMARK    5  A    between atoms: C_17  and  O_19
REMARK    6  A    between atoms: O_19  and  C_20
REMARK    7  A    between atoms: C_20  and  C_21
REMARK    8  A    between atoms: C_28  and  O_29
REMARK    9  A    between atoms: O_29  and  C_30
REMARK   10  A    between atoms: C_31  and  O_32
REMARK   11  A    between atoms: O_32  and  C_33
REMARK                            x       y       z     vdW  Elec       q    Type
REMARK                         _______ _______ _______ _____ _____    ______ ____
ROOT
ATOM      1  C   UNL     1       5.671   4.544  17.825  0.00  0.00    +0.000 C 
ATOM      2  C   UNL     1       5.471   3.993  16.419  0.00  0.00    +0.000 C 
ATOM      3  C   UNL     1       6.508   4.786  15.665  0.00  0.00    +0.000 C 
ATOM      4  N   UNL     1       7.197   5.625  16.378  0.00  0.00    +0.000 NA
ATOM      5  N   UNL     1       6.740   5.517  17.667  0.00  0.00    +0.000 N 
ATOM      6  C   UNL     1       7.318   6.197  18.727  0.00  0.00    +0.000 C 
ATOM      7  O   UNL     1       7.009   6.030  19.906  0.00  0.00    +0.000 OA
ENDROOT
BRANCH   1  10
ATOM      8  C   UNL     1       2.762   5.149  20.217  0.00  0.00    +0.000 A 
ATOM      9  C   UNL     1       3.758   4.504  19.458  0.00  0.00    +0.000 A 
ATOM     10  C   UNL     1       4.423   5.160  18.423  0.00  0.00    +0.000 A 
ATOM     11  C   UNL     1       3.979   6.432  18.057  0.00  0.00    +0.000 A 
ATOM     12  C   UNL     1       2.932   7.070  18.744  0.00  0.00    +0.000 A 
ATOM     13  C   UNL     1       2.318   6.439  19.848  0.00  0.00    +0.000 A 
BRANCH   8  15
ATOM     14  C   UNL     1       1.543   3.292  21.043  0.00  0.00    +0.000 C 
ATOM     15  O   UNL     1       2.230   4.519  21.317  0.00  0.00    +0.000 OA
ENDBRANCH   8  15
BRANCH  12  16
ATOM     16  O   UNL     1       2.687   8.312  18.209  0.00  0.00    +0.000 OA
ATOM     17  C   UNL     1       1.402   8.615  17.693  0.00  0.00    +0.000 C 
ENDBRANCH  12  16
BRANCH  13  18
ATOM     18  O   UNL     1       1.346   7.169  20.473  0.00  0.00    +0.000 OA
ATOM     19  C   UNL     1       1.649   8.160  21.437  0.00  0.00    +0.000 C 
ENDBRANCH  13  18
ENDBRANCH   1  10
BRANCH   3  20
ATOM     20  C   UNL     1       6.734   4.586  14.214  0.00  0.00    +0.000 A 
ATOM     21  C   UNL     1       7.662   5.355  13.504  0.00  0.00    +0.000 A 
ATOM     22  C   UNL     1       7.831   5.157  12.132  0.00  0.00    +0.000 A 
ATOM     23  C   UNL     1       7.074   4.193  11.465  0.00  0.00    +0.000 A 
ATOM     24  C   UNL     1       6.150   3.423  12.167  0.00  0.00    +0.000 A 
ATOM     25  C   UNL     1       5.980   3.617  13.539  0.00  0.00    +0.000 A 
ENDBRANCH   3  20
BRANCH   6  26
ATOM     26  O   UNL     1       8.262   7.091  18.315  0.00  0.00    +0.000 OA
BRANCH  26  27
ATOM     27  C   UNL     1       7.799   8.266  17.630  0.00  0.00    +0.000 C 
BRANCH  27  28
ATOM     28  C   UNL     1       8.428   9.515  18.200  0.00  0.00    +0.000 A 
ATOM     29  C   UNL     1       9.147   9.490  19.403  0.00  0.00    +0.000 A 
ATOM     30  C   UNL     1       9.725  10.656  19.909  0.00  0.00    +0.000 A 
ATOM     31  C   UNL     1       9.606  11.855  19.210  0.00  0.00    +0.000 A 
ATOM     32  C   UNL     1       8.922  11.888  17.997  0.00  0.00    +0.000 A 
ATOM     33  C   UNL     1       8.342  10.723  17.492  0.00  0.00    +0.000 A 
ENDBRANCH  27  28
ENDBRANCH  26  27
ENDBRANCH   6  26
TORSDOF 8
ENDMDL
MODEL 3
REMARK VINA RESULT:      -8.2      0.435      2.420
REMARK  Name = 
REMARK  11 active torsions:
REMARK  status: ('A' for Active; 'I' for Inactive)
REMARK    1  A    between atoms: C_1  and  O_2
REMARK    2  A    between atoms: O_2  and  C_3
REMARK    3  A    between atoms: C_5  and  C_6
REMARK    4  A    between atoms: C_8  and  C_9
REMARK    5  A    between atoms: C_17  and  O_19
REMARK    6  A    between atoms: O_19  and  C_20
REMARK    7  A    between atoms: C_20  and  C_21
REMARK    8  A    between atoms: C_28  and  O_29
REMARK    9  A    between atoms: O_29  and  C_30
REMARK   10  A    between atoms: C_31  and  O_32
REMARK   11  A    between atoms: O_32  and  C_33
REMARK                            x       y       z     vdW  Elec       q    Type
REMARK                         _______ _______ _______ _____ _____    ______ ____
ROOT
ATOM      1  C   UNL     1       5.820   4.533  18.049  0.00  0.00    +0.000 C 
ATOM      2  C   UNL     1       5.521   3.960  16.671  0.00  0.00    +0.000 C 
ATOM      3  C   UNL     1       6.489   4.752  15.829  0.00  0.00    +0.000 C 
ATOM      4  N   UNL     1       7.221   5.608  16.477  0.00  0.00    +0.000 NA
ATOM      5  N   UNL     1       6.864   5.514  17.799  0.00  0.00    +0.000 N 
ATOM      6  C   UNL     1       7.512   6.215  18.803  0.00  0.00    +0.000 C 
ATOM      7  O   UNL     1       7.295   6.061  20.004  0.00  0.00    +0.000 OA
ENDROOT
BRANCH   1  10
ATOM      8  C   UNL     1       2.695   6.652  18.587  0.00  0.00    +0.000 A 
ATOM      9  C   UNL     1       3.957   6.221  18.137  0.00  0.00    +0.000 A 
ATOM     10  C   UNL     1       4.615   5.145  18.732  0.00  0.00    +0.000 A 
ATOM     11  C   UNL     1       4.056   4.588  19.884  0.00  0.00    +0.000 A 
ATOM     12  C   UNL     1       2.835   5.050  20.405  0.00  0.00    +0.000 A 
ATOM     13  C   UNL     1       2.128   6.083  19.751  0.00  0.00    +0.000 A 
BRANCH   8  15
ATOM     14  C   UNL     1       2.360   8.971  18.230  0.00  0.00    +0.000 C 
ATOM     15  O   UNL     1       2.017   7.623  17.888  0.00  0.00    +0.000 OA
ENDBRANCH   8  15
BRANCH  12  16
ATOM     16  O   UNL     1       2.489   4.340  21.529  0.00  0.00    +0.000 OA
ATOM     17  C   UNL     1       2.339   2.932  21.456  0.00  0.00    +0.000 C 
ENDBRANCH  12  16
BRANCH  13  18
ATOM     18  O   UNL     1       0.929   6.420  20.315  0.00  0.00    +0.000 OA
ATOM     19  C   UNL     1       0.794   7.515  21.200  0.00  0.00    +0.000 C 
ENDBRANCH  13  18
ENDBRANCH   1  10
BRANCH   3  20
ATOM     20  C   UNL     1       6.607   4.534  14.369  0.00  0.00    +0.000 A 
ATOM     21  C   UNL     1       5.804   3.604  13.700  0.00  0.00    +0.000 A 
ATOM     22  C   UNL     1       5.960   3.406  12.325  0.00  0.00    +0.000 A 
ATOM     23  C   UNL     1       6.917   4.133  11.617  0.00  0.00    +0.000 A 
ATOM     24  C   UNL     1       7.718   5.061  12.278  0.00  0.00    +0.000 A 
ATOM     25  C   UNL     1       7.563   5.264  13.651  0.00  0.00    +0.000 A 
ENDBRANCH   3  20
BRANCH   6  26
ATOM     26  O   UNL     1       8.413   7.112  18.308  0.00  0.00    +0.000 OA
BRANCH  26  27
ATOM     27  C   UNL     1       7.887   8.290  17.677  0.00  0.00    +0.000 C 
BRANCH  27  28
ATOM     28  C   UNL     1       8.495   9.542  18.262  0.00  0.00    +0.000 A 
ATOM     29  C   UNL     1       9.096   9.542  19.528  0.00  0.00    +0.000 A 
ATOM     30  C   UNL     1       9.658  10.710  20.048  0.00  0.00    +0.000 A 
ATOM     31  C   UNL     1       9.640  11.887  19.300  0.00  0.00    +0.000 A 
ATOM     32  C   UNL     1       9.074  11.893  18.028  0.00  0.00    +0.000 A 
ATOM     33  C   UNL     1       8.511  10.726  17.509  0.00  0.00    +0.000 A 
ENDBRANCH  27  28
ENDBRANCH  26  27
ENDBRANCH   6  26
TORSDOF 8
ENDMDL
MODEL 4
REMARK VINA RESULT:      -7.8      1.086      2.615
REMARK  Name = 
REMARK  11 active torsions:
REMARK  status: ('A' for Active; 'I' for Inactive)
REMARK    1  A    between atoms: C_1  and  O_2
REMARK    2  A    between atoms: O_2  and  C_3
REMARK    3  A    between atoms: C_5  and  C_6
REMARK    4  A    between atoms: C_8  and  C_9
REMARK    5  A    between atoms: C_17  and  O_19
REMARK    6  A    between atoms: O_19  and  C_20
REMARK    7  A    between atoms: C_20  and  C_21
REMARK    8  A    between atoms: C_28  and  O_29
REMARK    9  A    between atoms: O_29  and  C_30
REMARK   10  A    between atoms: C_31  and  O_32
REMARK   11  A    between atoms: O_32  and  C_33
REMARK                            x       y       z     vdW  Elec       q    Type
REMARK                         _______ _______ _______ _____ _____    ______ ____
ROOT
ATOM      1  C   UNL     1       6.600   4.474  17.585  0.00  0.00    +0.000 C 
ATOM      2  C   UNL     1       6.354   3.784  16.250  0.00  0.00    +0.000 C 
ATOM      3  C   UNL     1       6.892   4.824  15.301  0.00  0.00    +0.000 C 
ATOM      4  N   UNL     1       7.361   5.900  15.859  0.00  0.00    +0.000 NA
ATOM      5  N   UNL     1       7.212   5.740  17.214  0.00  0.00    +0.000 N 
ATOM      6  C   UNL     1       7.697   6.654  18.135  0.00  0.00    +0.000 C 
ATOM      7  O   UNL     1       7.685   6.481  19.353  0.00  0.00    +0.000 OA
ENDROOT
BRANCH   1  10
ATOM      8  C   UNL     1       3.211   5.826  18.697  0.00  0.00    +0.000 A 
ATOM      9  C   UNL     1       4.503   5.747  18.144  0.00  0.00    +0.000 A 
ATOM     10  C   UNL     1       5.346   4.669  18.412  0.00  0.00    +0.000 A 
ATOM     11  C   UNL     1       4.932   3.731  19.360  0.00  0.00    +0.000 A 
ATOM     12  C   UNL     1       3.680   3.826  19.989  0.00  0.00    +0.000 A 
ATOM     13  C   UNL     1       2.792   4.872  19.653  0.00  0.00    +0.000 A 
BRANCH   8  15
ATOM     14  C   UNL     1       2.181   7.888  19.248  0.00  0.00    +0.000 C 
ATOM     15  O   UNL     1       2.359   6.830  18.299  0.00  0.00    +0.000 OA
ENDBRANCH   8  15
BRANCH  12  16
ATOM     16  O   UNL     1       3.499   2.785  20.868  0.00  0.00    +0.000 OA
ATOM     17  C   UNL     1       4.465   1.750  20.943  0.00  0.00    +0.000 C 
ENDBRANCH  12  16
BRANCH  13  18
ATOM     18  O   UNL     1       1.582   4.840  20.288  0.00  0.00    +0.000 OA
ATOM     19  C   UNL     1       0.643   3.805  20.070  0.00  0.00    +0.000 C 
ENDBRANCH  13  18
ENDBRANCH   1  10
BRANCH   3  20
ATOM     20  C   UNL     1       6.907   4.605  13.836  0.00  0.00    +0.000 A 
ATOM     21  C   UNL     1       6.129   3.609  13.236  0.00  0.00    +0.000 A 
ATOM     22  C   UNL     1       6.186   3.414  11.854  0.00  0.00    +0.000 A 
ATOM     23  C   UNL     1       7.022   4.209  11.068  0.00  0.00    +0.000 A 
ATOM     24  C   UNL     1       7.798   5.203  11.660  0.00  0.00    +0.000 A 
ATOM     25  C   UNL     1       7.741   5.403  13.041  0.00  0.00    +0.000 A 
ENDBRANCH   3  20
BRANCH   6  26
ATOM     26  O   UNL     1       8.176   7.784  17.539  0.00  0.00    +0.000 OA
BRANCH  26  27
ATOM     27  C   UNL     1       7.482   9.012  17.807  0.00  0.00    +0.000 C 
BRANCH  27  28
ATOM     28  C   UNL     1       8.434  10.087  18.276  0.00  0.00    +0.000 A 
ATOM     29  C   UNL     1       9.281   9.887  19.375  0.00  0.00    +0.000 A 
ATOM     30  C   UNL     1      10.158  10.892  19.788  0.00  0.00    +0.000 A 
ATOM     31  C   UNL     1      10.210  12.102  19.097  0.00  0.00    +0.000 A 
ATOM     32  C   UNL     1       9.397  12.302  17.984  0.00  0.00    +0.000 A 
ATOM     33  C   UNL     1       8.519  11.298  17.572  0.00  0.00    +0.000 A 
ENDBRANCH  27  28
ENDBRANCH  26  27
ENDBRANCH   6  26
TORSDOF 8
ENDMDL
MODEL 5
REMARK VINA RESULT:      -7.8      4.700      9.059
REMARK  Name = 
REMARK  11 active torsions:
REMARK  status: ('A' for Active; 'I' for Inactive)
REMARK    1  A    between atoms: C_1  and  O_2
REMARK    2  A    between atoms: O_2  and  C_3
REMARK    3  A    between atoms: C_5  and  C_6
REMARK    4  A    between atoms: C_8  and  C_9
REMARK    5  A    between atoms: C_17  and  O_19
REMARK    6  A    between atoms: O_19  and  C_20
REMARK    7  A    between atoms: C_20  and  C_21
REMARK    8  A    between atoms: C_28  and  O_29
REMARK    9  A    between atoms: O_29  and  C_30
REMARK   10  A    between atoms: C_31  and  O_32
REMARK   11  A    between atoms: O_32  and  C_33
REMARK                            x       y       z     vdW  Elec       q    Type
REMARK                         _______ _______ _______ _____ _____    ______ ____
ROOT
ATOM      1  C   UNL     1       1.340   9.390  19.109  0.00  0.00    +0.000 C 
ATOM      2  C   UNL     1       0.526   9.818  17.895  0.00  0.00    +0.000 C 
ATOM      3  C   UNL     1      -0.834   9.988  18.525  0.00  0.00    +0.000 C 
ATOM      4  N   UNL     1      -0.895   9.739  19.799  0.00  0.00    +0.000 NA
ATOM      5  N   UNL     1       0.371   9.383  20.193  0.00  0.00    +0.000 N 
ATOM      6  C   UNL     1       0.704   9.143  21.516  0.00  0.00    +0.000 C 
ATOM      7  O   UNL     1       1.851   8.940  21.913  0.00  0.00    +0.000 OA
ENDROOT
BRANCH   1  10
ATOM      8  C   UNL     1       3.756   6.726  17.840  0.00  0.00    +0.000 A 
ATOM      9  C   UNL     1       2.909   7.849  17.887  0.00  0.00    +0.000 A 
ATOM     10  C   UNL     1       2.021   8.048  18.944  0.00  0.00    +0.000 A 
ATOM     11  C   UNL     1       1.888   7.031  19.891  0.00  0.00    +0.000 A 
ATOM     12  C   UNL     1       2.664   5.861  19.826  0.00  0.00    +0.000 A 
ATOM     13  C   UNL     1       3.624   5.700  18.803  0.00  0.00    +0.000 A 
BRANCH   8  15
ATOM     14  C   UNL     1       6.040   6.995  17.265  0.00  0.00    +0.000 C 
ATOM     15  O   UNL     1       4.714   6.637  16.857  0.00  0.00    +0.000 OA
ENDBRANCH   8  15
BRANCH  12  16
ATOM     16  O   UNL     1       2.362   5.020  20.871  0.00  0.00    +0.000 OA
ATOM     17  C   UNL     1       1.330   4.058  20.725  0.00  0.00    +0.000 C 
ENDBRANCH  12  16
BRANCH  13  18
ATOM     18  O   UNL     1       4.357   4.547  18.864  0.00  0.00    +0.000 OA
ATOM     19  C   UNL     1       4.012   3.394  18.122  0.00  0.00    +0.000 C 
ENDBRANCH  13  18
ENDBRANCH   1  10
BRANCH   3  20
ATOM     20  C   UNL     1      -2.004  10.439  17.735  0.00  0.00    +0.000 A 
ATOM     21  C   UNL     1      -2.963  11.302  18.275  0.00  0.00    +0.000 A 
ATOM     22  C   UNL     1      -4.067  11.687  17.510  0.00  0.00    +0.000 A 
ATOM     23  C   UNL     1      -4.218  11.210  16.208  0.00  0.00    +0.000 A 
ATOM     24  C   UNL     1      -3.265  10.352  15.665  0.00  0.00    +0.000 A 
ATOM     25  C   UNL     1      -2.158   9.967  16.425  0.00  0.00    +0.000 A 
ENDBRANCH   3  20
BRANCH   6  26
ATOM     26  O   UNL     1      -0.388   9.140  22.332  0.00  0.00    +0.000 OA
BRANCH  26  27
ATOM     27  C   UNL     1      -0.431  10.127  23.375  0.00  0.00    +0.000 C 
BRANCH  27  28
ATOM     28  C   UNL     1      -1.164  11.368  22.924  0.00  0.00    +0.000 A 
ATOM     29  C   UNL     1      -2.482  11.625  23.323  0.00  0.00    +0.000 A 
ATOM     30  C   UNL     1      -3.140  12.782  22.899  0.00  0.00    +0.000 A 
ATOM     31  C   UNL     1      -2.480  13.703  22.086  0.00  0.00    +0.000 A 
ATOM     32  C   UNL     1      -1.159  13.475  21.709  0.00  0.00    +0.000 A 
ATOM     33  C   UNL     1      -0.502  12.318  22.130  0.00  0.00    +0.000 A 
ENDBRANCH  27  28
ENDBRANCH  26  27
ENDBRANCH   6  26
TORSDOF 8
ENDMDL
MODEL 6
REMARK VINA RESULT:      -7.8      0.472      1.021
REMARK  Name = 
REMARK  11 active torsions:
REMARK  status: ('A' for Active; 'I' for Inactive)
REMARK    1  A    between atoms: C_1  and  O_2
REMARK    2  A    between atoms: O_2  and  C_3
REMARK    3  A    between atoms: C_5  and  C_6
REMARK    4  A    between atoms: C_8  and  C_9
REMARK    5  A    between atoms: C_17  and  O_19
REMARK    6  A    between atoms: O_19  and  C_20
REMARK    7  A    between atoms: C_20  and  C_21
REMARK    8  A    between atoms: C_28  and  O_29
REMARK    9  A    between atoms: O_29  and  C_30
REMARK   10  A    between atoms: C_31  and  O_32
REMARK   11  A    between atoms: O_32  and  C_33
REMARK                            x       y       z     vdW  Elec       q    Type
REMARK                         _______ _______ _______ _____ _____    ______ ____
ROOT
ATOM      1  C   UNL     1       5.519   4.290  17.759  0.00  0.00    +0.000 C 
ATOM      2  C   UNL     1       5.319   3.704  16.368  0.00  0.00    +0.000 C 
ATOM      3  C   UNL     1       6.270   4.561  15.571  0.00  0.00    +0.000 C 
ATOM      4  N   UNL     1       6.916   5.460  16.252  0.00  0.00    +0.000 NA
ATOM      5  N   UNL     1       6.507   5.338  17.557  0.00  0.00    +0.000 N 
ATOM      6  C   UNL     1       7.063   6.075  18.589  0.00  0.00    +0.000 C 
ATOM      7  O   UNL     1       6.804   5.902  19.779  0.00  0.00    +0.000 OA
ENDROOT
BRANCH   1  10
ATOM      8  C   UNL     1       2.785   4.909  20.345  0.00  0.00    +0.000 A 
ATOM      9  C   UNL     1       3.799   4.284  19.595  0.00  0.00    +0.000 A 
ATOM     10  C   UNL     1       4.247   4.819  18.388  0.00  0.00    +0.000 A 
ATOM     11  C   UNL     1       3.566   5.919  17.863  0.00  0.00    +0.000 A 
ATOM     12  C   UNL     1       2.496   6.517  18.550  0.00  0.00    +0.000 A 
ATOM     13  C   UNL     1       2.100   6.026  19.814  0.00  0.00    +0.000 A 
BRANCH   8  15
ATOM     14  C   UNL     1       2.018   3.071  21.629  0.00  0.00    +0.000 C 
ATOM     15  O   UNL     1       2.469   4.430  21.594  0.00  0.00    +0.000 OA
ENDBRANCH   8  15
BRANCH  12  16
ATOM     16  O   UNL     1       1.999   7.584  17.841  0.00  0.00    +0.000 OA
ATOM     17  C   UNL     1       2.623   8.853  17.948  0.00  0.00    +0.000 C 
ENDBRANCH  12  16
BRANCH  13  18
ATOM     18  O   UNL     1       1.082   6.712  20.416  0.00  0.00    +0.000 OA
ATOM     19  C   UNL     1       1.309   7.880  21.181  0.00  0.00    +0.000 C 
ENDBRANCH  13  18
ENDBRANCH   1  10
BRANCH   3  20
ATOM     20  C   UNL     1       6.467   4.357  14.117  0.00  0.00    +0.000 A 
ATOM     21  C   UNL     1       7.477   5.022  13.414  0.00  0.00    +0.000 A 
ATOM     22  C   UNL     1       7.618   4.824  12.038  0.00  0.00    +0.000 A 
ATOM     23  C   UNL     1       6.751   3.966  11.361  0.00  0.00    +0.000 A 
ATOM     24  C   UNL     1       5.744   3.300  12.057  0.00  0.00    +0.000 A 
ATOM     25  C   UNL     1       5.603   3.493  13.432  0.00  0.00    +0.000 A 
ENDBRANCH   3  20
BRANCH   6  26
ATOM     26  O   UNL     1       7.925   7.030  18.137  0.00  0.00    +0.000 OA
BRANCH  26  27
ATOM     27  C   UNL     1       8.678   7.754  19.122  0.00  0.00    +0.000 C 
BRANCH  27  28
ATOM     28  C   UNL     1       8.758   9.223  18.781  0.00  0.00    +0.000 A 
ATOM     29  C   UNL     1       8.018   9.770  17.723  0.00  0.00    +0.000 A 
ATOM     30  C   UNL     1       8.101  11.132  17.428  0.00  0.00    +0.000 A 
ATOM     31  C   UNL     1       8.911  11.966  18.198  0.00  0.00    +0.000 A 
ATOM     32  C   UNL     1       9.626  11.441  19.271  0.00  0.00    +0.000 A 
ATOM     33  C   UNL     1       9.545  10.079  19.566  0.00  0.00    +0.000 A 
ENDBRANCH  27  28
ENDBRANCH  26  27
ENDBRANCH   6  26
TORSDOF 8
ENDMDL
MODEL 7
REMARK VINA RESULT:      -7.8      4.737      8.813
REMARK  Name = 
REMARK  11 active torsions:
REMARK  status: ('A' for Active; 'I' for Inactive)
REMARK    1  A    between atoms: C_1  and  O_2
REMARK    2  A    between atoms: O_2  and  C_3
REMARK    3  A    between atoms: C_5  and  C_6
REMARK    4  A    between atoms: C_8  and  C_9
REMARK    5  A    between atoms: C_17  and  O_19
REMARK    6  A    between atoms: O_19  and  C_20
REMARK    7  A    between atoms: C_20  and  C_21
REMARK    8  A    between atoms: C_28  and  O_29
REMARK    9  A    between atoms: O_29  and  C_30
REMARK   10  A    between atoms: C_31  and  O_32
REMARK   11  A    between atoms: O_32  and  C_33
REMARK                            x       y       z     vdW  Elec       q    Type
REMARK                         _______ _______ _______ _____ _____    ______ ____
ROOT
ATOM      1  C   UNL     1       1.386   9.439  19.233  0.00  0.00    +0.000 C 
ATOM      2  C   UNL     1       0.623   9.790  17.963  0.00  0.00    +0.000 C 
ATOM      3  C   UNL     1      -0.770   9.949  18.516  0.00  0.00    +0.000 C 
ATOM      4  N   UNL     1      -0.889   9.755  19.795  0.00  0.00    +0.000 NA
ATOM      5  N   UNL     1       0.364   9.451  20.267  0.00  0.00    +0.000 N 
ATOM      6  C   UNL     1       0.636   9.279  21.614  0.00  0.00    +0.000 C 
ATOM      7  O   UNL     1       1.766   9.126  22.077  0.00  0.00    +0.000 OA
ENDROOT
BRANCH   1  10
ATOM      8  C   UNL     1       2.259   5.791  19.922  0.00  0.00    +0.000 A 
ATOM      9  C   UNL     1       1.818   7.116  20.097  0.00  0.00    +0.000 A 
ATOM     10  C   UNL     1       2.109   8.109  19.163  0.00  0.00    +0.000 A 
ATOM     11  C   UNL     1       2.974   7.793  18.113  0.00  0.00    +0.000 A 
ATOM     12  C   UNL     1       3.496   6.498  17.958  0.00  0.00    +0.000 A 
ATOM     13  C   UNL     1       3.131   5.471  18.856  0.00  0.00    +0.000 A 
BRANCH   8  15
ATOM     14  C   UNL     1       0.875   3.896  20.251  0.00  0.00    +0.000 C 
ATOM     15  O   UNL     1       1.835   4.811  20.790  0.00  0.00    +0.000 OA
ENDBRANCH   8  15
BRANCH  12  16
ATOM     16  O   UNL     1       4.307   6.432  16.850  0.00  0.00    +0.000 OA
ATOM     17  C   UNL     1       5.666   6.825  16.949  0.00  0.00    +0.000 C 
ENDBRANCH  12  16
BRANCH  13  18
ATOM     18  O   UNL     1       3.657   4.239  18.582  0.00  0.00    +0.000 OA
ATOM     19  C   UNL     1       4.855   3.781  19.179  0.00  0.00    +0.000 C 
ENDBRANCH  13  18
ENDBRANCH   1  10
BRANCH   3  20
ATOM     20  C   UNL     1      -1.910  10.333  17.650  0.00  0.00    +0.000 A 
ATOM     21  C   UNL     1      -2.892  11.229  18.086  0.00  0.00    +0.000 A 
ATOM     22  C   UNL     1      -3.966  11.549  17.252  0.00  0.00    +0.000 A 
ATOM     23  C   UNL     1      -4.065  10.974  15.984  0.00  0.00    +0.000 A 
ATOM     24  C   UNL     1      -3.089  10.082  15.545  0.00  0.00    +0.000 A 
ATOM     25  C   UNL     1      -2.012   9.762  16.375  0.00  0.00    +0.000 A 
ENDBRANCH   3  20
BRANCH   6  26
ATOM     26  O   UNL     1      -0.496   9.281  22.375  0.00  0.00    +0.000 OA
BRANCH  26  27
ATOM     27  C   UNL     1      -0.584  10.265  23.418  0.00  0.00    +0.000 C 
BRANCH  27  28
ATOM     28  C   UNL     1      -1.283  11.513  22.936  0.00  0.00    +0.000 A 
ATOM     29  C   UNL     1      -2.606  11.799  23.300  0.00  0.00    +0.000 A 
ATOM     30  C   UNL     1      -3.232  12.962  22.847  0.00  0.00    +0.000 A 
ATOM     31  C   UNL     1      -2.537  13.861  22.041  0.00  0.00    +0.000 A 
ATOM     32  C   UNL     1      -1.212  13.606  21.698  0.00  0.00    +0.000 A 
ATOM     33  C   UNL     1      -0.586  12.442  22.148  0.00  0.00    +0.000 A 
ENDBRANCH  27  28
ENDBRANCH  26  27
ENDBRANCH   6  26
TORSDOF 8
ENDMDL
MODEL 8
REMARK VINA RESULT:      -7.6      4.696      8.817
REMARK  Name = 
REMARK  11 active torsions:
REMARK  status: ('A' for Active; 'I' for Inactive)
REMARK    1  A    between atoms: C_1  and  O_2
REMARK    2  A    between atoms: O_2  and  C_3
REMARK    3  A    between atoms: C_5  and  C_6
REMARK    4  A    between atoms: C_8  and  C_9
REMARK    5  A    between atoms: C_17  and  O_19
REMARK    6  A    between atoms: O_19  and  C_20
REMARK    7  A    between atoms: C_20  and  C_21
REMARK    8  A    between atoms: C_28  and  O_29
REMARK    9  A    between atoms: O_29  and  C_30
REMARK   10  A    between atoms: C_31  and  O_32
REMARK   11  A    between atoms: O_32  and  C_33
REMARK                            x       y       z     vdW  Elec       q    Type
REMARK                         _______ _______ _______ _____ _____    ______ ____
ROOT
ATOM      1  C   UNL     1       1.379   9.410  19.118  0.00  0.00    +0.000 C 
ATOM      2  C   UNL     1       0.560   9.804  17.896  0.00  0.00    +0.000 C 
ATOM      3  C   UNL     1      -0.807   9.940  18.516  0.00  0.00    +0.000 C 
ATOM      4  N   UNL     1      -0.869   9.702  19.792  0.00  0.00    +0.000 NA
ATOM      5  N   UNL     1       0.404   9.385  20.197  0.00  0.00    +0.000 N 
ATOM      6  C   UNL     1       0.736   9.168  21.524  0.00  0.00    +0.000 C 
ATOM      7  O   UNL     1       1.886   9.002  21.930  0.00  0.00    +0.000 OA
ENDROOT
BRANCH   1  10
ATOM      8  C   UNL     1       2.128   5.683  19.417  0.00  0.00    +0.000 A 
ATOM      9  C   UNL     1       1.671   6.982  19.707  0.00  0.00    +0.000 A 
ATOM     10  C   UNL     1       2.099   8.086  18.971  0.00  0.00    +0.000 A 
ATOM     11  C   UNL     1       3.106   7.894  18.023  0.00  0.00    +0.000 A 
ATOM     12  C   UNL     1       3.640   6.620  17.767  0.00  0.00    +0.000 A 
ATOM     13  C   UNL     1       3.145   5.490  18.454  0.00  0.00    +0.000 A 
BRANCH   8  15
ATOM     14  C   UNL     1       2.194   4.274  21.322  0.00  0.00    +0.000 C 
ATOM     15  O   UNL     1       1.578   4.605  20.072  0.00  0.00    +0.000 OA
ENDBRANCH   8  15
BRANCH  12  16
ATOM     16  O   UNL     1       4.605   6.686  16.790  0.00  0.00    +0.000 OA
ATOM     17  C   UNL     1       5.958   6.911  17.149  0.00  0.00    +0.000 C 
ENDBRANCH  12  16
BRANCH  13  18
ATOM     18  O   UNL     1       3.700   4.294  18.091  0.00  0.00    +0.000 OA
ATOM     19  C   UNL     1       4.792   3.728  18.790  0.00  0.00    +0.000 C 
ENDBRANCH  13  18
ENDBRANCH   1  10
BRANCH   3  20
ATOM     20  C   UNL     1      -1.985  10.351  17.716  0.00  0.00    +0.000 A 
ATOM     21  C   UNL     1      -2.164   9.913  16.399  0.00  0.00    +0.000 A 
ATOM     22  C   UNL     1      -3.274  10.340  15.665  0.00  0.00    +0.000 A 
ATOM     23  C   UNL     1      -4.204  11.206  16.242  0.00  0.00    +0.000 A 
ATOM     24  C   UNL     1      -4.031  11.643  17.553  0.00  0.00    +0.000 A 
ATOM     25  C   UNL     1      -2.925  11.216  18.290  0.00  0.00    +0.000 A 
ENDBRANCH   3  20
BRANCH   6  26
ATOM     26  O   UNL     1      -0.361   9.141  22.334  0.00  0.00    +0.000 OA
BRANCH  26  27
ATOM     27  C   UNL     1      -0.420  10.113  23.390  0.00  0.00    +0.000 C 
BRANCH  27  28
ATOM     28  C   UNL     1      -1.137  11.364  22.943  0.00  0.00    +0.000 A 
ATOM     29  C   UNL     1      -0.526  12.293  22.090  0.00  0.00    +0.000 A 
ATOM     30  C   UNL     1      -1.209  13.441  21.683  0.00  0.00    +0.000 A 
ATOM     31  C   UNL     1      -2.517  13.664  22.111  0.00  0.00    +0.000 A 
ATOM     32  C   UNL     1      -3.148  12.733  22.932  0.00  0.00    +0.000 A 
ATOM     33  C   UNL     1      -2.464  11.586  23.341  0.00  0.00    +0.000 A 
ENDBRANCH  27  28
ENDBRANCH  26  27
ENDBRANCH   6  26
TORSDOF 8
ENDMDL
MODEL 9
REMARK VINA RESULT:      -7.6      0.607      2.394
REMARK  Name = 
REMARK  11 active torsions:
REMARK  status: ('A' for Active; 'I' for Inactive)
REMARK    1  A    between atoms: C_1  and  O_2
REMARK    2  A    between atoms: O_2  and  C_3
REMARK    3  A    between atoms: C_5  and  C_6
REMARK    4  A    between atoms: C_8  and  C_9
REMARK    5  A    between atoms: C_17  and  O_19
REMARK    6  A    between atoms: O_19  and  C_20
REMARK    7  A    between atoms: C_20  and  C_21
REMARK    8  A    between atoms: C_28  and  O_29
REMARK    9  A    between atoms: O_29  and  C_30
REMARK   10  A    between atoms: C_31  and  O_32
REMARK   11  A    between atoms: O_32  and  C_33
REMARK                            x       y       z     vdW  Elec       q    Type
REMARK                         _______ _______ _______ _____ _____    ______ ____
ROOT
ATOM      1  C   UNL     1       5.944   4.518  18.209  0.00  0.00    +0.000 C 
ATOM      2  C   UNL     1       5.612   3.942  16.838  0.00  0.00    +0.000 C 
ATOM      3  C   UNL     1       6.548   4.746  15.971  0.00  0.00    +0.000 C 
ATOM      4  N   UNL     1       7.288   5.610  16.599  0.00  0.00    +0.000 NA
ATOM      5  N   UNL     1       6.968   5.511  17.930  0.00  0.00    +0.000 N 
ATOM      6  C   UNL     1       7.637   6.219  18.916  0.00  0.00    +0.000 C 
ATOM      7  O   UNL     1       7.455   6.062  20.122  0.00  0.00    +0.000 OA
ENDROOT
BRANCH   1  10
ATOM      8  C   UNL     1       3.083   6.899  19.039  0.00  0.00    +0.000 A 
ATOM      9  C   UNL     1       4.325   6.403  18.600  0.00  0.00    +0.000 A 
ATOM     10  C   UNL     1       4.751   5.115  18.925  0.00  0.00    +0.000 A 
ATOM     11  C   UNL     1       3.977   4.373  19.818  0.00  0.00    +0.000 A 
ATOM     12  C   UNL     1       2.771   4.873  20.337  0.00  0.00    +0.000 A 
ATOM     13  C   UNL     1       2.298   6.143  19.939  0.00  0.00    +0.000 A 
BRANCH   8  15
ATOM     14  C   UNL     1       1.692   8.056  17.508  0.00  0.00    +0.000 C 
ATOM     15  O   UNL     1       2.637   8.118  18.583  0.00  0.00    +0.000 OA
ENDBRANCH   8  15
BRANCH  12  16
ATOM     16  O   UNL     1       2.189   3.957  21.181  0.00  0.00    +0.000 OA
ATOM     17  C   UNL     1       2.356   2.570  20.938  0.00  0.00    +0.000 C 
ENDBRANCH  12  16
BRANCH  13  18
ATOM     18  O   UNL     1       1.091   6.510  20.466  0.00  0.00    +0.000 OA
ATOM     19  C   UNL     1       0.944   7.644  21.298  0.00  0.00    +0.000 C 
ENDBRANCH  13  18
ENDBRANCH   1  10
BRANCH   3  20
ATOM     20  C   UNL     1       6.628   4.530  14.507  0.00  0.00    +0.000 A 
ATOM     21  C   UNL     1       7.567   5.202  13.718  0.00  0.00    +0.000 A 
ATOM     22  C   UNL     1       7.597   4.992  12.336  0.00  0.00    +0.000 A 
ATOM     23  C   UNL     1       6.690   4.115  11.741  0.00  0.00    +0.000 A 
ATOM     24  C   UNL     1       5.754   3.443  12.523  0.00  0.00    +0.000 A 
ATOM     25  C   UNL     1       5.722   3.647  13.904  0.00  0.00    +0.000 A 
ENDBRANCH   3  20
BRANCH   6  26
ATOM     26  O   UNL     1       8.513   7.126  18.398  0.00  0.00    +0.000 OA
BRANCH  26  27
ATOM     27  C   UNL     1       7.956   8.260  17.714  0.00  0.00    +0.000 C 
BRANCH  27  28
ATOM     28  C   UNL     1       8.529   9.553  18.242  0.00  0.00    +0.000 A 
ATOM     29  C   UNL     1       8.414  10.752  17.525  0.00  0.00    +0.000 A 
ATOM     30  C   UNL     1       8.946  11.939  18.034  0.00  0.00    +0.000 A 
ATOM     31  C   UNL     1       9.584  11.943  19.273  0.00  0.00    +0.000 A 
ATOM     32  C   UNL     1       9.678  10.765  20.011  0.00  0.00    +0.000 A 
ATOM     33  C   UNL     1       9.147   9.578  19.501  0.00  0.00    +0.000 A 
ENDBRANCH  27  28
ENDBRANCH  26  27
ENDBRANCH   6  26
TORSDOF 8
ENDMDL
