MODEL 1
REMARK VINA RESULT:      -7.7      0.000      0.000
REMARK  Name = 
REMARK  5 active torsions:
REMARK  status: ('A' for Active; 'I' for Inactive)
REMARK    1  A    between atoms: C_1  and  O_2
REMARK    2  A    between atoms: O_2  and  C_3
REMARK    3  A    between atoms: C_5  and  O_6
REMARK    4  A    between atoms: O_6  and  C_7
REMARK    5  A    between atoms: C_9  and  C_10
REMARK                            x       y       z     vdW  Elec       q    Type
REMARK                         _______ _______ _______ _____ _____    ______ ____
ROOT
ATOM      1  C   UNL     1       4.192   4.135  17.796  0.00  0.00    +0.000 A 
ATOM      2  C   UNL     1       4.366   3.534  18.981  0.00  0.00    +0.000 A 
ATOM      3  C   UNL     1       3.192   3.233  19.784  0.00  0.00    +0.000 A 
ATOM      4  C   UNL     1       3.314   2.748  21.091  0.00  0.00    +0.000 A 
ATOM      5  C   UNL     1       2.172   2.487  21.853  0.00  0.00    +0.000 A 
ATOM      6  C   UNL     1       0.904   2.691  21.309  0.00  0.00    +0.000 A 
ATOM      7  C   UNL     1       0.776   3.164  20.004  0.00  0.00    +0.000 A 
ATOM      8  C   UNL     1       1.920   3.443  19.248  0.00  0.00    +0.000 A 
ATOM      9  C   UNL     1       1.773   3.984  17.878  0.00  0.00    +0.000 A 
ATOM     10  O   UNL     1       0.679   4.058  17.334  0.00  0.00    +0.000 OA
ATOM     11  O   UNL     1       2.914   4.430  17.274  0.00  0.00    +0.000 OA
ENDROOT
BRANCH   1  16
ATOM     12  C   UNL     1       7.125   5.994  16.309  0.00  0.00    +0.000 A 
ATOM     13  C   UNL     1       7.273   5.311  15.095  0.00  0.00    +0.000 A 
ATOM     14  C   UNL     1       6.454   4.233  14.772  0.00  0.00    +0.000 A 
ATOM     15  C   UNL     1       5.470   3.826  15.672  0.00  0.00    +0.000 A 
ATOM     16  C   UNL     1       5.297   4.497  16.891  0.00  0.00    +0.000 A 
ATOM     17  C   UNL     1       6.140   5.579  17.203  0.00  0.00    +0.000 A 
BRANCH  12  19
ATOM     18  C   UNL     1       7.740   7.904  17.590  0.00  0.00    +0.000 C 
ATOM     19  O   UNL     1       7.982   7.046  16.482  0.00  0.00    +0.000 OA
ENDBRANCH  12  19
BRANCH  14  20
ATOM     20  O   UNL     1       6.681   3.672  13.539  0.00  0.00    +0.000 OA
ATOM     21  C   UNL     1       5.571   3.582  12.656  0.00  0.00    +0.000 C 
ENDBRANCH  14  20
ENDBRANCH   1  16
TORSDOF 3
ENDMDL
MODEL 2
REMARK VINA RESULT:      -7.6      0.131      2.791
REMARK  Name = 
REMARK  5 active torsions:
REMARK  status: ('A' for Active; 'I' for Inactive)
REMARK    1  A    between atoms: C_1  and  O_2
REMARK    2  A    between atoms: O_2  and  C_3
REMARK    3  A    between atoms: C_5  and  O_6
REMARK    4  A    between atoms: O_6  and  C_7
REMARK    5  A    between atoms: C_9  and  C_10
REMARK                            x       y       z     vdW  Elec       q    Type
REMARK                         _______ _______ _______ _____ _____    ______ ____
ROOT
ATOM      1  C   UNL     1       4.089   4.258  17.729  0.00  0.00    +0.000 A 
ATOM      2  C   UNL     1       4.332   3.657  18.902  0.00  0.00    +0.000 A 
ATOM      3  C   UNL     1       3.202   3.301  19.745  0.00  0.00    +0.000 A 
ATOM      4  C   UNL     1       3.393   2.812  21.043  0.00  0.00    +0.000 A 
ATOM      5  C   UNL     1       2.293   2.497  21.844  0.00  0.00    +0.000 A 
ATOM      6  C   UNL     1       0.998   2.651  21.349  0.00  0.00    +0.000 A 
ATOM      7  C   UNL     1       0.801   3.126  20.054  0.00  0.00    +0.000 A 
ATOM      8  C   UNL     1       1.904   3.460  19.258  0.00  0.00    +0.000 A 
ATOM      9  C   UNL     1       1.682   4.003  17.900  0.00  0.00    +0.000 A 
ATOM     10  O   UNL     1       0.567   4.034  17.396  0.00  0.00    +0.000 OA
ATOM     11  O   UNL     1       2.781   4.502  17.257  0.00  0.00    +0.000 OA
ENDROOT
BRANCH   1  16
ATOM     12  C   UNL     1       6.409   4.277  14.749  0.00  0.00    +0.000 A 
ATOM     13  C   UNL     1       7.258   5.339  15.091  0.00  0.00    +0.000 A 
ATOM     14  C   UNL     1       7.060   6.068  16.260  0.00  0.00    +0.000 A 
ATOM     15  C   UNL     1       6.002   5.737  17.104  0.00  0.00    +0.000 A 
ATOM     16  C   UNL     1       5.143   4.674  16.788  0.00  0.00    +0.000 A 
ATOM     17  C   UNL     1       5.353   3.954  15.599  0.00  0.00    +0.000 A 
BRANCH  12  19
ATOM     18  C   UNL     1       5.714   3.509  12.606  0.00  0.00    +0.000 C 
ATOM     19  O   UNL     1       6.736   3.635  13.587  0.00  0.00    +0.000 OA
ENDBRANCH  12  19
BRANCH  14  20
ATOM     20  O   UNL     1       7.980   7.061  16.493  0.00  0.00    +0.000 OA
ATOM     21  C   UNL     1       7.746   7.908  17.611  0.00  0.00    +0.000 C 
ENDBRANCH  14  20
ENDBRANCH   1  16
TORSDOF 3
ENDMDL
MODEL 3
REMARK VINA RESULT:      -7.5      1.484      2.104
REMARK  Name = 
REMARK  5 active torsions:
REMARK  status: ('A' for Active; 'I' for Inactive)
REMARK    1  A    between atoms: C_1  and  O_2
REMARK    2  A    between atoms: O_2  and  C_3
REMARK    3  A    between atoms: C_5  and  O_6
REMARK    4  A    between atoms: O_6  and  C_7
REMARK    5  A    between atoms: C_9  and  C_10
REMARK                            x       y       z     vdW  Elec       q    Type
REMARK                         _______ _______ _______ _____ _____    ______ ____
ROOT
ATOM      1  C   UNL     1       4.680   3.861  18.276  0.00  0.00    +0.000 A 
ATOM      2  C   UNL     1       3.446   4.346  18.471  0.00  0.00    +0.000 A 
ATOM      3  C   UNL     1       2.640   3.780  19.540  0.00  0.00    +0.000 A 
ATOM      4  C   UNL     1       1.294   4.134  19.698  0.00  0.00    +0.000 A 
ATOM      5  C   UNL     1       0.533   3.560  20.719  0.00  0.00    +0.000 A 
ATOM      6  C   UNL     1       1.112   2.646  21.598  0.00  0.00    +0.000 A 
ATOM      7  C   UNL     1       2.454   2.298  21.454  0.00  0.00    +0.000 A 
ATOM      8  C   UNL     1       3.213   2.858  20.419  0.00  0.00    +0.000 A 
ATOM      9  C   UNL     1       4.625   2.450  20.249  0.00  0.00    +0.000 A 
ATOM     10  O   UNL     1       5.192   1.746  21.075  0.00  0.00    +0.000 OA
ATOM     11  O   UNL     1       5.246   2.869  19.106  0.00  0.00    +0.000 OA
ENDROOT
BRANCH   1  16
ATOM     12  C   UNL     1       7.155   6.023  16.414  0.00  0.00    +0.000 A 
ATOM     13  C   UNL     1       7.183   5.371  15.174  0.00  0.00    +0.000 A 
ATOM     14  C   UNL     1       6.434   4.219  14.951  0.00  0.00    +0.000 A 
ATOM     15  C   UNL     1       5.643   3.706  15.978  0.00  0.00    +0.000 A 
ATOM     16  C   UNL     1       5.593   4.343  17.226  0.00  0.00    +0.000 A 
ATOM     17  C   UNL     1       6.362   5.502  17.435  0.00  0.00    +0.000 A 
BRANCH  12  19
ATOM     18  C   UNL     1       7.790   7.955  17.651  0.00  0.00    +0.000 C 
ATOM     19  O   UNL     1       7.919   7.155  16.483  0.00  0.00    +0.000 OA
ENDBRANCH  12  19
BRANCH  14  20
ATOM     20  O   UNL     1       6.526   3.697  13.684  0.00  0.00    +0.000 OA
ATOM     21  C   UNL     1       5.352   3.740  12.881  0.00  0.00    +0.000 C 
ENDBRANCH  14  20
ENDBRANCH   1  16
TORSDOF 3
ENDMDL
MODEL 4
REMARK VINA RESULT:      -7.5      4.451      5.738
REMARK  Name = 
REMARK  5 active torsions:
REMARK  status: ('A' for Active; 'I' for Inactive)
REMARK    1  A    between atoms: C_1  and  O_2
REMARK    2  A    between atoms: O_2  and  C_3
REMARK    3  A    between atoms: C_5  and  O_6
REMARK    4  A    between atoms: O_6  and  C_7
REMARK    5  A    between atoms: C_9  and  C_10
REMARK                            x       y       z     vdW  Elec       q    Type
REMARK                         _______ _______ _______ _____ _____    ______ ____
ROOT
ATOM      1  C   UNL     1       2.337   6.995  19.700  0.00  0.00    +0.000 A 
ATOM      2  C   UNL     1       1.602   7.298  20.778  0.00  0.00    +0.000 A 
ATOM      3  C   UNL     1       0.985   8.612  20.849  0.00  0.00    +0.000 A 
ATOM      4  C   UNL     1       0.335   9.046  22.011  0.00  0.00    +0.000 A 
ATOM      5  C   UNL     1      -0.231  10.322  22.064  0.00  0.00    +0.000 A 
ATOM      6  C   UNL     1      -0.169  11.164  20.954  0.00  0.00    +0.000 A 
ATOM      7  C   UNL     1       0.467  10.734  19.791  0.00  0.00    +0.000 A 
ATOM      8  C   UNL     1       1.052   9.463  19.744  0.00  0.00    +0.000 A 
ATOM      9  C   UNL     1       1.760   9.033  18.518  0.00  0.00    +0.000 A 
ATOM     10  O   UNL     1       1.726   9.699  17.492  0.00  0.00    +0.000 OA
ATOM     11  O   UNL     1       2.483   7.877  18.607  0.00  0.00    +0.000 OA
ENDROOT
BRANCH   1  16
ATOM     12  C   UNL     1       5.064   4.450  19.101  0.00  0.00    +0.000 A 
ATOM     13  C   UNL     1       4.300   3.283  18.961  0.00  0.00    +0.000 A 
ATOM     14  C   UNL     1       2.915   3.311  19.094  0.00  0.00    +0.000 A 
ATOM     15  C   UNL     1       2.277   4.519  19.371  0.00  0.00    +0.000 A 
ATOM     16  C   UNL     1       3.018   5.702  19.510  0.00  0.00    +0.000 A 
ATOM     17  C   UNL     1       4.417   5.653  19.379  0.00  0.00    +0.000 A 
BRANCH  12  19
ATOM     18  C   UNL     1       6.950   4.676  17.667  0.00  0.00    +0.000 C 
ATOM     19  O   UNL     1       6.408   4.278  18.920  0.00  0.00    +0.000 OA
ENDBRANCH  12  19
BRANCH  14  20
ATOM     20  O   UNL     1       2.283   2.107  18.902  0.00  0.00    +0.000 OA
ATOM     21  C   UNL     1       0.867   2.133  18.772  0.00  0.00    +0.000 C 
ENDBRANCH  14  20
ENDBRANCH   1  16
TORSDOF 3
ENDMDL
MODEL 5
REMARK VINA RESULT:      -7.5      5.026      6.388
REMARK  Name = 
REMARK  5 active torsions:
REMARK  status: ('A' for Active; 'I' for Inactive)
REMARK    1  A    between atoms: C_1  and  O_2
REMARK    2  A    between atoms: O_2  and  C_3
REMARK    3  A    between atoms: C_5  and  O_6
REMARK    4  A    between atoms: O_6  and  C_7
REMARK    5  A    between atoms: C_9  and  C_10
REMARK                            x       y       z     vdW  Elec       q    Type
REMARK                         _______ _______ _______ _____ _____    ______ ____
ROOT
ATOM      1  C   UNL     1       1.747   7.731  20.065  0.00  0.00    +0.000 A 
ATOM      2  C   UNL     1       1.102   7.816  21.237  0.00  0.00    +0.000 A 
ATOM      3  C   UNL     1       0.401   9.050  21.554  0.00  0.00    +0.000 A 
ATOM      4  C   UNL     1      -0.161   9.260  22.819  0.00  0.00    +0.000 A 
ATOM      5  C   UNL     1      -0.810  10.462  23.108  0.00  0.00    +0.000 A 
ATOM      6  C   UNL     1      -0.918  11.454  22.133  0.00  0.00    +0.000 A 
ATOM      7  C   UNL     1      -0.371  11.247  20.868  0.00  0.00    +0.000 A 
ATOM      8  C   UNL     1       0.297  10.049  20.584  0.00  0.00    +0.000 A 
ATOM      9  C   UNL     1       0.910   9.857  19.252  0.00  0.00    +0.000 A 
ATOM     10  O   UNL     1       0.727  10.655  18.341  0.00  0.00    +0.000 OA
ATOM     11  O   UNL     1       1.720   8.766  19.106  0.00  0.00    +0.000 OA
ENDROOT
BRANCH   1  16
ATOM     12  C   UNL     1       3.901   5.436  17.976  0.00  0.00    +0.000 A 
ATOM     13  C   UNL     1       3.770   4.239  18.692  0.00  0.00    +0.000 A 
ATOM     14  C   UNL     1       3.020   4.180  19.863  0.00  0.00    +0.000 A 
ATOM     15  C   UNL     1       2.388   5.331  20.330  0.00  0.00    +0.000 A 
ATOM     16  C   UNL     1       2.498   6.541  19.629  0.00  0.00    +0.000 A 
ATOM     17  C   UNL     1       3.266   6.582  18.452  0.00  0.00    +0.000 A 
BRANCH  12  19
ATOM     18  C   UNL     1       4.996   6.557  16.184  0.00  0.00    +0.000 C 
ATOM     19  O   UNL     1       4.646   5.341  16.833  0.00  0.00    +0.000 OA
ENDBRANCH  12  19
BRANCH  14  20
ATOM     20  O   UNL     1       2.946   2.941  20.449  0.00  0.00    +0.000 OA
ATOM     21  C   UNL     1       2.045   2.795  21.540  0.00  0.00    +0.000 C 
ENDBRANCH  14  20
ENDBRANCH   1  16
TORSDOF 3
ENDMDL
MODEL 6
REMARK VINA RESULT:      -7.4      2.063      6.824
REMARK  Name = 
REMARK  5 active torsions:
REMARK  status: ('A' for Active; 'I' for Inactive)
REMARK    1  A    between atoms: C_1  and  O_2
REMARK    2  A    between atoms: O_2  and  C_3
REMARK    3  A    between atoms: C_5  and  O_6
REMARK    4  A    between atoms: O_6  and  C_7
REMARK    5  A    between atoms: C_9  and  C_10
REMARK                            x       y       z     vdW  Elec       q    Type
REMARK                         _______ _______ _______ _____ _____    ______ ____
ROOT
ATOM      1  C   UNL     1       4.652   4.940  16.790  0.00  0.00    +0.000 A 
ATOM      2  C   UNL     1       4.567   4.127  15.728  0.00  0.00    +0.000 A 
ATOM      3  C   UNL     1       5.556   4.262  14.671  0.00  0.00    +0.000 A 
ATOM      4  C   UNL     1       5.435   3.552  13.471  0.00  0.00    +0.000 A 
ATOM      5  C   UNL     1       6.385   3.714  12.460  0.00  0.00    +0.000 A 
ATOM      6  C   UNL     1       7.470   4.571  12.647  0.00  0.00    +0.000 A 
ATOM      7  C   UNL     1       7.602   5.273  13.844  0.00  0.00    +0.000 A 
ATOM      8  C   UNL     1       6.639   5.125  14.850  0.00  0.00    +0.000 A 
ATOM      9  C   UNL     1       6.767   5.906  16.100  0.00  0.00    +0.000 A 
ATOM     10  O   UNL     1       7.768   6.570  16.341  0.00  0.00    +0.000 OA
ATOM     11  O   UNL     1       5.696   5.877  16.948  0.00  0.00    +0.000 OA
ENDROOT
BRANCH   1  16
ATOM     12  C   UNL     1       2.443   6.093  19.630  0.00  0.00    +0.000 A 
ATOM     13  C   UNL     1       2.078   4.860  20.187  0.00  0.00    +0.000 A 
ATOM     14  C   UNL     1       2.514   3.662  19.629  0.00  0.00    +0.000 A 
ATOM     15  C   UNL     1       3.326   3.688  18.496  0.00  0.00    +0.000 A 
ATOM     16  C   UNL     1       3.711   4.909  17.923  0.00  0.00    +0.000 A 
ATOM     17  C   UNL     1       3.255   6.109  18.496  0.00  0.00    +0.000 A 
BRANCH  12  19
ATOM     18  C   UNL     1       1.746   8.367  19.533  0.00  0.00    +0.000 C 
ATOM     19  O   UNL     1       1.964   7.186  20.296  0.00  0.00    +0.000 OA
ENDBRANCH  12  19
BRANCH  14  20
ATOM     20  O   UNL     1       2.111   2.527  20.290  0.00  0.00    +0.000 OA
ATOM     21  C   UNL     1       1.543   2.700  21.582  0.00  0.00    +0.000 C 
ENDBRANCH  14  20
ENDBRANCH   1  16
TORSDOF 3
ENDMDL
MODEL 7
REMARK VINA RESULT:      -7.4      2.093      7.083
REMARK  Name = 
REMARK  5 active torsions:
REMARK  status: ('A' for Active; 'I' for Inactive)
REMARK    1  A    between atoms: C_1  and  O_2
REMARK    2  A    between atoms: O_2  and  C_3
REMARK    3  A    between atoms: C_5  and  O_6
REMARK    4  A    between atoms: O_6  and  C_7
REMARK    5  A    between atoms: C_9  and  C_10
REMARK                            x       y       z     vdW  Elec       q    Type
REMARK                         _______ _______ _______ _____ _____    ______ ____
ROOT
ATOM      1  C   UNL     1       4.634   5.011  17.006  0.00  0.00    +0.000 A 
ATOM      2  C   UNL     1       4.522   4.176  15.964  0.00  0.00    +0.000 A 
ATOM      3  C   UNL     1       5.486   4.286  14.881  0.00  0.00    +0.000 A 
ATOM      4  C   UNL     1       5.334   3.551  13.699  0.00  0.00    +0.000 A 
ATOM      5  C   UNL     1       6.260   3.689  12.663  0.00  0.00    +0.000 A 
ATOM      6  C   UNL     1       7.351   4.546  12.805  0.00  0.00    +0.000 A 
ATOM      7  C   UNL     1       7.514   5.273  13.984  0.00  0.00    +0.000 A 
ATOM      8  C   UNL     1       6.575   5.149  15.015  0.00  0.00    +0.000 A 
ATOM      9  C   UNL     1       6.735   5.956  16.245  0.00  0.00    +0.000 A 
ATOM     10  O   UNL     1       7.743   6.621  16.448  0.00  0.00    +0.000 OA
ATOM     11  O   UNL     1       5.685   5.947  17.119  0.00  0.00    +0.000 OA
ENDROOT
BRANCH   1  16
ATOM     12  C   UNL     1       2.262   3.782  19.676  0.00  0.00    +0.000 A 
ATOM     13  C   UNL     1       1.843   5.001  20.227  0.00  0.00    +0.000 A 
ATOM     14  C   UNL     1       2.350   6.211  19.764  0.00  0.00    +0.000 A 
ATOM     15  C   UNL     1       3.290   6.211  18.734  0.00  0.00    +0.000 A 
ATOM     16  C   UNL     1       3.720   5.006  18.161  0.00  0.00    +0.000 A 
ATOM     17  C   UNL     1       3.203   3.793  18.648  0.00  0.00    +0.000 A 
BRANCH  12  19
ATOM     18  C   UNL     1       1.503   2.645  21.624  0.00  0.00    +0.000 C 
ATOM     19  O   UNL     1       1.663   2.676  20.212  0.00  0.00    +0.000 OA
ENDBRANCH  12  19
BRANCH  14  20
ATOM     20  O   UNL     1       1.833   7.332  20.367  0.00  0.00    +0.000 OA
ATOM     21  C   UNL     1       1.686   8.491  19.556  0.00  0.00    +0.000 C 
ENDBRANCH  14  20
ENDBRANCH   1  16
TORSDOF 3
ENDMDL
MODEL 8
REMARK VINA RESULT:      -7.4      4.850      7.390
REMARK  Name = 
REMARK  5 active torsions:
REMARK  status: ('A' for Active; 'I' for Inactive)
REMARK    1  A    between atoms: C_1  and  O_2
REMARK    2  A    between atoms: O_2  and  C_3
REMARK    3  A    between atoms: C_5  and  O_6
REMARK    4  A    between atoms: O_6  and  C_7
REMARK    5  A    between atoms: C_9  and  C_10
REMARK                            x       y       z     vdW  Elec       q    Type
REMARK                         _______ _______ _______ _____ _____    ______ ____
ROOT
ATOM      1  C   UNL     1       2.599   7.205  18.663  0.00  0.00    +0.000 A 
ATOM      2  C   UNL     1       3.442   7.430  17.646  0.00  0.00    +0.000 A 
ATOM      3  C   UNL     1       4.138   6.296  17.059  0.00  0.00    +0.000 A 
ATOM      4  C   UNL     1       5.141   6.480  16.101  0.00  0.00    +0.000 A 
ATOM      5  C   UNL     1       5.812   5.377  15.567  0.00  0.00    +0.000 A 
ATOM      6  C   UNL     1       5.474   4.086  15.972  0.00  0.00    +0.000 A 
ATOM      7  C   UNL     1       4.467   3.896  16.917  0.00  0.00    +0.000 A 
ATOM      8  C   UNL     1       3.808   5.002  17.467  0.00  0.00    +0.000 A 
ATOM      9  C   UNL     1       2.771   4.791  18.500  0.00  0.00    +0.000 A 
ATOM     10  O   UNL     1       2.369   3.670  18.785  0.00  0.00    +0.000 OA
ATOM     11  O   UNL     1       2.316   5.908  19.143  0.00  0.00    +0.000 OA
ENDROOT
BRANCH   1  16
ATOM     12  C   UNL     1       0.703   9.080  21.339  0.00  0.00    +0.000 A 
ATOM     13  C   UNL     1       0.240  10.179  20.603  0.00  0.00    +0.000 A 
ATOM     14  C   UNL     1       0.567  10.332  19.259  0.00  0.00    +0.000 A 
ATOM     15  C   UNL     1       1.368   9.378  18.634  0.00  0.00    +0.000 A 
ATOM     16  C   UNL     1       1.839   8.266  19.347  0.00  0.00    +0.000 A 
ATOM     17  C   UNL     1       1.505   8.132  20.707  0.00  0.00    +0.000 A 
BRANCH  12  19
ATOM     18  C   UNL     1      -0.616  10.064  23.059  0.00  0.00    +0.000 C 
ATOM     19  O   UNL     1       0.284   9.046  22.640  0.00  0.00    +0.000 OA
ENDBRANCH  12  19
BRANCH  14  20
ATOM     20  O   UNL     1       0.022  11.434  18.646  0.00  0.00    +0.000 OA
ATOM     21  C   UNL     1      -0.983  12.141  19.361  0.00  0.00    +0.000 C 
ENDBRANCH  14  20
ENDBRANCH   1  16
TORSDOF 3
ENDMDL
MODEL 9
REMARK VINA RESULT:      -7.4      4.815      7.396
REMARK  Name = 
REMARK  5 active torsions:
REMARK  status: ('A' for Active; 'I' for Inactive)
REMARK    1  A    between atoms: C_1  and  O_2
REMARK    2  A    between atoms: O_2  and  C_3
REMARK    3  A    between atoms: C_5  and  O_6
REMARK    4  A    between atoms: O_6  and  C_7
REMARK    5  A    between atoms: C_9  and  C_10
REMARK                            x       y       z     vdW  Elec       q    Type
REMARK                         _______ _______ _______ _____ _____    ______ ____
ROOT
ATOM      1  C   UNL     1       2.637   7.127  18.589  0.00  0.00    +0.000 A 
ATOM      2  C   UNL     1       3.532   7.369  17.622  0.00  0.00    +0.000 A 
ATOM      3  C   UNL     1       4.230   6.241  17.027  0.00  0.00    +0.000 A 
ATOM      4  C   UNL     1       5.282   6.435  16.123  0.00  0.00    +0.000 A 
ATOM      5  C   UNL     1       5.953   5.337  15.581  0.00  0.00    +0.000 A 
ATOM      6  C   UNL     1       5.569   4.040  15.922  0.00  0.00    +0.000 A 
ATOM      7  C   UNL     1       4.515   3.840  16.813  0.00  0.00    +0.000 A 
ATOM      8  C   UNL     1       3.855   4.941  17.371  0.00  0.00    +0.000 A 
ATOM      9  C   UNL     1       2.765   4.717  18.347  0.00  0.00    +0.000 A 
ATOM     10  O   UNL     1       2.327   3.596  18.572  0.00  0.00    +0.000 OA
ATOM     11  O   UNL     1       2.305   5.821  19.008  0.00  0.00    +0.000 OA
ENDROOT
BRANCH   1  16
ATOM     12  C   UNL     1       0.825  10.378  19.236  0.00  0.00    +0.000 A 
ATOM     13  C   UNL     1       0.578  10.265  20.611  0.00  0.00    +0.000 A 
ATOM     14  C   UNL     1       0.963   9.131  21.319  0.00  0.00    +0.000 A 
ATOM     15  C   UNL     1       1.605   8.090  20.650  0.00  0.00    +0.000 A 
ATOM     16  C   UNL     1       1.869   8.181  19.276  0.00  0.00    +0.000 A 
ATOM     17  C   UNL     1       1.465   9.331  18.575  0.00  0.00    +0.000 A 
BRANCH  12  19
ATOM     18  C   UNL     1      -0.727  12.183  19.247  0.00  0.00    +0.000 C 
ATOM     19  O   UNL     1       0.414  11.556  18.676  0.00  0.00    +0.000 OA
ENDBRANCH  12  19
BRANCH  14  20
ATOM     20  O   UNL     1       0.692   9.160  22.665  0.00  0.00    +0.000 OA
ATOM     21  C   UNL     1      -0.499   9.824  23.069  0.00  0.00    +0.000 C 
ENDBRANCH  14  20
ENDBRANCH   1  16
TORSDOF 3
ENDMDL
