MODEL 1
REMARK VINA RESULT:      -7.5      0.000      0.000
REMARK  Name = 
REMARK  4 active torsions:
REMARK  status: ('A' for Active; 'I' for Inactive)
REMARK    1  A    between atoms: C_1  and  C_2
REMARK    2  A    between atoms: N_9  and  C_10
REMARK    3  A    between atoms: C_10  and  C_11
REMARK    4  A    between atoms: C_13  and  C_14
REMARK                            x       y       z     vdW  Elec       q    Type
REMARK                         _______ _______ _______ _____ _____    ______ ____
ROOT
ATOM      1  C   UNL     1       6.327   4.034  13.419  0.00  0.00    +0.000 C 
ATOM      2  C   UNL     1       6.232   4.275  14.892  0.00  0.00    +0.000 A 
ATOM      3  N   UNL     1       7.390   4.386  15.576  0.00  0.00    +0.000 NA
ATOM      4  C   UNL     1       7.280   4.618  16.895  0.00  0.00    +0.000 A 
ATOM      5  C   UNL     1       6.078   4.749  17.550  0.00  0.00    +0.000 A 
ATOM      6  C   UNL     1       4.944   4.594  16.769  0.00  0.00    +0.000 A 
ATOM      7  N   UNL     1       5.009   4.376  15.436  0.00  0.00    +0.000 NA
ATOM      8  C   UNL     1       3.566   4.742  17.391  0.00  0.00    +0.000 C 
ATOM      9  N   UNL     1       3.551   4.624  18.872  0.00  0.00    +0.000 NA
ATOM     10  C   UNL     1       4.596   5.494  19.437  0.00  0.00    +0.000 C 
ATOM     11  C   UNL     1       5.986   4.982  19.026  0.00  0.00    +0.000 C 
ENDROOT
BRANCH   9  12
ATOM     12  C   UNL     1       2.228   4.991  19.415  0.00  0.00    +0.000 C 
BRANCH  12  13
ATOM     13  C   UNL     1       2.046   6.446  19.700  0.00  0.00    +0.000 A 
ATOM     14  N   UNL     1       1.611   7.021  20.800  0.00  0.00    +0.000 NA
ATOM     15  C   UNL     1       1.430   8.324  20.394  0.00  0.00    +0.000 A 
ATOM     16  N   UNL     1       1.814   8.568  19.131  0.00  0.00    +0.000 NA
ATOM     17  O   UNL     1       2.222   7.316  18.666  0.00  0.00    +0.000 OA
BRANCH  15  18
ATOM     18  C   UNL     1       0.737   9.324  21.264  0.00  0.00    +0.000 A 
ATOM     19  C   UNL     1       0.180   9.012  22.487  0.00  0.00    +0.000 A 
ATOM     20  C   UNL     1      -0.513  10.118  23.062  0.00  0.00    +0.000 A 
ATOM     21  C   UNL     1      -0.458  11.232  22.254  0.00  0.00    +0.000 A 
ATOM     22  S   UNL     1       0.467  10.956  20.841  0.00  0.00    +0.000 S 
ENDBRANCH  15  18
ENDBRANCH  12  13
ENDBRANCH   9  12
TORSDOF 3
ENDMDL
MODEL 2
REMARK VINA RESULT:      -7.1      3.116      8.585
REMARK  Name = 
REMARK  4 active torsions:
REMARK  status: ('A' for Active; 'I' for Inactive)
REMARK    1  A    between atoms: C_1  and  C_2
REMARK    2  A    between atoms: N_9  and  C_10
REMARK    3  A    between atoms: C_10  and  C_11
REMARK    4  A    between atoms: C_13  and  C_14
REMARK                            x       y       z     vdW  Elec       q    Type
REMARK                         _______ _______ _______ _____ _____    ______ ____
ROOT
ATOM      1  C   UNL     1      -0.372   9.385  22.780  0.00  0.00    +0.000 C 
ATOM      2  C   UNL     1       0.285   9.179  21.453  0.00  0.00    +0.000 A 
ATOM      3  N   UNL     1       0.018  10.080  20.484  0.00  0.00    +0.000 NA
ATOM      4  C   UNL     1       0.632   9.883  19.306  0.00  0.00    +0.000 A 
ATOM      5  C   UNL     1       1.496   8.842  19.058  0.00  0.00    +0.000 A 
ATOM      6  C   UNL     1       1.688   7.955  20.105  0.00  0.00    +0.000 A 
ATOM      7  N   UNL     1       1.102   8.123  21.312  0.00  0.00    +0.000 NA
ATOM      8  C   UNL     1       2.641   6.782  19.943  0.00  0.00    +0.000 C 
ATOM      9  N   UNL     1       2.963   6.450  18.532  0.00  0.00    +0.000 NA
ATOM     10  C   UNL     1       3.348   7.681  17.821  0.00  0.00    +0.000 C 
ATOM     11  C   UNL     1       2.146   8.634  17.726  0.00  0.00    +0.000 C 
ENDROOT
BRANCH   9  12
ATOM     12  C   UNL     1       4.049   5.453  18.461  0.00  0.00    +0.000 C 
BRANCH  12  13
ATOM     13  C   UNL     1       4.917   5.554  17.249  0.00  0.00    +0.000 A 
ATOM     14  N   UNL     1       4.700   5.087  16.039  0.00  0.00    +0.000 NA
ATOM     15  C   UNL     1       5.924   5.266  15.435  0.00  0.00    +0.000 A 
ATOM     16  N   UNL     1       6.832   5.890  16.200  0.00  0.00    +0.000 NA
ATOM     17  O   UNL     1       6.165   6.080  17.411  0.00  0.00    +0.000 OA
BRANCH  15  18
ATOM     18  C   UNL     1       6.224   4.680  14.091  0.00  0.00    +0.000 A 
ATOM     19  C   UNL     1       5.411   3.759  13.464  0.00  0.00    +0.000 A 
ATOM     20  C   UNL     1       5.979   3.281  12.245  0.00  0.00    +0.000 A 
ATOM     21  C   UNL     1       7.203   3.858  11.990  0.00  0.00    +0.000 A 
ATOM     22  S   UNL     1       7.636   5.003  13.187  0.00  0.00    +0.000 S 
ENDBRANCH  15  18
ENDBRANCH  12  13
ENDBRANCH   9  12
TORSDOF 3
ENDMDL
MODEL 3
REMARK VINA RESULT:      -7.0      2.565      3.884
REMARK  Name = 
REMARK  4 active torsions:
REMARK  status: ('A' for Active; 'I' for Inactive)
REMARK    1  A    between atoms: C_1  and  C_2
REMARK    2  A    between atoms: N_9  and  C_10
REMARK    3  A    between atoms: C_10  and  C_11
REMARK    4  A    between atoms: C_13  and  C_14
REMARK                            x       y       z     vdW  Elec       q    Type
REMARK                         _______ _______ _______ _____ _____    ______ ____
ROOT
ATOM      1  C   UNL     1       1.532   2.509  21.552  0.00  0.00    +0.000 C 
ATOM      2  C   UNL     1       2.419   3.307  20.650  0.00  0.00    +0.000 A 
ATOM      3  N   UNL     1       3.636   2.795  20.370  0.00  0.00    +0.000 NA
ATOM      4  C   UNL     1       4.409   3.521  19.546  0.00  0.00    +0.000 A 
ATOM      5  C   UNL     1       4.021   4.719  18.991  0.00  0.00    +0.000 A 
ATOM      6  C   UNL     1       2.765   5.175  19.357  0.00  0.00    +0.000 A 
ATOM      7  N   UNL     1       1.948   4.469  20.171  0.00  0.00    +0.000 NA
ATOM      8  C   UNL     1       2.231   6.477  18.782  0.00  0.00    +0.000 C 
ATOM      9  N   UNL     1       3.276   7.359  18.202  0.00  0.00    +0.000 NA
ATOM     10  C   UNL     1       4.127   6.570  17.296  0.00  0.00    +0.000 C 
ATOM     11  C   UNL     1       4.914   5.519  18.094  0.00  0.00    +0.000 C 
ENDROOT
BRANCH   9  12
ATOM     12  C   UNL     1       2.665   8.491  17.478  0.00  0.00    +0.000 C 
BRANCH  12  13
ATOM     13  C   UNL     1       1.627   9.243  18.246  0.00  0.00    +0.000 A 
ATOM     14  N   UNL     1       1.639   9.605  19.510  0.00  0.00    +0.000 NA
ATOM     15  C   UNL     1       0.346  10.034  19.702  0.00  0.00    +0.000 A 
ATOM     16  N   UNL     1      -0.411  10.022  18.594  0.00  0.00    +0.000 NA
ATOM     17  O   UNL     1       0.440   9.492  17.623  0.00  0.00    +0.000 OA
BRANCH  15  18
ATOM     18  C   UNL     1      -0.177  10.350  21.068  0.00  0.00    +0.000 A 
ATOM     19  C   UNL     1      -0.081   9.485  22.138  0.00  0.00    +0.000 A 
ATOM     20  C   UNL     1      -0.754   9.982  23.294  0.00  0.00    +0.000 A 
ATOM     21  C   UNL     1      -1.336  11.208  23.061  0.00  0.00    +0.000 A 
ATOM     22  S   UNL     1      -1.028  11.773  21.475  0.00  0.00    +0.000 S 
ENDBRANCH  15  18
ENDBRANCH  12  13
ENDBRANCH   9  12
TORSDOF 3
ENDMDL
MODEL 4
REMARK VINA RESULT:      -7.0      3.300      8.117
REMARK  Name = 
REMARK  4 active torsions:
REMARK  status: ('A' for Active; 'I' for Inactive)
REMARK    1  A    between atoms: C_1  and  C_2
REMARK    2  A    between atoms: N_9  and  C_10
REMARK    3  A    between atoms: C_10  and  C_11
REMARK    4  A    between atoms: C_13  and  C_14
REMARK                            x       y       z     vdW  Elec       q    Type
REMARK                         _______ _______ _______ _____ _____    ______ ____
ROOT
ATOM      1  C   UNL     1       1.357  10.426  18.418  0.00  0.00    +0.000 C 
ATOM      2  C   UNL     1       1.575   9.110  19.093  0.00  0.00    +0.000 A 
ATOM      3  N   UNL     1       0.992   8.928  20.297  0.00  0.00    +0.000 NA
ATOM      4  C   UNL     1       1.189   7.732  20.876  0.00  0.00    +0.000 A 
ATOM      5  C   UNL     1       1.929   6.720  20.310  0.00  0.00    +0.000 A 
ATOM      6  C   UNL     1       2.509   7.010  19.085  0.00  0.00    +0.000 A 
ATOM      7  N   UNL     1       2.324   8.194  18.459  0.00  0.00    +0.000 NA
ATOM      8  C   UNL     1       3.329   5.953  18.363  0.00  0.00    +0.000 C 
ATOM      9  N   UNL     1       3.785   4.838  19.233  0.00  0.00    +0.000 NA
ATOM     10  C   UNL     1       2.642   4.331  20.010  0.00  0.00    +0.000 C 
ATOM     11  C   UNL     1       2.152   5.407  20.992  0.00  0.00    +0.000 C 
ENDROOT
BRANCH   9  12
ATOM     12  C   UNL     1       4.382   3.754  18.427  0.00  0.00    +0.000 C 
BRANCH  12  13
ATOM     13  C   UNL     1       5.379   4.203  17.408  0.00  0.00    +0.000 A 
ATOM     14  N   UNL     1       5.224   4.340  16.110  0.00  0.00    +0.000 NA
ATOM     15  C   UNL     1       6.517   4.538  15.682  0.00  0.00    +0.000 A 
ATOM     16  N   UNL     1       7.422   4.607  16.671  0.00  0.00    +0.000 NA
ATOM     17  O   UNL     1       6.666   4.381  17.823  0.00  0.00    +0.000 OA
BRANCH  15  18
ATOM     18  C   UNL     1       6.868   4.535  14.228  0.00  0.00    +0.000 A 
ATOM     19  C   UNL     1       7.765   5.416  13.660  0.00  0.00    +0.000 A 
ATOM     20  C   UNL     1       7.837   5.271  12.242  0.00  0.00    +0.000 A 
ATOM     21  C   UNL     1       6.992   4.284  11.784  0.00  0.00    +0.000 A 
ATOM     22  S   UNL     1       6.160   3.508  13.063  0.00  0.00    +0.000 S 
ENDBRANCH  15  18
ENDBRANCH  12  13
ENDBRANCH   9  12
TORSDOF 3
ENDMDL
MODEL 5
REMARK VINA RESULT:      -6.9      1.973      2.384
REMARK  Name = 
REMARK  4 active torsions:
REMARK  status: ('A' for Active; 'I' for Inactive)
REMARK    1  A    between atoms: C_1  and  C_2
REMARK    2  A    between atoms: N_9  and  C_10
REMARK    3  A    between atoms: C_10  and  C_11
REMARK    4  A    between atoms: C_13  and  C_14
REMARK                            x       y       z     vdW  Elec       q    Type
REMARK                         _______ _______ _______ _____ _____    ______ ____
ROOT
ATOM      1  C   UNL     1       6.314   3.663  12.838  0.00  0.00    +0.000 C 
ATOM      2  C   UNL     1       6.445   4.121  14.256  0.00  0.00    +0.000 A 
ATOM      3  N   UNL     1       7.493   4.918  14.555  0.00  0.00    +0.000 NA
ATOM      4  C   UNL     1       7.581   5.328  15.830  0.00  0.00    +0.000 A 
ATOM      5  C   UNL     1       6.676   4.987  16.808  0.00  0.00    +0.000 A 
ATOM      6  C   UNL     1       5.649   4.145  16.412  0.00  0.00    +0.000 A 
ATOM      7  N   UNL     1       5.513   3.721  15.135  0.00  0.00    +0.000 NA
ATOM      8  C   UNL     1       4.582   3.725  17.410  0.00  0.00    +0.000 C 
ATOM      9  N   UNL     1       4.969   3.918  18.831  0.00  0.00    +0.000 NA
ATOM     10  C   UNL     1       5.499   5.280  19.008  0.00  0.00    +0.000 C 
ATOM     11  C   UNL     1       6.814   5.439  18.228  0.00  0.00    +0.000 C 
ENDROOT
BRANCH   9  12
ATOM     12  C   UNL     1       3.815   3.694  19.725  0.00  0.00    +0.000 C 
BRANCH  12  13
ATOM     13  C   UNL     1       2.904   4.869  19.882  0.00  0.00    +0.000 A 
ATOM     14  N   UNL     1       2.711   5.876  19.059  0.00  0.00    +0.000 NA
ATOM     15  C   UNL     1       1.970   6.742  19.831  0.00  0.00    +0.000 A 
ATOM     16  N   UNL     1       1.645   6.264  21.042  0.00  0.00    +0.000 NA
ATOM     17  O   UNL     1       2.270   5.016  21.079  0.00  0.00    +0.000 OA
BRANCH  15  18
ATOM     18  C   UNL     1       1.686   8.141  19.381  0.00  0.00    +0.000 A 
ATOM     19  C   UNL     1       2.074   8.639  18.154  0.00  0.00    +0.000 A 
ATOM     20  C   UNL     1       1.777  10.028  18.018  0.00  0.00    +0.000 A 
ATOM     21  C   UNL     1       1.172  10.535  19.147  0.00  0.00    +0.000 A 
ATOM     22  S   UNL     1       0.921   9.330  20.337  0.00  0.00    +0.000 S 
ENDBRANCH  15  18
ENDBRANCH  12  13
ENDBRANCH   9  12
TORSDOF 3
ENDMDL
MODEL 6
REMARK VINA RESULT:      -6.9      3.133      8.512
REMARK  Name = 
REMARK  4 active torsions:
REMARK  status: ('A' for Active; 'I' for Inactive)
REMARK    1  A    between atoms: C_1  and  C_2
REMARK    2  A    between atoms: N_9  and  C_10
REMARK    3  A    between atoms: C_10  and  C_11
REMARK    4  A    between atoms: C_13  and  C_14
REMARK                            x       y       z     vdW  Elec       q    Type
REMARK                         _______ _______ _______ _____ _____    ______ ____
ROOT
ATOM      1  C   UNL     1      -0.329   9.082  22.385  0.00  0.00    +0.000 C 
ATOM      2  C   UNL     1       0.459   8.852  21.135  0.00  0.00    +0.000 A 
ATOM      3  N   UNL     1       0.397   9.805  20.180  0.00  0.00    +0.000 NA
ATOM      4  C   UNL     1       1.126   9.584  19.074  0.00  0.00    +0.000 A 
ATOM      5  C   UNL     1       1.910   8.470  18.885  0.00  0.00    +0.000 A 
ATOM      6  C   UNL     1       1.890   7.536  19.909  0.00  0.00    +0.000 A 
ATOM      7  N   UNL     1       1.183   7.726  21.046  0.00  0.00    +0.000 NA
ATOM      8  C   UNL     1       2.739   6.280  19.809  0.00  0.00    +0.000 C 
ATOM      9  N   UNL     1       3.194   5.961  18.431  0.00  0.00    +0.000 NA
ATOM     10  C   UNL     1       3.777   7.168  17.823  0.00  0.00    +0.000 C 
ATOM     11  C   UNL     1       2.691   8.239  17.629  0.00  0.00    +0.000 C 
ENDROOT
BRANCH   9  12
ATOM     12  C   UNL     1       4.181   4.863  18.445  0.00  0.00    +0.000 C 
BRANCH  12  13
ATOM     13  C   UNL     1       5.250   4.965  17.406  0.00  0.00    +0.000 A 
ATOM     14  N   UNL     1       5.126   4.996  16.097  0.00  0.00    +0.000 NA
ATOM     15  C   UNL     1       6.429   4.850  15.679  0.00  0.00    +0.000 A 
ATOM     16  N   UNL     1       7.329   4.816  16.674  0.00  0.00    +0.000 NA
ATOM     17  O   UNL     1       6.545   4.889  17.827  0.00  0.00    +0.000 OA
BRANCH  15  18
ATOM     18  C   UNL     1       6.766   4.615  14.240  0.00  0.00    +0.000 A 
ATOM     19  C   UNL     1       7.719   5.339  13.553  0.00  0.00    +0.000 A 
ATOM     20  C   UNL     1       7.767   4.989  12.171  0.00  0.00    +0.000 A 
ATOM     21  C   UNL     1       6.850   4.012  11.857  0.00  0.00    +0.000 A 
ATOM     22  S   UNL     1       5.975   3.487  13.232  0.00  0.00    +0.000 S 
ENDBRANCH  15  18
ENDBRANCH  12  13
ENDBRANCH   9  12
TORSDOF 3
ENDMDL
MODEL 7
REMARK VINA RESULT:      -6.7      1.612      2.581
REMARK  Name = 
REMARK  4 active torsions:
REMARK  status: ('A' for Active; 'I' for Inactive)
REMARK    1  A    between atoms: C_1  and  C_2
REMARK    2  A    between atoms: N_9  and  C_10
REMARK    3  A    between atoms: C_10  and  C_11
REMARK    4  A    between atoms: C_13  and  C_14
REMARK                            x       y       z     vdW  Elec       q    Type
REMARK                         _______ _______ _______ _____ _____    ______ ____
ROOT
ATOM      1  C   UNL     1       7.899   4.739  17.686  0.00  0.00    +0.000 C 
ATOM      2  C   UNL     1       6.406   4.640  17.696  0.00  0.00    +0.000 A 
ATOM      3  N   UNL     1       5.829   3.901  16.725  0.00  0.00    +0.000 NA
ATOM      4  C   UNL     1       4.489   3.814  16.764  0.00  0.00    +0.000 A 
ATOM      5  C   UNL     1       3.711   4.421  17.722  0.00  0.00    +0.000 A 
ATOM      6  C   UNL     1       4.391   5.179  18.662  0.00  0.00    +0.000 A 
ATOM      7  N   UNL     1       5.740   5.281  18.669  0.00  0.00    +0.000 NA
ATOM      8  C   UNL     1       3.627   5.873  19.777  0.00  0.00    +0.000 C 
ATOM      9  N   UNL     1       2.173   6.022  19.517  0.00  0.00    +0.000 NA
ATOM     10  C   UNL     1       1.623   4.725  19.086  0.00  0.00    +0.000 C 
ATOM     11  C   UNL     1       2.217   4.327  17.726  0.00  0.00    +0.000 C 
ENDROOT
BRANCH   9  12
ATOM     12  C   UNL     1       1.470   6.503  20.723  0.00  0.00    +0.000 C 
BRANCH  12  13
ATOM     13  C   UNL     1       1.248   7.980  20.774  0.00  0.00    +0.000 A 
ATOM     14  N   UNL     1       0.808   8.713  21.773  0.00  0.00    +0.000 NA
ATOM     15  C   UNL     1       0.586   9.928  21.166  0.00  0.00    +0.000 A 
ATOM     16  N   UNL     1       0.949   9.976  19.876  0.00  0.00    +0.000 NA
ATOM     17  O   UNL     1       1.389   8.677  19.611  0.00  0.00    +0.000 OA
BRANCH  15  18
ATOM     18  C   UNL     1      -0.128  11.036  21.875  0.00  0.00    +0.000 A 
ATOM     19  C   UNL     1      -1.108  10.825  22.823  0.00  0.00    +0.000 A 
ATOM     20  C   UNL     1      -1.702  12.045  23.264  0.00  0.00    +0.000 A 
ATOM     21  C   UNL     1      -1.150  13.139  22.635  0.00  0.00    +0.000 A 
ATOM     22  S   UNL     1       0.107  12.697  21.562  0.00  0.00    +0.000 S 
ENDBRANCH  15  18
ENDBRANCH  12  13
ENDBRANCH   9  12
TORSDOF 3
ENDMDL
MODEL 8
REMARK VINA RESULT:      -6.7      1.051      1.145
REMARK  Name = 
REMARK  4 active torsions:
REMARK  status: ('A' for Active; 'I' for Inactive)
REMARK    1  A    between atoms: C_1  and  C_2
REMARK    2  A    between atoms: N_9  and  C_10
REMARK    3  A    between atoms: C_10  and  C_11
REMARK    4  A    between atoms: C_13  and  C_14
REMARK                            x       y       z     vdW  Elec       q    Type
REMARK                         _______ _______ _______ _____ _____    ______ ____
ROOT
ATOM      1  C   UNL     1       6.889   4.527  13.571  0.00  0.00    +0.000 C 
ATOM      2  C   UNL     1       6.664   4.642  15.045  0.00  0.00    +0.000 A 
ATOM      3  N   UNL     1       7.744   4.526  15.847  0.00  0.00    +0.000 NA
ATOM      4  C   UNL     1       7.520   4.649  17.165  0.00  0.00    +0.000 A 
ATOM      5  C   UNL     1       6.280   4.885  17.712  0.00  0.00    +0.000 A 
ATOM      6  C   UNL     1       5.229   4.964  16.812  0.00  0.00    +0.000 A 
ATOM      7  N   UNL     1       5.412   4.862  15.476  0.00  0.00    +0.000 NA
ATOM      8  C   UNL     1       3.821   5.245  17.310  0.00  0.00    +0.000 C 
ATOM      9  N   UNL     1       3.628   4.994  18.761  0.00  0.00    +0.000 NA
ATOM     10  C   UNL     1       4.708   5.653  19.514  0.00  0.00    +0.000 C 
ATOM     11  C   UNL     1       6.057   4.992  19.188  0.00  0.00    +0.000 C 
ENDROOT
BRANCH   9  12
ATOM     12  C   UNL     1       2.311   5.490  19.209  0.00  0.00    +0.000 C 
BRANCH  12  13
ATOM     13  C   UNL     1       2.121   6.967  19.089  0.00  0.00    +0.000 A 
ATOM     14  N   UNL     1       1.762   7.830  20.014  0.00  0.00    +0.000 NA
ATOM     15  C   UNL     1       1.522   8.966  19.274  0.00  0.00    +0.000 A 
ATOM     16  N   UNL     1       1.799   8.843  17.967  0.00  0.00    +0.000 NA
ATOM     17  O   UNL     1       2.196   7.511  17.840  0.00  0.00    +0.000 OA
BRANCH  15  18
ATOM     18  C   UNL     1       0.878  10.172  19.883  0.00  0.00    +0.000 A 
ATOM     19  C   UNL     1      -0.175  10.104  20.773  0.00  0.00    +0.000 A 
ATOM     20  C   UNL     1      -0.672  11.397  21.116  0.00  0.00    +0.000 A 
ATOM     21  C   UNL     1       0.021  12.399  20.475  0.00  0.00    +0.000 A 
ATOM     22  S   UNL     1       1.293  11.785  19.508  0.00  0.00    +0.000 S 
ENDBRANCH  15  18
ENDBRANCH  12  13
ENDBRANCH   9  12
TORSDOF 3
ENDMDL
MODEL 9
REMARK VINA RESULT:      -6.7      3.524      4.215
REMARK  Name = 
REMARK  4 active torsions:
REMARK  status: ('A' for Active; 'I' for Inactive)
REMARK    1  A    between atoms: C_1  and  C_2
REMARK    2  A    between atoms: N_9  and  C_10
REMARK    3  A    between atoms: C_10  and  C_11
REMARK    4  A    between atoms: C_13  and  C_14
REMARK                            x       y       z     vdW  Elec       q    Type
REMARK                         _______ _______ _______ _____ _____    ______ ____
ROOT
ATOM      1  C   UNL     1       6.295   4.081  15.033  0.00  0.00    +0.000 C 
ATOM      2  C   UNL     1       5.291   4.485  16.065  0.00  0.00    +0.000 A 
ATOM      3  N   UNL     1       4.762   3.507  16.830  0.00  0.00    +0.000 NA
ATOM      4  C   UNL     1       3.875   3.896  17.760  0.00  0.00    +0.000 A 
ATOM      5  C   UNL     1       3.502   5.205  17.962  0.00  0.00    +0.000 A 
ATOM      6  C   UNL     1       4.080   6.134  17.112  0.00  0.00    +0.000 A 
ATOM      7  N   UNL     1       4.989   5.789  16.172  0.00  0.00    +0.000 NA
ATOM      8  C   UNL     1       3.752   7.611  17.265  0.00  0.00    +0.000 C 
ATOM      9  N   UNL     1       2.517   7.883  18.043  0.00  0.00    +0.000 NA
ATOM     10  C   UNL     1       2.556   7.110  19.297  0.00  0.00    +0.000 C 
ATOM     11  C   UNL     1       2.492   5.605  18.990  0.00  0.00    +0.000 C 
ENDROOT
BRANCH   9  12
ATOM     12  C   UNL     1       2.384   9.324  18.331  0.00  0.00    +0.000 C 
BRANCH  12  13
ATOM     13  C   UNL     1       0.978   9.812  18.463  0.00  0.00    +0.000 A 
ATOM     14  N   UNL     1      -0.059   9.551  17.699  0.00  0.00    +0.000 NA
ATOM     15  C   UNL     1      -0.993  10.452  18.158  0.00  0.00    +0.000 A 
ATOM     16  N   UNL     1      -0.588  11.179  19.211  0.00  0.00    +0.000 NA
ATOM     17  O   UNL     1       0.727  10.756  19.415  0.00  0.00    +0.000 OA
BRANCH  15  18
ATOM     18  C   UNL     1      -2.286  10.673  17.438  0.00  0.00    +0.000 A 
ATOM     19  C   UNL     1      -2.382  10.783  16.066  0.00  0.00    +0.000 A 
ATOM     20  C   UNL     1      -3.708  11.098  15.643  0.00  0.00    +0.000 A 
ATOM     21  C   UNL     1      -4.571  11.216  16.710  0.00  0.00    +0.000 A 
ATOM     22  S   UNL     1      -3.795  10.898  18.202  0.00  0.00    +0.000 S 
ENDBRANCH  15  18
ENDBRANCH  12  13
ENDBRANCH   9  12
TORSDOF 3
ENDMDL
