MODEL 1
REMARK VINA RESULT:      -7.9      0.000      0.000
REMARK  Name = 
REMARK  11 active torsions:
REMARK  status: ('A' for Active; 'I' for Inactive)
REMARK    1  A    between atoms: C_1  and  N_2
REMARK    2  A    between atoms: N_2  and  C_3
REMARK    3  A    between atoms: N_6  and  C_7
REMARK    4  A    between atoms: C_11  and  C_12
REMARK    5  A    between atoms: N_15  and  C_16
REMARK    6  A    between atoms: C_17  and  C_18
REMARK    7  A    between atoms: N_20  and  C_21
REMARK    8  A    between atoms: N_20  and  C_22
REMARK    9  A    between atoms: C_24  and  O_25
REMARK   10  A    between atoms: O_25  and  C_26
REMARK   11  A    between atoms: C_29  and  C_30
REMARK                            x       y       z     vdW  Elec       q    Type
REMARK                         _______ _______ _______ _____ _____    ______ ____
ROOT
ATOM      1  C   UNL     1       1.950   6.813  20.369  0.00  0.00    +0.000 A 
ATOM      2  C   UNL     1       2.286   7.567  19.228  0.00  0.00    +0.000 A 
ATOM      3  C   UNL     1       3.077   7.078  18.199  0.00  0.00    +0.000 A 
ATOM      4  F   UNL     1       3.176   7.825  17.090  0.00  0.00    +0.000 F 
ATOM      5  C   UNL     1       3.671   5.829  18.292  0.00  0.00    +0.000 A 
ATOM      6  C   UNL     1       3.386   5.072  19.445  0.00  0.00    +0.000 A 
ATOM      7  C   UNL     1       2.515   5.530  20.468  0.00  0.00    +0.000 A 
ENDROOT
BRANCH   1  11
ATOM      8  C   UNL     1       0.737  10.895  20.830  0.00  0.00    +0.000 A 
ATOM      9  N   UNL     1       1.104   9.613  20.676  0.00  0.00    +0.000 NA
ATOM     10  C   UNL     1       0.599   8.650  21.454  0.00  0.00    +0.000 A 
ATOM     11  N   UNL     1       0.982   7.323  21.250  0.00  0.00    +0.000 N 
ATOM     12  N   UNL     1      -0.294   8.896  22.414  0.00  0.00    +0.000 NA
ATOM     13  C   UNL     1      -0.668  10.187  22.553  0.00  0.00    +0.000 A 
ATOM     14  C   UNL     1      -0.196  11.233  21.782  0.00  0.00    +0.000 A 
ATOM     15  H   UNL     1       0.526   6.713  21.901  0.00  0.00    +0.000 HD
BRANCH  14  16
ATOM     16  C   UNL     1      -0.720  12.602  22.013  0.00  0.00    +0.000 C 
ATOM     17  F   UNL     1       0.217  13.567  22.226  0.00  0.00    +0.000 F 
ATOM     18  F   UNL     1      -1.442  13.046  20.942  0.00  0.00    +0.000 F 
ATOM     19  F   UNL     1      -1.575  12.669  23.072  0.00  0.00    +0.000 F 
ENDBRANCH  14  16
BRANCH   8  21
ATOM     20  C   UNL     1       1.662  11.475  18.671  0.00  0.00    +0.000 C 
ATOM     21  N   UNL     1       1.383  11.860  20.050  0.00  0.00    +0.000 N 
ATOM     22  H   UNL     1       0.927  12.766  20.110  0.00  0.00    +0.000 HD
ENDBRANCH   8  21
ENDBRANCH   1  11
BRANCH   5  23
ATOM     23  C   UNL     1       4.473   5.269  17.205  0.00  0.00    +0.000 A 
ATOM     24  C   UNL     1       4.222   4.074  16.498  0.00  0.00    +0.000 A 
ATOM     25  N   UNL     1       5.105   3.856  15.535  0.00  0.00    +0.000 NA
ATOM     26  N   UNL     1       5.970   4.886  15.641  0.00  0.00    +0.000 N 
ATOM     27  C   UNL     1       7.088   4.846  14.730  0.00  0.00    +0.000 C 
ATOM     28  C   UNL     1       5.671   5.773  16.660  0.00  0.00    +0.000 A 
BRANCH  28  29
ATOM     29  C   UNL     1       6.484   6.855  17.221  0.00  0.00    +0.000 C 
ATOM     30  O   UNL     1       6.319   7.999  16.786  0.00  0.00    +0.000 OA
ATOM     31  N   UNL     1       7.487   6.645  18.184  0.00  0.00    +0.000 N 
ATOM     32  C   UNL     1       7.698   5.464  18.993  0.00  0.00    +0.000 C 
ATOM     33  C   UNL     1       8.336   7.781  18.536  0.00  0.00    +0.000 C 
ENDBRANCH  28  29
ENDBRANCH   5  23
BRANCH   7  34
ATOM     34  O   UNL     1       2.331   4.561  21.421  0.00  0.00    +0.000 OA
ATOM     35  C   UNL     1       1.620   3.372  21.129  0.00  0.00    +0.000 C 
ENDBRANCH   7  34
TORSDOF 6
ENDMDL
MODEL 2
REMARK VINA RESULT:      -7.8      3.329      4.691
REMARK  Name = 
REMARK  11 active torsions:
REMARK  status: ('A' for Active; 'I' for Inactive)
REMARK    1  A    between atoms: C_1  and  N_2
REMARK    2  A    between atoms: N_2  and  C_3
REMARK    3  A    between atoms: N_6  and  C_7
REMARK    4  A    between atoms: C_11  and  C_12
REMARK    5  A    between atoms: N_15  and  C_16
REMARK    6  A    between atoms: C_17  and  C_18
REMARK    7  A    between atoms: N_20  and  C_21
REMARK    8  A    between atoms: N_20  and  C_22
REMARK    9  A    between atoms: C_24  and  O_25
REMARK   10  A    between atoms: O_25  and  C_26
REMARK   11  A    between atoms: C_29  and  C_30
REMARK                            x       y       z     vdW  Elec       q    Type
REMARK                         _______ _______ _______ _____ _____    ______ ____
ROOT
ATOM      1  C   UNL     1       0.956   9.651  19.652  0.00  0.00    +0.000 A 
ATOM      2  C   UNL     1       1.485   9.743  18.350  0.00  0.00    +0.000 A 
ATOM      3  C   UNL     1       2.295   8.768  17.786  0.00  0.00    +0.000 A 
ATOM      4  F   UNL     1       2.586   8.887  16.483  0.00  0.00    +0.000 F 
ATOM      5  C   UNL     1       2.713   7.676  18.531  0.00  0.00    +0.000 A 
ATOM      6  C   UNL     1       2.233   7.583  19.851  0.00  0.00    +0.000 A 
ATOM      7  C   UNL     1       1.341   8.533  20.412  0.00  0.00    +0.000 A 
ENDROOT
BRANCH   1  11
ATOM      8  C   UNL     1      -2.827  10.439  17.805  0.00  0.00    +0.000 A 
ATOM      9  N   UNL     1      -1.649  10.182  18.394  0.00  0.00    +0.000 NA
ATOM     10  C   UNL     1      -1.230  10.896  19.445  0.00  0.00    +0.000 A 
ATOM     11  N   UNL     1      -0.012  10.586  20.051  0.00  0.00    +0.000 N 
ATOM     12  N   UNL     1      -1.949  11.890  19.970  0.00  0.00    +0.000 NA
ATOM     13  C   UNL     1      -3.139  12.133  19.379  0.00  0.00    +0.000 A 
ATOM     14  C   UNL     1      -3.640  11.432  18.297  0.00  0.00    +0.000 A 
ATOM     15  H   UNL     1       0.173  11.199  20.822  0.00  0.00    +0.000 HD
BRANCH  14  16
ATOM     16  C   UNL     1      -4.983  11.775  17.768  0.00  0.00    +0.000 C 
ATOM     17  F   UNL     1      -5.871  10.744  17.693  0.00  0.00    +0.000 F 
ATOM     18  F   UNL     1      -5.602  12.711  18.546  0.00  0.00    +0.000 F 
ATOM     19  F   UNL     1      -4.937  12.321  16.520  0.00  0.00    +0.000 F 
ENDBRANCH  14  16
BRANCH   8  21
ATOM     20  C   UNL     1      -2.724  10.321  15.391  0.00  0.00    +0.000 C 
ATOM     21  N   UNL     1      -3.152   9.720  16.650  0.00  0.00    +0.000 N 
ATOM     22  H   UNL     1      -2.879   8.743  16.719  0.00  0.00    +0.000 HD
ENDBRANCH   8  21
ENDBRANCH   1  11
BRANCH   5  23
ATOM     23  C   UNL     1       3.530   6.609  17.950  0.00  0.00    +0.000 A 
ATOM     24  C   UNL     1       4.737   6.763  17.237  0.00  0.00    +0.000 A 
ATOM     25  N   UNL     1       5.267   5.604  16.876  0.00  0.00    +0.000 NA
ATOM     26  N   UNL     1       4.379   4.685  17.311  0.00  0.00    +0.000 N 
ATOM     27  C   UNL     1       4.696   3.318  16.977  0.00  0.00    +0.000 C 
ATOM     28  C   UNL     1       3.275   5.224  17.947  0.00  0.00    +0.000 A 
BRANCH  28  29
ATOM     29  C   UNL     1       2.019   4.579  18.337  0.00  0.00    +0.000 C 
ATOM     30  O   UNL     1       1.092   4.556  17.520  0.00  0.00    +0.000 OA
ATOM     31  N   UNL     1       1.793   4.042  19.617  0.00  0.00    +0.000 N 
ATOM     32  C   UNL     1       2.778   3.750  20.635  0.00  0.00    +0.000 C 
ATOM     33  C   UNL     1       0.443   3.579  19.929  0.00  0.00    +0.000 C 
ENDBRANCH  28  29
ENDBRANCH   5  23
BRANCH   7  34
ATOM     34  O   UNL     1       0.952   8.152  21.671  0.00  0.00    +0.000 OA
ATOM     35  C   UNL     1       0.884   9.087  22.731  0.00  0.00    +0.000 C 
ENDBRANCH   7  34
TORSDOF 6
ENDMDL
MODEL 3
REMARK VINA RESULT:      -7.7      2.835      3.495
REMARK  Name = 
REMARK  11 active torsions:
REMARK  status: ('A' for Active; 'I' for Inactive)
REMARK    1  A    between atoms: C_1  and  N_2
REMARK    2  A    between atoms: N_2  and  C_3
REMARK    3  A    between atoms: N_6  and  C_7
REMARK    4  A    between atoms: C_11  and  C_12
REMARK    5  A    between atoms: N_15  and  C_16
REMARK    6  A    between atoms: C_17  and  C_18
REMARK    7  A    between atoms: N_20  and  C_21
REMARK    8  A    between atoms: N_20  and  C_22
REMARK    9  A    between atoms: C_24  and  O_25
REMARK   10  A    between atoms: O_25  and  C_26
REMARK   11  A    between atoms: C_29  and  C_30
REMARK                            x       y       z     vdW  Elec       q    Type
REMARK                         _______ _______ _______ _____ _____    ______ ____
ROOT
ATOM      1  C   UNL     1       1.460   9.345  19.443  0.00  0.00    +0.000 A 
ATOM      2  C   UNL     1       2.013   9.301  18.149  0.00  0.00    +0.000 A 
ATOM      3  C   UNL     1       2.601   8.166  17.610  0.00  0.00    +0.000 A 
ATOM      4  F   UNL     1       2.927   8.198  16.310  0.00  0.00    +0.000 F 
ATOM      5  C   UNL     1       2.765   7.021  18.375  0.00  0.00    +0.000 A 
ATOM      6  C   UNL     1       2.260   7.054  19.689  0.00  0.00    +0.000 A 
ATOM      7  C   UNL     1       1.586   8.183  20.224  0.00  0.00    +0.000 A 
ENDROOT
BRANCH   1  11
ATOM      8  C   UNL     1      -2.532  10.335  18.249  0.00  0.00    +0.000 A 
ATOM      9  N   UNL     1      -1.287  10.019  18.636  0.00  0.00    +0.000 NA
ATOM     10  C   UNL     1      -0.571  10.844  19.407  0.00  0.00    +0.000 A 
ATOM     11  N   UNL     1       0.711  10.473  19.815  0.00  0.00    +0.000 N 
ATOM     12  N   UNL     1      -1.044  12.015  19.839  0.00  0.00    +0.000 NA
ATOM     13  C   UNL     1      -2.303  12.320  19.455  0.00  0.00    +0.000 A 
ATOM     14  C   UNL     1      -3.104  11.513  18.667  0.00  0.00    +0.000 A 
ATOM     15  H   UNL     1       1.127  11.184  20.386  0.00  0.00    +0.000 HD
BRANCH  14  16
ATOM     16  C   UNL     1      -4.486  11.950  18.350  0.00  0.00    +0.000 C 
ATOM     17  F   UNL     1      -5.469  11.045  18.620  0.00  0.00    +0.000 F 
ATOM     18  F   UNL     1      -4.833  13.063  19.061  0.00  0.00    +0.000 F 
ATOM     19  F   UNL     1      -4.646  12.296  17.042  0.00  0.00    +0.000 F 
ENDBRANCH  14  16
BRANCH   8  21
ATOM     20  C   UNL     1      -2.889   9.684  15.946  0.00  0.00    +0.000 C 
ATOM     21  N   UNL     1      -3.181   9.471  17.359  0.00  0.00    +0.000 N 
ATOM     22  H   UNL     1      -3.074   8.497  17.629  0.00  0.00    +0.000 HD
ENDBRANCH   8  21
ENDBRANCH   1  11
BRANCH   5  23
ATOM     23  C   UNL     1       3.341   5.795  17.821  0.00  0.00    +0.000 A 
ATOM     24  C   UNL     1       2.722   4.530  17.748  0.00  0.00    +0.000 A 
ATOM     25  N   UNL     1       3.481   3.625  17.149  0.00  0.00    +0.000 NA
ATOM     26  N   UNL     1       4.626   4.285  16.872  0.00  0.00    +0.000 N 
ATOM     27  C   UNL     1       5.665   3.488  16.268  0.00  0.00    +0.000 C 
ATOM     28  C   UNL     1       4.629   5.606  17.283  0.00  0.00    +0.000 A 
BRANCH  28  29
ATOM     29  C   UNL     1       5.745   6.552  17.368  0.00  0.00    +0.000 C 
ATOM     30  O   UNL     1       5.777   7.494  16.570  0.00  0.00    +0.000 OA
ATOM     31  N   UNL     1       6.815   6.403  18.268  0.00  0.00    +0.000 N 
ATOM     32  C   UNL     1       6.878   5.535  19.424  0.00  0.00    +0.000 C 
ATOM     33  C   UNL     1       7.944   7.321  18.136  0.00  0.00    +0.000 C 
ENDBRANCH  28  29
ENDBRANCH   5  23
BRANCH   7  34
ATOM     34  O   UNL     1       1.108   7.914  21.481  0.00  0.00    +0.000 OA
ATOM     35  C   UNL     1      -0.244   8.164  21.818  0.00  0.00    +0.000 C 
ENDBRANCH   7  34
TORSDOF 6
ENDMDL
MODEL 4
REMARK VINA RESULT:      -7.7      2.693      4.285
REMARK  Name = 
REMARK  11 active torsions:
REMARK  status: ('A' for Active; 'I' for Inactive)
REMARK    1  A    between atoms: C_1  and  N_2
REMARK    2  A    between atoms: N_2  and  C_3
REMARK    3  A    between atoms: N_6  and  C_7
REMARK    4  A    between atoms: C_11  and  C_12
REMARK    5  A    between atoms: N_15  and  C_16
REMARK    6  A    between atoms: C_17  and  C_18
REMARK    7  A    between atoms: N_20  and  C_21
REMARK    8  A    between atoms: N_20  and  C_22
REMARK    9  A    between atoms: C_24  and  O_25
REMARK   10  A    between atoms: O_25  and  C_26
REMARK   11  A    between atoms: C_29  and  C_30
REMARK                            x       y       z     vdW  Elec       q    Type
REMARK                         _______ _______ _______ _____ _____    ______ ____
ROOT
ATOM      1  C   UNL     1       0.979   9.104  20.394  0.00  0.00    +0.000 A 
ATOM      2  C   UNL     1       1.412   7.826  20.796  0.00  0.00    +0.000 A 
ATOM      3  C   UNL     1       2.210   7.009  20.009  0.00  0.00    +0.000 A 
ATOM      4  F   UNL     1       2.701   5.897  20.574  0.00  0.00    +0.000 F 
ATOM      5  C   UNL     1       2.546   7.380  18.716  0.00  0.00    +0.000 A 
ATOM      6  C   UNL     1       2.088   8.636  18.273  0.00  0.00    +0.000 A 
ATOM      7  C   UNL     1       1.338   9.513  19.098  0.00  0.00    +0.000 A 
ENDROOT
BRANCH   1  11
ATOM      8  C   UNL     1      -2.220  11.872  19.726  0.00  0.00    +0.000 A 
ATOM      9  N   UNL     1      -1.228  10.994  19.941  0.00  0.00    +0.000 NA
ATOM     10  C   UNL     1      -0.661  10.870  21.145  0.00  0.00    +0.000 A 
ATOM     11  N   UNL     1       0.350   9.928  21.341  0.00  0.00    +0.000 N 
ATOM     12  N   UNL     1      -1.044  11.597  22.197  0.00  0.00    +0.000 NA
ATOM     13  C   UNL     1      -2.052  12.469  21.976  0.00  0.00    +0.000 A 
ATOM     14  C   UNL     1      -2.690  12.644  20.762  0.00  0.00    +0.000 A 
ATOM     15  H   UNL     1       0.680   9.945  22.288  0.00  0.00    +0.000 HD
BRANCH  14  16
ATOM     16  C   UNL     1      -3.813  13.610  20.664  0.00  0.00    +0.000 C 
ATOM     17  F   UNL     1      -4.785  13.298  19.762  0.00  0.00    +0.000 F 
ATOM     18  F   UNL     1      -4.469  13.733  21.855  0.00  0.00    +0.000 F 
ATOM     19  F   UNL     1      -3.401  14.870  20.350  0.00  0.00    +0.000 F 
ENDBRANCH  14  16
BRANCH   8  21
ATOM     20  C   UNL     1      -2.253  11.002  17.469  0.00  0.00    +0.000 C 
ATOM     21  N   UNL     1      -2.694  12.018  18.418  0.00  0.00    +0.000 N 
ATOM     22  H   UNL     1      -3.700  12.157  18.391  0.00  0.00    +0.000 HD
ENDBRANCH   8  21
ENDBRANCH   1  11
BRANCH   5  23
ATOM     23  C   UNL     1       3.422   6.561  17.877  0.00  0.00    +0.000 A 
ATOM     24  C   UNL     1       4.547   7.001  17.149  0.00  0.00    +0.000 A 
ATOM     25  N   UNL     1       5.166   6.013  16.521  0.00  0.00    +0.000 NA
ATOM     26  N   UNL     1       4.415   4.925  16.796  0.00  0.00    +0.000 N 
ATOM     27  C   UNL     1       4.846   3.704  16.160  0.00  0.00    +0.000 C 
ATOM     28  C   UNL     1       3.314   5.186  17.591  0.00  0.00    +0.000 A 
BRANCH  28  29
ATOM     29  C   UNL     1       2.166   4.330  17.901  0.00  0.00    +0.000 C 
ATOM     30  O   UNL     1       1.111   4.518  17.286  0.00  0.00    +0.000 OA
ATOM     31  N   UNL     1       2.186   3.349  18.908  0.00  0.00    +0.000 N 
ATOM     32  C   UNL     1       3.344   2.802  19.581  0.00  0.00    +0.000 C 
ATOM     33  C   UNL     1       0.926   2.681  19.228  0.00  0.00    +0.000 C 
ENDBRANCH  28  29
ENDBRANCH   5  23
BRANCH   7  34
ATOM     34  O   UNL     1       1.109  10.706  18.460  0.00  0.00    +0.000 OA
ATOM     35  C   UNL     1       2.041  11.769  18.539  0.00  0.00    +0.000 C 
ENDBRANCH   7  34
TORSDOF 6
ENDMDL
MODEL 5
REMARK VINA RESULT:      -7.7      3.137      4.673
REMARK  Name = 
REMARK  11 active torsions:
REMARK  status: ('A' for Active; 'I' for Inactive)
REMARK    1  A    between atoms: C_1  and  N_2
REMARK    2  A    between atoms: N_2  and  C_3
REMARK    3  A    between atoms: N_6  and  C_7
REMARK    4  A    between atoms: C_11  and  C_12
REMARK    5  A    between atoms: N_15  and  C_16
REMARK    6  A    between atoms: C_17  and  C_18
REMARK    7  A    between atoms: N_20  and  C_21
REMARK    8  A    between atoms: N_20  and  C_22
REMARK    9  A    between atoms: C_24  and  O_25
REMARK   10  A    between atoms: O_25  and  C_26
REMARK   11  A    between atoms: C_29  and  C_30
REMARK                            x       y       z     vdW  Elec       q    Type
REMARK                         _______ _______ _______ _____ _____    ______ ____
ROOT
ATOM      1  C   UNL     1       1.136   9.304  19.489  0.00  0.00    +0.000 A 
ATOM      2  C   UNL     1       1.355   8.072  20.135  0.00  0.00    +0.000 A 
ATOM      3  C   UNL     1       2.216   7.099  19.648  0.00  0.00    +0.000 A 
ATOM      4  F   UNL     1       2.475   6.051  20.442  0.00  0.00    +0.000 F 
ATOM      5  C   UNL     1       2.840   7.255  18.420  0.00  0.00    +0.000 A 
ATOM      6  C   UNL     1       2.602   8.461  17.732  0.00  0.00    +0.000 A 
ATOM      7  C   UNL     1       1.786   9.496  18.258  0.00  0.00    +0.000 A 
ENDROOT
BRANCH   1  11
ATOM      8  C   UNL     1      -2.767  10.786  18.532  0.00  0.00    +0.000 A 
ATOM      9  N   UNL     1      -1.551  10.312  18.842  0.00  0.00    +0.000 NA
ATOM     10  C   UNL     1      -0.842  10.831  19.851  0.00  0.00    +0.000 A 
ATOM     11  N   UNL     1       0.408  10.297  20.165  0.00  0.00    +0.000 N 
ATOM     12  N   UNL     1      -1.295  11.834  20.606  0.00  0.00    +0.000 NA
ATOM     13  C   UNL     1      -2.526  12.296  20.294  0.00  0.00    +0.000 A 
ATOM     14  C   UNL     1      -3.318  11.804  19.273  0.00  0.00    +0.000 A 
ATOM     15  H   UNL     1       0.823  10.780  20.939  0.00  0.00    +0.000 HD
BRANCH  14  16
ATOM     16  C   UNL     1      -4.670  12.377  19.062  0.00  0.00    +0.000 C 
ATOM     17  F   UNL     1      -4.981  12.703  17.777  0.00  0.00    +0.000 F 
ATOM     18  F   UNL     1      -5.647  11.503  19.446  0.00  0.00    +0.000 F 
ATOM     19  F   UNL     1      -4.889  13.503  19.798  0.00  0.00    +0.000 F 
ENDBRANCH  14  16
BRANCH   8  21
ATOM     20  C   UNL     1      -2.812  10.627  16.118  0.00  0.00    +0.000 C 
ATOM     21  N   UNL     1      -3.404  10.264  17.401  0.00  0.00    +0.000 N 
ATOM     22  H   UNL     1      -3.562   9.263  17.481  0.00  0.00    +0.000 HD
ENDBRANCH   8  21
ENDBRANCH   1  11
BRANCH   5  23
ATOM     23  C   UNL     1       3.787   6.267  17.900  0.00  0.00    +0.000 A 
ATOM     24  C   UNL     1       5.068   6.523  17.370  0.00  0.00    +0.000 A 
ATOM     25  N   UNL     1       5.707   5.416  17.023  0.00  0.00    +0.000 NA
ATOM     26  N   UNL     1       4.821   4.430  17.280  0.00  0.00    +0.000 N 
ATOM     27  C   UNL     1       5.256   3.103  16.918  0.00  0.00    +0.000 C 
ATOM     28  C   UNL     1       3.612   4.874  17.785  0.00  0.00    +0.000 A 
BRANCH  28  29
ATOM     29  C   UNL     1       2.353   4.146  17.961  0.00  0.00    +0.000 C 
ATOM     30  O   UNL     1       1.433   4.364  17.165  0.00  0.00    +0.000 OA
ATOM     31  N   UNL     1       2.116   3.262  19.029  0.00  0.00    +0.000 N 
ATOM     32  C   UNL     1       3.093   2.686  19.927  0.00  0.00    +0.000 C 
ATOM     33  C   UNL     1       0.764   2.731  19.182  0.00  0.00    +0.000 C 
ENDBRANCH  28  29
ENDBRANCH   5  23
BRANCH   7  34
ATOM     34  O   UNL     1       1.806  10.595  17.437  0.00  0.00    +0.000 OA
ATOM     35  C   UNL     1       2.432  11.799  17.842  0.00  0.00    +0.000 C 
ENDBRANCH   7  34
TORSDOF 6
ENDMDL
MODEL 6
REMARK VINA RESULT:      -7.7      2.966      4.558
REMARK  Name = 
REMARK  11 active torsions:
REMARK  status: ('A' for Active; 'I' for Inactive)
REMARK    1  A    between atoms: C_1  and  N_2
REMARK    2  A    between atoms: N_2  and  C_3
REMARK    3  A    between atoms: N_6  and  C_7
REMARK    4  A    between atoms: C_11  and  C_12
REMARK    5  A    between atoms: N_15  and  C_16
REMARK    6  A    between atoms: C_17  and  C_18
REMARK    7  A    between atoms: N_20  and  C_21
REMARK    8  A    between atoms: N_20  and  C_22
REMARK    9  A    between atoms: C_24  and  O_25
REMARK   10  A    between atoms: O_25  and  C_26
REMARK   11  A    between atoms: C_29  and  C_30
REMARK                            x       y       z     vdW  Elec       q    Type
REMARK                         _______ _______ _______ _____ _____    ______ ____
ROOT
ATOM      1  C   UNL     1       1.316   9.113  18.807  0.00  0.00    +0.000 A 
ATOM      2  C   UNL     1       2.200   8.719  17.784  0.00  0.00    +0.000 A 
ATOM      3  C   UNL     1       3.033   7.614  17.880  0.00  0.00    +0.000 A 
ATOM      4  F   UNL     1       3.693   7.241  16.775  0.00  0.00    +0.000 F 
ATOM      5  C   UNL     1       3.108   6.884  19.056  0.00  0.00    +0.000 A 
ATOM      6  C   UNL     1       2.266   7.284  20.111  0.00  0.00    +0.000 A 
ATOM      7  C   UNL     1       1.353   8.364  19.996  0.00  0.00    +0.000 A 
ENDROOT
BRANCH   1  11
ATOM      8  C   UNL     1       1.863  13.350  19.105  0.00  0.00    +0.000 A 
ATOM      9  N   UNL     1       1.695  12.023  18.996  0.00  0.00    +0.000 NA
ATOM     10  C   UNL     1       0.510  11.501  18.662  0.00  0.00    +0.000 A 
ATOM     11  N   UNL     1       0.375  10.118  18.531  0.00  0.00    +0.000 N 
ATOM     12  N   UNL     1      -0.563  12.255  18.414  0.00  0.00    +0.000 NA
ATOM     13  C   UNL     1      -0.381  13.590  18.513  0.00  0.00    +0.000 A 
ATOM     14  C   UNL     1       0.815  14.200  18.844  0.00  0.00    +0.000 A 
ATOM     15  H   UNL     1      -0.563   9.870  18.277  0.00  0.00    +0.000 HD
BRANCH  14  16
ATOM     16  C   UNL     1       0.889  15.682  18.880  0.00  0.00    +0.000 C 
ATOM     17  F   UNL     1       1.903  16.240  18.161  0.00  0.00    +0.000 F 
ATOM     18  F   UNL     1      -0.248  16.250  18.379  0.00  0.00    +0.000 F 
ATOM     19  F   UNL     1       1.009  16.176  20.144  0.00  0.00    +0.000 F 
ENDBRANCH  14  16
BRANCH   8  21
ATOM     20  C   UNL     1       3.265  13.873  21.006  0.00  0.00    +0.000 C 
ATOM     21  N   UNL     1       3.101  13.818  19.558  0.00  0.00    +0.000 N 
ATOM     22  H   UNL     1       3.877  13.344  19.103  0.00  0.00    +0.000 HD
ENDBRANCH   8  21
ENDBRANCH   1  11
BRANCH   5  23
ATOM     23  C   UNL     1       3.943   5.688  19.173  0.00  0.00    +0.000 A 
ATOM     24  C   UNL     1       5.352   5.637  19.161  0.00  0.00    +0.000 A 
ATOM     25  N   UNL     1       5.820   4.410  19.333  0.00  0.00    +0.000 NA
ATOM     26  N   UNL     1       4.712   3.642  19.410  0.00  0.00    +0.000 N 
ATOM     27  C   UNL     1       4.954   2.225  19.532  0.00  0.00    +0.000 C 
ATOM     28  C   UNL     1       3.528   4.346  19.286  0.00  0.00    +0.000 A 
BRANCH  28  29
ATOM     29  C   UNL     1       2.165   3.847  19.088  0.00  0.00    +0.000 C 
ATOM     30  O   UNL     1       1.668   3.928  17.960  0.00  0.00    +0.000 OA
ATOM     31  N   UNL     1       1.370   3.340  20.132  0.00  0.00    +0.000 N 
ATOM     32  C   UNL     1       1.804   2.940  21.453  0.00  0.00    +0.000 C 
ATOM     33  C   UNL     1      -0.026   3.032  19.832  0.00  0.00    +0.000 C 
ENDBRANCH  28  29
ENDBRANCH   5  23
BRANCH   7  34
ATOM     34  O   UNL     1       0.585   8.475  21.127  0.00  0.00    +0.000 OA
ATOM     35  C   UNL     1       0.981   9.307  22.202  0.00  0.00    +0.000 C 
ENDBRANCH   7  34
TORSDOF 6
ENDMDL
MODEL 7
REMARK VINA RESULT:      -7.6      3.005      4.585
REMARK  Name = 
REMARK  11 active torsions:
REMARK  status: ('A' for Active; 'I' for Inactive)
REMARK    1  A    between atoms: C_1  and  N_2
REMARK    2  A    between atoms: N_2  and  C_3
REMARK    3  A    between atoms: N_6  and  C_7
REMARK    4  A    between atoms: C_11  and  C_12
REMARK    5  A    between atoms: N_15  and  C_16
REMARK    6  A    between atoms: C_17  and  C_18
REMARK    7  A    between atoms: N_20  and  C_21
REMARK    8  A    between atoms: N_20  and  C_22
REMARK    9  A    between atoms: C_24  and  O_25
REMARK   10  A    between atoms: O_25  and  C_26
REMARK   11  A    between atoms: C_29  and  C_30
REMARK                            x       y       z     vdW  Elec       q    Type
REMARK                         _______ _______ _______ _____ _____    ______ ____
ROOT
ATOM      1  C   UNL     1       1.299   9.061  18.793  0.00  0.00    +0.000 A 
ATOM      2  C   UNL     1       2.169   8.601  17.786  0.00  0.00    +0.000 A 
ATOM      3  C   UNL     1       3.000   7.501  17.941  0.00  0.00    +0.000 A 
ATOM      4  F   UNL     1       3.645   7.058  16.853  0.00  0.00    +0.000 F 
ATOM      5  C   UNL     1       3.088   6.845  19.160  0.00  0.00    +0.000 A 
ATOM      6  C   UNL     1       2.260   7.314  20.197  0.00  0.00    +0.000 A 
ATOM      7  C   UNL     1       1.348   8.388  20.026  0.00  0.00    +0.000 A 
ENDROOT
BRANCH   1  11
ATOM      8  C   UNL     1       1.707  13.300  19.249  0.00  0.00    +0.000 A 
ATOM      9  N   UNL     1       1.583  11.973  19.091  0.00  0.00    +0.000 NA
ATOM     10  C   UNL     1       0.444  11.432  18.645  0.00  0.00    +0.000 A 
ATOM     11  N   UNL     1       0.358  10.051  18.467  0.00  0.00    +0.000 N 
ATOM     12  N   UNL     1      -0.624  12.166  18.329  0.00  0.00    +0.000 NA
ATOM     13  C   UNL     1      -0.487  13.502  18.478  0.00  0.00    +0.000 A 
ATOM     14  C   UNL     1       0.661  14.131  18.925  0.00  0.00    +0.000 A 
ATOM     15  H   UNL     1      -0.549   9.787  18.129  0.00  0.00    +0.000 HD
BRANCH  14  16
ATOM     16  C   UNL     1       0.692  15.613  19.005  0.00  0.00    +0.000 C 
ATOM     17  F   UNL     1       1.041  16.132  20.216  0.00  0.00    +0.000 F 
ATOM     18  F   UNL     1       1.594  16.141  18.126  0.00  0.00    +0.000 F 
ATOM     19  F   UNL     1      -0.500  16.186  18.682  0.00  0.00    +0.000 F 
ENDBRANCH  14  16
BRANCH   8  21
ATOM     20  C   UNL     1       3.939  14.152  18.871  0.00  0.00    +0.000 C 
ATOM     21  N   UNL     1       2.890  13.785  19.816  0.00  0.00    +0.000 N 
ATOM     22  H   UNL     1       2.713  14.519  20.496  0.00  0.00    +0.000 HD
ENDBRANCH   8  21
ENDBRANCH   1  11
BRANCH   5  23
ATOM     23  C   UNL     1       3.921   5.656  19.341  0.00  0.00    +0.000 A 
ATOM     24  C   UNL     1       5.323   5.579  19.210  0.00  0.00    +0.000 A 
ATOM     25  N   UNL     1       5.795   4.371  19.482  0.00  0.00    +0.000 NA
ATOM     26  N   UNL     1       4.692   3.638  19.745  0.00  0.00    +0.000 N 
ATOM     27  C   UNL     1       4.933   2.240  20.010  0.00  0.00    +0.000 C 
ATOM     28  C   UNL     1       3.507   4.344  19.646  0.00  0.00    +0.000 A 
BRANCH  28  29
ATOM     29  C   UNL     1       2.128   3.850  19.628  0.00  0.00    +0.000 C 
ATOM     30  O   UNL     1       1.365   4.207  20.532  0.00  0.00    +0.000 OA
ATOM     31  N   UNL     1       1.648   2.938  18.671  0.00  0.00    +0.000 N 
ATOM     32  C   UNL     1       2.269   2.570  17.417  0.00  0.00    +0.000 C 
ATOM     33  C   UNL     1       0.304   2.397  18.864  0.00  0.00    +0.000 C 
ENDBRANCH  28  29
ENDBRANCH   5  23
BRANCH   7  34
ATOM     34  O   UNL     1       0.595   8.572  21.157  0.00  0.00    +0.000 OA
ATOM     35  C   UNL     1       1.075   9.350  22.239  0.00  0.00    +0.000 C 
ENDBRANCH   7  34
TORSDOF 6
ENDMDL
MODEL 8
REMARK VINA RESULT:      -7.6      2.561      4.181
REMARK  Name = 
REMARK  11 active torsions:
REMARK  status: ('A' for Active; 'I' for Inactive)
REMARK    1  A    between atoms: C_1  and  N_2
REMARK    2  A    between atoms: N_2  and  C_3
REMARK    3  A    between atoms: N_6  and  C_7
REMARK    4  A    between atoms: C_11  and  C_12
REMARK    5  A    between atoms: N_15  and  C_16
REMARK    6  A    between atoms: C_17  and  C_18
REMARK    7  A    between atoms: N_20  and  C_21
REMARK    8  A    between atoms: N_20  and  C_22
REMARK    9  A    between atoms: C_24  and  O_25
REMARK   10  A    between atoms: O_25  and  C_26
REMARK   11  A    between atoms: C_29  and  C_30
REMARK                            x       y       z     vdW  Elec       q    Type
REMARK                         _______ _______ _______ _____ _____    ______ ____
ROOT
ATOM      1  C   UNL     1       0.568   9.227  20.149  0.00  0.00    +0.000 A 
ATOM      2  C   UNL     1       1.269   8.158  20.740  0.00  0.00    +0.000 A 
ATOM      3  C   UNL     1       2.150   7.346  20.041  0.00  0.00    +0.000 A 
ATOM      4  F   UNL     1       2.887   6.481  20.751  0.00  0.00    +0.000 F 
ATOM      5  C   UNL     1       2.311   7.489  18.671  0.00  0.00    +0.000 A 
ATOM      6  C   UNL     1       1.587   8.524  18.048  0.00  0.00    +0.000 A 
ATOM      7  C   UNL     1       0.744   9.410  18.767  0.00  0.00    +0.000 A 
ENDROOT
BRANCH   1  11
ATOM      8  C   UNL     1       1.400  13.367  20.864  0.00  0.00    +0.000 A 
ATOM      9  N   UNL     1       1.129  12.074  20.630  0.00  0.00    +0.000 NA
ATOM     10  C   UNL     1       0.136  11.447  21.270  0.00  0.00    +0.000 A 
ATOM     11  N   UNL     1      -0.137  10.109  20.983  0.00  0.00    +0.000 N 
ATOM     12  N   UNL     1      -0.640  12.060  22.167  0.00  0.00    +0.000 NA
ATOM     13  C   UNL     1      -0.368  13.365  22.387  0.00  0.00    +0.000 A 
ATOM     14  C   UNL     1       0.635  14.079  21.757  0.00  0.00    +0.000 A 
ATOM     15  H   UNL     1      -0.904   9.772  21.534  0.00  0.00    +0.000 HD
BRANCH  14  16
ATOM     16  C   UNL     1       0.801  15.522  22.062  0.00  0.00    +0.000 C 
ATOM     17  F   UNL     1       0.669  16.370  21.004  0.00  0.00    +0.000 F 
ATOM     18  F   UNL     1      -0.125  15.950  22.970  0.00  0.00    +0.000 F 
ATOM     19  F   UNL     1       2.010  15.808  22.622  0.00  0.00    +0.000 F 
ENDBRANCH  14  16
BRANCH   8  21
ATOM     20  C   UNL     1       2.337  14.285  18.832  0.00  0.00    +0.000 C 
ATOM     21  N   UNL     1       2.517  13.927  20.234  0.00  0.00    +0.000 N 
ATOM     22  H   UNL     1       2.918  14.688  20.776  0.00  0.00    +0.000 HD
ENDBRANCH   8  21
ENDBRANCH   1  11
BRANCH   5  23
ATOM     23  C   UNL     1       3.266   6.677  17.914  0.00  0.00    +0.000 A 
ATOM     24  C   UNL     1       4.386   7.143  17.195  0.00  0.00    +0.000 A 
ATOM     25  N   UNL     1       5.087   6.159  16.650  0.00  0.00    +0.000 NA
ATOM     26  N   UNL     1       4.395   5.045  16.971  0.00  0.00    +0.000 N 
ATOM     27  C   UNL     1       4.922   3.817  16.428  0.00  0.00    +0.000 C 
ATOM     28  C   UNL     1       3.252   5.283  17.713  0.00  0.00    +0.000 A 
BRANCH  28  29
ATOM     29  C   UNL     1       2.149   4.376  18.040  0.00  0.00    +0.000 C 
ATOM     30  O   UNL     1       1.159   4.365  17.301  0.00  0.00    +0.000 OA
ATOM     31  N   UNL     1       2.133   3.565  19.189  0.00  0.00    +0.000 N 
ATOM     32  C   UNL     1       3.247   3.242  20.054  0.00  0.00    +0.000 C 
ATOM     33  C   UNL     1       0.903   2.835  19.485  0.00  0.00    +0.000 C 
ENDBRANCH  28  29
ENDBRANCH   5  23
BRANCH   7  34
ATOM     34  O   UNL     1       0.243  10.383  17.940  0.00  0.00    +0.000 OA
ATOM     35  C   UNL     1      -1.143  10.464  17.662  0.00  0.00    +0.000 C 
ENDBRANCH   7  34
TORSDOF 6
ENDMDL
MODEL 9
REMARK VINA RESULT:      -7.5      2.294      3.226
REMARK  Name = 
REMARK  11 active torsions:
REMARK  status: ('A' for Active; 'I' for Inactive)
REMARK    1  A    between atoms: C_1  and  N_2
REMARK    2  A    between atoms: N_2  and  C_3
REMARK    3  A    between atoms: N_6  and  C_7
REMARK    4  A    between atoms: C_11  and  C_12
REMARK    5  A    between atoms: N_15  and  C_16
REMARK    6  A    between atoms: C_17  and  C_18
REMARK    7  A    between atoms: N_20  and  C_21
REMARK    8  A    between atoms: N_20  and  C_22
REMARK    9  A    between atoms: C_24  and  O_25
REMARK   10  A    between atoms: O_25  and  C_26
REMARK   11  A    between atoms: C_29  and  C_30
REMARK                            x       y       z     vdW  Elec       q    Type
REMARK                         _______ _______ _______ _____ _____    ______ ____
ROOT
ATOM      1  C   UNL     1       1.564   8.692  19.745  0.00  0.00    +0.000 A 
ATOM      2  C   UNL     1       1.826   7.451  20.356  0.00  0.00    +0.000 A 
ATOM      3  C   UNL     1       2.442   6.394  19.702  0.00  0.00    +0.000 A 
ATOM      4  F   UNL     1       2.796   5.333  20.441  0.00  0.00    +0.000 F 
ATOM      5  C   UNL     1       2.746   6.477  18.352  0.00  0.00    +0.000 A 
ATOM      6  C   UNL     1       2.453   7.693  17.706  0.00  0.00    +0.000 A 
ATOM      7  C   UNL     1       1.896   8.808  18.384  0.00  0.00    +0.000 A 
ENDROOT
BRANCH   1  11
ATOM      8  C   UNL     1      -2.043  10.963  19.326  0.00  0.00    +0.000 A 
ATOM      9  N   UNL     1      -0.920  10.242  19.468  0.00  0.00    +0.000 NA
ATOM     10  C   UNL     1      -0.019  10.543  20.410  0.00  0.00    +0.000 A 
ATOM     11  N   UNL     1       1.125   9.757  20.548  0.00  0.00    +0.000 N 
ATOM     12  N   UNL     1      -0.180  11.560  21.259  0.00  0.00    +0.000 NA
ATOM     13  C   UNL     1      -1.319  12.271  21.117  0.00  0.00    +0.000 A 
ATOM     14  C   UNL     1      -2.298  12.015  20.174  0.00  0.00    +0.000 A 
ATOM     15  H   UNL     1       1.708  10.096  21.291  0.00  0.00    +0.000 HD
BRANCH  14  16
ATOM     16  C   UNL     1      -3.523  12.851  20.151  0.00  0.00    +0.000 C 
ATOM     17  F   UNL     1      -4.201  12.876  18.970  0.00  0.00    +0.000 F 
ATOM     18  F   UNL     1      -4.438  12.420  21.069  0.00  0.00    +0.000 F 
ATOM     19  F   UNL     1      -3.281  14.153  20.472  0.00  0.00    +0.000 F 
ENDBRANCH  14  16
BRANCH   8  21
ATOM     20  C   UNL     1      -2.363  10.956  16.927  0.00  0.00    +0.000 C 
ATOM     21  N   UNL     1      -2.888  10.654  18.254  0.00  0.00    +0.000 N 
ATOM     22  H   UNL     1      -3.250   9.706  18.316  0.00  0.00    +0.000 HD
ENDBRANCH   8  21
ENDBRANCH   1  11
BRANCH   5  23
ATOM     23  C   UNL     1       3.436   5.397  17.645  0.00  0.00    +0.000 A 
ATOM     24  C   UNL     1       2.994   4.066  17.500  0.00  0.00    +0.000 A 
ATOM     25  N   UNL     1       3.817   3.333  16.765  0.00  0.00    +0.000 NA
ATOM     26  N   UNL     1       4.830   4.173  16.467  0.00  0.00    +0.000 N 
ATOM     27  C   UNL     1       5.914   3.587  15.715  0.00  0.00    +0.000 C 
ATOM     28  C   UNL     1       4.687   5.442  16.997  0.00  0.00    +0.000 A 
BRANCH  28  29
ATOM     29  C   UNL     1       5.664   6.530  17.087  0.00  0.00    +0.000 C 
ATOM     30  O   UNL     1       5.553   7.484  16.309  0.00  0.00    +0.000 OA
ATOM     31  N   UNL     1       6.759   6.512  17.969  0.00  0.00    +0.000 N 
ATOM     32  C   UNL     1       6.959   5.638  19.105  0.00  0.00    +0.000 C 
ATOM     33  C   UNL     1       7.750   7.578  17.841  0.00  0.00    +0.000 C 
ENDBRANCH  28  29
ENDBRANCH   5  23
BRANCH   7  34
ATOM     34  O   UNL     1       1.808   9.893  17.549  0.00  0.00    +0.000 OA
ATOM     35  C   UNL     1       2.501  11.094  17.833  0.00  0.00    +0.000 C 
ENDBRANCH   7  34
TORSDOF 6
ENDMDL
