MODEL 1
REMARK VINA RESULT:      -8.2      0.000      0.000
REMARK  Name = 
REMARK  9 active torsions:
REMARK  status: ('A' for Active; 'I' for Inactive)
REMARK    1  A    between atoms: C_2  and  C_3
REMARK    2  A    between atoms: C_2  and  C_25
REMARK    3  A    between atoms: C_3  and  S_4
REMARK    4  A    between atoms: S_4  and  C_5
REMARK    5  A    between atoms: C_8  and  C_9
REMARK    6  A    between atoms: C_9  and  O_10
REMARK    7  A    between atoms: O_10  and  C_11
REMARK    8  A    between atoms: N_18  and  C_19
REMARK    9  A    between atoms: C_19  and  C_20
REMARK                            x       y       z     vdW  Elec       q    Type
REMARK                         _______ _______ _______ _____ _____    ______ ____
ROOT
ATOM      1  C   UNL     1       3.571   6.412  17.797  0.00  0.00    +0.000 A 
ATOM      2  N   UNL     1       3.144   7.495  17.192  0.00  0.00    +0.000 NA
ATOM      3  N   UNL     1       2.375   8.199  18.093  0.00  0.00    +0.000 NA
ATOM      4  C   UNL     1       2.355   7.535  19.236  0.00  0.00    +0.000 A 
ATOM      5  N   UNL     1       3.101   6.382  19.084  0.00  0.00    +0.000 N 
ENDROOT
BRANCH   1   6
ATOM      6  S   UNL     1       4.488   5.135  17.068  0.00  0.00    +0.000 S 
BRANCH   6   7
ATOM      7  C   UNL     1       5.866   6.034  16.278  0.00  0.00    +0.000 C 
BRANCH   7   9
ATOM      8  O   UNL     1       7.877   4.685  16.347  0.00  0.00    +0.000 OA
ATOM      9  C   UNL     1       6.914   5.094  15.696  0.00  0.00    +0.000 C 
BRANCH   9  10
ATOM     10  C   UNL     1       6.775   4.602  14.287  0.00  0.00    +0.000 A 
ATOM     11  C   UNL     1       5.710   3.732  13.996  0.00  0.00    +0.000 A 
ATOM     12  C   UNL     1       5.478   3.286  12.691  0.00  0.00    +0.000 A 
ATOM     13  C   UNL     1       6.310   3.701  11.654  0.00  0.00    +0.000 A 
ATOM     14  C   UNL     1       7.383   4.547  11.931  0.00  0.00    +0.000 A 
ATOM     15  C   UNL     1       7.613   4.988  13.238  0.00  0.00    +0.000 A 
ATOM     16  F   UNL     1       8.658   5.800  13.443  0.00  0.00    +0.000 F 
ENDBRANCH   9  10
ENDBRANCH   7   9
ENDBRANCH   6   7
ENDBRANCH   1   6
BRANCH   4  17
ATOM     17  C   UNL     1       1.667   7.962  20.495  0.00  0.00    +0.000 C 
BRANCH  17  18
ATOM     18  O   UNL     1       1.370   9.347  20.329  0.00  0.00    +0.000 OA
BRANCH  18  19
ATOM     19  C   UNL     1       0.445   9.920  21.156  0.00  0.00    +0.000 A 
ATOM     20  C   UNL     1       0.135   9.531  22.460  0.00  0.00    +0.000 A 
ATOM     21  C   UNL     1      -0.831  10.241  23.190  0.00  0.00    +0.000 A 
ATOM     22  C   UNL     1      -1.483  11.332  22.616  0.00  0.00    +0.000 A 
ATOM     23 CL   UNL     1      -2.665  12.202  23.517  0.00  0.00    +0.000 Cl
ATOM     24  C   UNL     1      -1.182  11.723  21.317  0.00  0.00    +0.000 A 
ATOM     25  C   UNL     1      -0.218  11.016  20.593  0.00  0.00    +0.000 A 
ENDBRANCH  18  19
ENDBRANCH  17  18
ENDBRANCH   4  17
BRANCH   5  26
ATOM     26  C   UNL     1       3.396   5.406  20.114  0.00  0.00    +0.000 C 
BRANCH  26  27
ATOM     27  C   UNL     1       2.342   4.358  20.180  0.00  0.00    +0.000 A 
ATOM     28  C   UNL     1       1.478   3.820  19.249  0.00  0.00    +0.000 A 
ATOM     29  C   UNL     1       0.726   2.827  19.922  0.00  0.00    +0.000 A 
ATOM     30  C   UNL     1       1.184   2.812  21.217  0.00  0.00    +0.000 A 
ATOM     31  O   UNL     1       2.167   3.735  21.383  0.00  0.00    +0.000 OA
ENDBRANCH  26  27
ENDBRANCH   5  26
TORSDOF 9
ENDMDL
MODEL 2
REMARK VINA RESULT:      -8.2      4.642      8.172
REMARK  Name = 
REMARK  9 active torsions:
REMARK  status: ('A' for Active; 'I' for Inactive)
REMARK    1  A    between atoms: C_2  and  C_3
REMARK    2  A    between atoms: C_2  and  C_25
REMARK    3  A    between atoms: C_3  and  S_4
REMARK    4  A    between atoms: S_4  and  C_5
REMARK    5  A    between atoms: C_8  and  C_9
REMARK    6  A    between atoms: C_9  and  O_10
REMARK    7  A    between atoms: O_10  and  C_11
REMARK    8  A    between atoms: N_18  and  C_19
REMARK    9  A    between atoms: C_19  and  C_20
REMARK                            x       y       z     vdW  Elec       q    Type
REMARK                         _______ _______ _______ _____ _____    ______ ____
ROOT
ATOM      1  C   UNL     1       6.186   5.001  18.639  0.00  0.00    +0.000 A 
ATOM      2  N   UNL     1       7.034   5.083  19.636  0.00  0.00    +0.000 NA
ATOM      3  N   UNL     1       7.839   6.178  19.410  0.00  0.00    +0.000 NA
ATOM      4  C   UNL     1       7.461   6.750  18.281  0.00  0.00    +0.000 A 
ATOM      5  N   UNL     1       6.412   6.023  17.752  0.00  0.00    +0.000 N 
ENDROOT
BRANCH   1   6
ATOM      6  S   UNL     1       5.028   3.736  18.390  0.00  0.00    +0.000 S 
BRANCH   6   7
ATOM      7  C   UNL     1       3.668   4.215  19.507  0.00  0.00    +0.000 C 
BRANCH   7   9
ATOM      8  O   UNL     1       1.942   4.456  17.825  0.00  0.00    +0.000 OA
ATOM      9  C   UNL     1       2.548   4.947  18.777  0.00  0.00    +0.000 C 
BRANCH   9  10
ATOM     10  C   UNL     1       2.124   6.308  19.238  0.00  0.00    +0.000 A 
ATOM     11  C   UNL     1       1.663   6.442  20.560  0.00  0.00    +0.000 A 
ATOM     12  C   UNL     1       1.314   7.692  21.080  0.00  0.00    +0.000 A 
ATOM     13  C   UNL     1       1.415   8.832  20.285  0.00  0.00    +0.000 A 
ATOM     14  C   UNL     1       1.850   8.712  18.966  0.00  0.00    +0.000 A 
ATOM     15  C   UNL     1       2.196   7.459  18.449  0.00  0.00    +0.000 A 
ATOM     16  F   UNL     1       2.608   7.406  17.176  0.00  0.00    +0.000 F 
ENDBRANCH   9  10
ENDBRANCH   7   9
ENDBRANCH   6   7
ENDBRANCH   1   6
BRANCH   4  17
ATOM     17  C   UNL     1       8.043   7.991  17.679  0.00  0.00    +0.000 C 
BRANCH  17  18
ATOM     18  O   UNL     1       8.655   8.699  18.756  0.00  0.00    +0.000 OA
BRANCH  18  19
ATOM     19  C   UNL     1       8.922  10.029  18.595  0.00  0.00    +0.000 A 
ATOM     20  C   UNL     1       8.286  10.909  17.718  0.00  0.00    +0.000 A 
ATOM     21  C   UNL     1       8.664  12.260  17.688  0.00  0.00    +0.000 A 
ATOM     22  C   UNL     1       9.676  12.726  18.528  0.00  0.00    +0.000 A 
ATOM     23 CL   UNL     1      10.134  14.385  18.490  0.00  0.00    +0.000 Cl
ATOM     24  C   UNL     1      10.317  11.855  19.401  0.00  0.00    +0.000 A 
ATOM     25  C   UNL     1       9.936  10.510  19.432  0.00  0.00    +0.000 A 
ENDBRANCH  18  19
ENDBRANCH  17  18
ENDBRANCH   4  17
BRANCH   5  26
ATOM     26  C   UNL     1       5.655   6.345  16.559  0.00  0.00    +0.000 C 
BRANCH  26  27
ATOM     27  C   UNL     1       6.041   5.466  15.423  0.00  0.00    +0.000 A 
ATOM     28  C   UNL     1       5.398   4.450  14.746  0.00  0.00    +0.000 A 
ATOM     29  C   UNL     1       6.286   4.014  13.733  0.00  0.00    +0.000 A 
ATOM     30  C   UNL     1       7.409   4.797  13.845  0.00  0.00    +0.000 A 
ATOM     31  O   UNL     1       7.270   5.684  14.865  0.00  0.00    +0.000 OA
ENDBRANCH  26  27
ENDBRANCH   5  26
TORSDOF 9
ENDMDL
MODEL 3
REMARK VINA RESULT:      -8.2      0.771      1.218
REMARK  Name = 
REMARK  9 active torsions:
REMARK  status: ('A' for Active; 'I' for Inactive)
REMARK    1  A    between atoms: C_2  and  C_3
REMARK    2  A    between atoms: C_2  and  C_25
REMARK    3  A    between atoms: C_3  and  S_4
REMARK    4  A    between atoms: S_4  and  C_5
REMARK    5  A    between atoms: C_8  and  C_9
REMARK    6  A    between atoms: C_9  and  O_10
REMARK    7  A    between atoms: O_10  and  C_11
REMARK    8  A    between atoms: N_18  and  C_19
REMARK    9  A    between atoms: C_19  and  C_20
REMARK                            x       y       z     vdW  Elec       q    Type
REMARK                         _______ _______ _______ _____ _____    ______ ____
ROOT
ATOM      1  C   UNL     1       3.558   6.289  18.072  0.00  0.00    +0.000 A 
ATOM      2  N   UNL     1       3.243   7.467  17.589  0.00  0.00    +0.000 NA
ATOM      3  N   UNL     1       2.426   8.089  18.507  0.00  0.00    +0.000 NA
ATOM      4  C   UNL     1       2.265   7.281  19.541  0.00  0.00    +0.000 A 
ATOM      5  N   UNL     1       2.965   6.115  19.297  0.00  0.00    +0.000 N 
ENDROOT
BRANCH   1   6
ATOM      6  S   UNL     1       4.478   5.068  17.256  0.00  0.00    +0.000 S 
BRANCH   6   7
ATOM      7  C   UNL     1       5.552   6.048  16.154  0.00  0.00    +0.000 C 
BRANCH   7   9
ATOM      8  O   UNL     1       7.734   5.003  16.285  0.00  0.00    +0.000 OA
ATOM      9  C   UNL     1       6.726   5.237  15.618  0.00  0.00    +0.000 C 
BRANCH   9  10
ATOM     10  C   UNL     1       6.663   4.660  14.236  0.00  0.00    +0.000 A 
ATOM     11  C   UNL     1       5.600   3.792  13.933  0.00  0.00    +0.000 A 
ATOM     12  C   UNL     1       5.439   3.268  12.646  0.00  0.00    +0.000 A 
ATOM     13  C   UNL     1       6.343   3.602  11.639  0.00  0.00    +0.000 A 
ATOM     14  C   UNL     1       7.414   4.444  11.931  0.00  0.00    +0.000 A 
ATOM     15  C   UNL     1       7.573   4.963  13.220  0.00  0.00    +0.000 A 
ATOM     16  F   UNL     1       8.621   5.768  13.440  0.00  0.00    +0.000 F 
ENDBRANCH   9  10
ENDBRANCH   7   9
ENDBRANCH   6   7
ENDBRANCH   1   6
BRANCH   4  17
ATOM     17  C   UNL     1       1.481   7.576  20.781  0.00  0.00    +0.000 C 
BRANCH  17  18
ATOM     18  O   UNL     1       1.824   8.910  21.153  0.00  0.00    +0.000 OA
BRANCH  18  19
ATOM     19  C   UNL     1       0.822   9.760  21.530  0.00  0.00    +0.000 A 
ATOM     20  C   UNL     1       0.364  10.875  20.827  0.00  0.00    +0.000 A 
ATOM     21  C   UNL     1      -0.695  11.639  21.342  0.00  0.00    +0.000 A 
ATOM     22  C   UNL     1      -1.289  11.289  22.554  0.00  0.00    +0.000 A 
ATOM     23 CL   UNL     1      -2.590  12.226  23.180  0.00  0.00    +0.000 Cl
ATOM     24  C   UNL     1      -0.835  10.182  23.262  0.00  0.00    +0.000 A 
ATOM     25  C   UNL     1       0.218   9.421  22.746  0.00  0.00    +0.000 A 
ENDBRANCH  18  19
ENDBRANCH  17  18
ENDBRANCH   4  17
BRANCH   5  26
ATOM     26  C   UNL     1       3.113   4.994  20.203  0.00  0.00    +0.000 C 
BRANCH  26  27
ATOM     27  C   UNL     1       2.445   3.777  19.667  0.00  0.00    +0.000 A 
ATOM     28  C   UNL     1       2.829   2.457  19.545  0.00  0.00    +0.000 A 
ATOM     29  C   UNL     1       1.732   1.768  18.975  0.00  0.00    +0.000 A 
ATOM     30  C   UNL     1       0.743   2.705  18.794  0.00  0.00    +0.000 A 
ATOM     31  O   UNL     1       1.164   3.926  19.215  0.00  0.00    +0.000 OA
ENDBRANCH  26  27
ENDBRANCH   5  26
TORSDOF 9
ENDMDL
MODEL 4
REMARK VINA RESULT:      -8.0      4.729      7.504
REMARK  Name = 
REMARK  9 active torsions:
REMARK  status: ('A' for Active; 'I' for Inactive)
REMARK    1  A    between atoms: C_2  and  C_3
REMARK    2  A    between atoms: C_2  and  C_25
REMARK    3  A    between atoms: C_3  and  S_4
REMARK    4  A    between atoms: S_4  and  C_5
REMARK    5  A    between atoms: C_8  and  C_9
REMARK    6  A    between atoms: C_9  and  O_10
REMARK    7  A    between atoms: O_10  and  C_11
REMARK    8  A    between atoms: N_18  and  C_19
REMARK    9  A    between atoms: C_19  and  C_20
REMARK                            x       y       z     vdW  Elec       q    Type
REMARK                         _______ _______ _______ _____ _____    ______ ____
ROOT
ATOM      1  C   UNL     1       6.103   5.202  16.196  0.00  0.00    +0.000 A 
ATOM      2  N   UNL     1       7.054   5.579  15.376  0.00  0.00    +0.000 NA
ATOM      3  N   UNL     1       7.805   6.537  16.021  0.00  0.00    +0.000 NA
ATOM      4  C   UNL     1       7.303   6.720  17.229  0.00  0.00    +0.000 A 
ATOM      5  N   UNL     1       6.208   5.891  17.377  0.00  0.00    +0.000 N 
ENDROOT
BRANCH   1   6
ATOM      6  S   UNL     1       4.822   4.095  15.828  0.00  0.00    +0.000 S 
BRANCH   6   7
ATOM      7  C   UNL     1       4.654   3.149  17.379  0.00  0.00    +0.000 C 
BRANCH   7   9
ATOM      8  O   UNL     1       2.435   2.338  16.844  0.00  0.00    +0.000 OA
ATOM      9  C   UNL     1       3.204   2.797  17.689  0.00  0.00    +0.000 C 
BRANCH   9  10
ATOM     10  C   UNL     1       2.676   2.973  19.080  0.00  0.00    +0.000 A 
ATOM     11  C   UNL     1       1.418   3.582  19.235  0.00  0.00    +0.000 A 
ATOM     12  C   UNL     1       0.832   3.720  20.497  0.00  0.00    +0.000 A 
ATOM     13  C   UNL     1       1.496   3.252  21.629  0.00  0.00    +0.000 A 
ATOM     14  C   UNL     1       2.753   2.665  21.494  0.00  0.00    +0.000 A 
ATOM     15  C   UNL     1       3.337   2.532  20.230  0.00  0.00    +0.000 A 
ATOM     16  F   UNL     1       4.546   1.959  20.162  0.00  0.00    +0.000 F 
ENDBRANCH   9  10
ENDBRANCH   7   9
ENDBRANCH   6   7
ENDBRANCH   1   6
BRANCH   4  17
ATOM     17  C   UNL     1       7.837   7.645  18.279  0.00  0.00    +0.000 C 
BRANCH  17  18
ATOM     18  O   UNL     1       8.101   8.880  17.615  0.00  0.00    +0.000 OA
BRANCH  18  19
ATOM     19  C   UNL     1       8.627   9.911  18.340  0.00  0.00    +0.000 A 
ATOM     20  C   UNL     1       9.230   9.828  19.596  0.00  0.00    +0.000 A 
ATOM     21  C   UNL     1       9.743  10.984  20.203  0.00  0.00    +0.000 A 
ATOM     22  C   UNL     1       9.651  12.217  19.557  0.00  0.00    +0.000 A 
ATOM     23 CL   UNL     1      10.285  13.633  20.303  0.00  0.00    +0.000 Cl
ATOM     24  C   UNL     1       9.049  12.309  18.308  0.00  0.00    +0.000 A 
ATOM     25  C   UNL     1       8.540  11.155  17.704  0.00  0.00    +0.000 A 
ENDBRANCH  18  19
ENDBRANCH  17  18
ENDBRANCH   4  17
BRANCH   5  26
ATOM     26  C   UNL     1       5.409   5.726  18.575  0.00  0.00    +0.000 C 
BRANCH  26  27
ATOM     27  C   UNL     1       4.164   6.538  18.507  0.00  0.00    +0.000 A 
ATOM     28  C   UNL     1       3.630   7.382  17.555  0.00  0.00    +0.000 A 
ATOM     29  C   UNL     1       2.393   7.840  18.069  0.00  0.00    +0.000 A 
ATOM     30  C   UNL     1       2.242   7.240  19.295  0.00  0.00    +0.000 A 
ATOM     31  O   UNL     1       3.309   6.445  19.569  0.00  0.00    +0.000 OA
ENDBRANCH  26  27
ENDBRANCH   5  26
TORSDOF 9
ENDMDL
MODEL 5
REMARK VINA RESULT:      -7.9      1.059      1.204
REMARK  Name = 
REMARK  9 active torsions:
REMARK  status: ('A' for Active; 'I' for Inactive)
REMARK    1  A    between atoms: C_2  and  C_3
REMARK    2  A    between atoms: C_2  and  C_25
REMARK    3  A    between atoms: C_3  and  S_4
REMARK    4  A    between atoms: S_4  and  C_5
REMARK    5  A    between atoms: C_8  and  C_9
REMARK    6  A    between atoms: C_9  and  O_10
REMARK    7  A    between atoms: O_10  and  C_11
REMARK    8  A    between atoms: N_18  and  C_19
REMARK    9  A    between atoms: C_19  and  C_20
REMARK                            x       y       z     vdW  Elec       q    Type
REMARK                         _______ _______ _______ _____ _____    ______ ____
ROOT
ATOM      1  C   UNL     1       4.762   5.983  18.197  0.00  0.00    +0.000 A 
ATOM      2  N   UNL     1       4.667   7.015  17.392  0.00  0.00    +0.000 NA
ATOM      3  N   UNL     1       3.487   7.663  17.684  0.00  0.00    +0.000 NA
ATOM      4  C   UNL     1       2.887   7.018  18.670  0.00  0.00    +0.000 A 
ATOM      5  N   UNL     1       3.666   5.933  19.020  0.00  0.00    +0.000 N 
ENDROOT
BRANCH   1   6
ATOM      6  S   UNL     1       6.009   4.780  18.164  0.00  0.00    +0.000 S 
BRANCH   6   7
ATOM      7  C   UNL     1       5.866   4.102  16.476  0.00  0.00    +0.000 C 
BRANCH   7   9
ATOM      8  O   UNL     1       7.449   5.803  15.793  0.00  0.00    +0.000 OA
ATOM      9  C   UNL     1       6.717   4.866  15.470  0.00  0.00    +0.000 C 
BRANCH   9  10
ATOM     10  C   UNL     1       6.711   4.460  14.028  0.00  0.00    +0.000 A 
ATOM     11  C   UNL     1       5.706   3.578  13.597  0.00  0.00    +0.000 A 
ATOM     12  C   UNL     1       5.597   3.207  12.253  0.00  0.00    +0.000 A 
ATOM     13  C   UNL     1       6.495   3.712  11.315  0.00  0.00    +0.000 A 
ATOM     14  C   UNL     1       7.511   4.571  11.731  0.00  0.00    +0.000 A 
ATOM     15  C   UNL     1       7.618   4.937  13.077  0.00  0.00    +0.000 A 
ATOM     16  F   UNL     1       8.613   5.766  13.417  0.00  0.00    +0.000 F 
ENDBRANCH   9  10
ENDBRANCH   7   9
ENDBRANCH   6   7
ENDBRANCH   1   6
BRANCH   4  17
ATOM     17  C   UNL     1       1.596   7.404  19.323  0.00  0.00    +0.000 C 
BRANCH  17  18
ATOM     18  O   UNL     1       1.688   8.805  19.576  0.00  0.00    +0.000 OA
BRANCH  18  19
ATOM     19  C   UNL     1       0.886   9.347  20.540  0.00  0.00    +0.000 A 
ATOM     20  C   UNL     1       0.788   8.940  21.872  0.00  0.00    +0.000 A 
ATOM     21  C   UNL     1      -0.072   9.620  22.748  0.00  0.00    +0.000 A 
ATOM     22  C   UNL     1      -0.831  10.698  22.293  0.00  0.00    +0.000 A 
ATOM     23 CL   UNL     1      -1.882  11.531  23.372  0.00  0.00    +0.000 Cl
ATOM     24  C   UNL     1      -0.741  11.107  20.967  0.00  0.00    +0.000 A 
ATOM     25  C   UNL     1       0.119  10.430  20.097  0.00  0.00    +0.000 A 
ENDBRANCH  18  19
ENDBRANCH  17  18
ENDBRANCH   4  17
BRANCH   5  26
ATOM     26  C   UNL     1       3.411   5.003  20.102  0.00  0.00    +0.000 C 
BRANCH  26  27
ATOM     27  C   UNL     1       2.408   3.979  19.705  0.00  0.00    +0.000 A 
ATOM     28  C   UNL     1       1.151   3.650  20.171  0.00  0.00    +0.000 A 
ATOM     29  C   UNL     1       0.683   2.590  19.357  0.00  0.00    +0.000 A 
ATOM     30  C   UNL     1       1.676   2.346  18.439  0.00  0.00    +0.000 A 
ATOM     31  O   UNL     1       2.725   3.185  18.640  0.00  0.00    +0.000 OA
ENDBRANCH  26  27
ENDBRANCH   5  26
TORSDOF 9
ENDMDL
MODEL 6
REMARK VINA RESULT:      -7.8      4.772      7.604
REMARK  Name = 
REMARK  9 active torsions:
REMARK  status: ('A' for Active; 'I' for Inactive)
REMARK    1  A    between atoms: C_2  and  C_3
REMARK    2  A    between atoms: C_2  and  C_25
REMARK    3  A    between atoms: C_3  and  S_4
REMARK    4  A    between atoms: S_4  and  C_5
REMARK    5  A    between atoms: C_8  and  C_9
REMARK    6  A    between atoms: C_9  and  O_10
REMARK    7  A    between atoms: O_10  and  C_11
REMARK    8  A    between atoms: N_18  and  C_19
REMARK    9  A    between atoms: C_19  and  C_20
REMARK                            x       y       z     vdW  Elec       q    Type
REMARK                         _______ _______ _______ _____ _____    ______ ____
ROOT
ATOM      1  C   UNL     1       6.492   5.020  16.802  0.00  0.00    +0.000 A 
ATOM      2  N   UNL     1       7.604   4.845  17.475  0.00  0.00    +0.000 NA
ATOM      3  N   UNL     1       8.046   6.086  17.879  0.00  0.00    +0.000 NA
ATOM      4  C   UNL     1       7.188   6.996  17.451  0.00  0.00    +0.000 A 
ATOM      5  N   UNL     1       6.185   6.355  16.750  0.00  0.00    +0.000 N 
ENDROOT
BRANCH   1   6
ATOM      6  S   UNL     1       5.593   3.784  15.985  0.00  0.00    +0.000 S 
BRANCH   6   7
ATOM      7  C   UNL     1       4.049   3.708  16.954  0.00  0.00    +0.000 C 
BRANCH   7   9
ATOM      8  O   UNL     1       5.426   3.184  18.876  0.00  0.00    +0.000 OA
ATOM      9  C   UNL     1       4.296   3.343  18.412  0.00  0.00    +0.000 C 
BRANCH   9  10
ATOM     10  C   UNL     1       3.138   3.199  19.351  0.00  0.00    +0.000 A 
ATOM     11  C   UNL     1       3.384   2.649  20.621  0.00  0.00    +0.000 A 
ATOM     12  C   UNL     1       2.365   2.546  21.574  0.00  0.00    +0.000 A 
ATOM     13  C   UNL     1       1.079   2.989  21.271  0.00  0.00    +0.000 A 
ATOM     14  C   UNL     1       0.815   3.517  20.008  0.00  0.00    +0.000 A 
ATOM     15  C   UNL     1       1.837   3.616  19.057  0.00  0.00    +0.000 A 
ATOM     16  F   UNL     1       1.523   4.133  17.862  0.00  0.00    +0.000 F 
ENDBRANCH   9  10
ENDBRANCH   7   9
ENDBRANCH   6   7
ENDBRANCH   1   6
BRANCH   4  17
ATOM     17  C   UNL     1       7.265   8.470  17.700  0.00  0.00    +0.000 C 
BRANCH  17  18
ATOM     18  O   UNL     1       8.466   8.680  18.441  0.00  0.00    +0.000 OA
BRANCH  18  19
ATOM     19  C   UNL     1       8.861   9.964  18.693  0.00  0.00    +0.000 A 
ATOM     20  C   UNL     1       9.594  10.412  19.793  0.00  0.00    +0.000 A 
ATOM     21  C   UNL     1       9.940  11.768  19.896  0.00  0.00    +0.000 A 
ATOM     22  C   UNL     1       9.553  12.670  18.905  0.00  0.00    +0.000 A 
ATOM     23 CL   UNL     1       9.983  14.332  19.034  0.00  0.00    +0.000 Cl
ATOM     24  C   UNL     1       8.819  12.232  17.809  0.00  0.00    +0.000 A 
ATOM     25  C   UNL     1       8.477  10.880  17.707  0.00  0.00    +0.000 A 
ENDBRANCH  18  19
ENDBRANCH  17  18
ENDBRANCH   4  17
BRANCH   5  26
ATOM     26  C   UNL     1       5.008   6.974  16.172  0.00  0.00    +0.000 C 
BRANCH  26  27
ATOM     27  C   UNL     1       3.973   7.233  17.208  0.00  0.00    +0.000 A 
ATOM     28  C   UNL     1       3.710   6.685  18.448  0.00  0.00    +0.000 A 
ATOM     29  C   UNL     1       2.593   7.381  18.968  0.00  0.00    +0.000 A 
ATOM     30  C   UNL     1       2.250   8.317  18.023  0.00  0.00    +0.000 A 
ATOM     31  O   UNL     1       3.083   8.238  16.953  0.00  0.00    +0.000 OA
ENDBRANCH  26  27
ENDBRANCH   5  26
TORSDOF 9
ENDMDL
MODEL 7
REMARK VINA RESULT:      -7.8      4.787      7.686
REMARK  Name = 
REMARK  9 active torsions:
REMARK  status: ('A' for Active; 'I' for Inactive)
REMARK    1  A    between atoms: C_2  and  C_3
REMARK    2  A    between atoms: C_2  and  C_25
REMARK    3  A    between atoms: C_3  and  S_4
REMARK    4  A    between atoms: S_4  and  C_5
REMARK    5  A    between atoms: C_8  and  C_9
REMARK    6  A    between atoms: C_9  and  O_10
REMARK    7  A    between atoms: O_10  and  C_11
REMARK    8  A    between atoms: N_18  and  C_19
REMARK    9  A    between atoms: C_19  and  C_20
REMARK                            x       y       z     vdW  Elec       q    Type
REMARK                         _______ _______ _______ _____ _____    ______ ____
ROOT
ATOM      1  C   UNL     1       6.055   5.111  16.218  0.00  0.00    +0.000 A 
ATOM      2  N   UNL     1       6.992   5.447  15.364  0.00  0.00    +0.000 NA
ATOM      3  N   UNL     1       7.790   6.392  15.972  0.00  0.00    +0.000 NA
ATOM      4  C   UNL     1       7.329   6.609  17.191  0.00  0.00    +0.000 A 
ATOM      5  N   UNL     1       6.215   5.815  17.384  0.00  0.00    +0.000 N 
ENDROOT
BRANCH   1   6
ATOM      6  S   UNL     1       4.732   4.037  15.905  0.00  0.00    +0.000 S 
BRANCH   6   7
ATOM      7  C   UNL     1       4.639   3.059  17.442  0.00  0.00    +0.000 C 
BRANCH   7   9
ATOM      8  O   UNL     1       2.502   2.041  16.928  0.00  0.00    +0.000 OA
ATOM      9  C   UNL     1       3.219   2.605  17.756  0.00  0.00    +0.000 C 
BRANCH   9  10
ATOM     10  C   UNL     1       2.658   2.809  19.130  0.00  0.00    +0.000 A 
ATOM     11  C   UNL     1       1.327   3.249  19.240  0.00  0.00    +0.000 A 
ATOM     12  C   UNL     1       0.716   3.397  20.489  0.00  0.00    +0.000 A 
ATOM     13  C   UNL     1       1.427   3.111  21.652  0.00  0.00    +0.000 A 
ATOM     14  C   UNL     1       2.754   2.694  21.560  0.00  0.00    +0.000 A 
ATOM     15  C   UNL     1       3.363   2.550  20.309  0.00  0.00    +0.000 A 
ATOM     16  F   UNL     1       4.639   2.146  20.283  0.00  0.00    +0.000 F 
ENDBRANCH   9  10
ENDBRANCH   7   9
ENDBRANCH   6   7
ENDBRANCH   1   6
BRANCH   4  17
ATOM     17  C   UNL     1       7.919   7.533  18.209  0.00  0.00    +0.000 C 
BRANCH  17  18
ATOM     18  O   UNL     1       7.537   8.849  17.812  0.00  0.00    +0.000 OA
BRANCH  18  19
ATOM     19  C   UNL     1       8.329   9.899  18.184  0.00  0.00    +0.000 A 
ATOM     20  C   UNL     1       8.408  11.147  17.564  0.00  0.00    +0.000 A 
ATOM     21  C   UNL     1       9.261  12.133  18.085  0.00  0.00    +0.000 A 
ATOM     22  C   UNL     1      10.031  11.869  19.218  0.00  0.00    +0.000 A 
ATOM     23 CL   UNL     1      11.072  13.082  19.855  0.00  0.00    +0.000 Cl
ATOM     24  C   UNL     1       9.960  10.627  19.838  0.00  0.00    +0.000 A 
ATOM     25  C   UNL     1       9.108   9.647  19.319  0.00  0.00    +0.000 A 
ENDBRANCH  18  19
ENDBRANCH  17  18
ENDBRANCH   4  17
BRANCH   5  26
ATOM     26  C   UNL     1       5.446   5.692  18.607  0.00  0.00    +0.000 C 
BRANCH  26  27
ATOM     27  C   UNL     1       4.179   6.467  18.526  0.00  0.00    +0.000 A 
ATOM     28  C   UNL     1       3.016   6.466  19.269  0.00  0.00    +0.000 A 
ATOM     29  C   UNL     1       2.178   7.461  18.709  0.00  0.00    +0.000 A 
ATOM     30  C   UNL     1       2.884   8.015  17.668  0.00  0.00    +0.000 A 
ATOM     31  O   UNL     1       4.101   7.421  17.552  0.00  0.00    +0.000 OA
ENDBRANCH  26  27
ENDBRANCH   5  26
TORSDOF 9
ENDMDL
MODEL 8
REMARK VINA RESULT:      -7.7      6.148     11.603
REMARK  Name = 
REMARK  9 active torsions:
REMARK  status: ('A' for Active; 'I' for Inactive)
REMARK    1  A    between atoms: C_2  and  C_3
REMARK    2  A    between atoms: C_2  and  C_25
REMARK    3  A    between atoms: C_3  and  S_4
REMARK    4  A    between atoms: S_4  and  C_5
REMARK    5  A    between atoms: C_8  and  C_9
REMARK    6  A    between atoms: C_9  and  O_10
REMARK    7  A    between atoms: O_10  and  C_11
REMARK    8  A    between atoms: N_18  and  C_19
REMARK    9  A    between atoms: C_19  and  C_20
REMARK                            x       y       z     vdW  Elec       q    Type
REMARK                         _______ _______ _______ _____ _____    ______ ____
ROOT
ATOM      1  C   UNL     1      -0.401  11.228  22.284  0.00  0.00    +0.000 A 
ATOM      2  N   UNL     1      -0.133  10.286  23.157  0.00  0.00    +0.000 NA
ATOM      3  N   UNL     1       0.490   9.259  22.484  0.00  0.00    +0.000 NA
ATOM      4  C   UNL     1       0.600   9.597  21.211  0.00  0.00    +0.000 A 
ATOM      5  N   UNL     1       0.034  10.846  21.041  0.00  0.00    +0.000 N 
ENDROOT
BRANCH   1   6
ATOM      6  S   UNL     1      -1.279  12.688  22.600  0.00  0.00    +0.000 S 
BRANCH   6   7
ATOM      7  C   UNL     1      -2.840  12.069  23.314  0.00  0.00    +0.000 C 
BRANCH   7   9
ATOM      8  O   UNL     1      -3.811  14.222  23.851  0.00  0.00    +0.000 OA
ATOM      9  C   UNL     1      -3.939  13.124  23.308  0.00  0.00    +0.000 C 
BRANCH   9  10
ATOM     10  C   UNL     1      -5.226  12.855  22.590  0.00  0.00    +0.000 A 
ATOM     11  C   UNL     1      -5.173  12.642  21.202  0.00  0.00    +0.000 A 
ATOM     12  C   UNL     1      -6.324  12.320  20.476  0.00  0.00    +0.000 A 
ATOM     13  C   UNL     1      -7.551  12.208  21.126  0.00  0.00    +0.000 A 
ATOM     14  C   UNL     1      -7.623  12.437  22.500  0.00  0.00    +0.000 A 
ATOM     15  C   UNL     1      -6.469  12.762  23.221  0.00  0.00    +0.000 A 
ATOM     16  F   UNL     1      -6.600  12.970  24.538  0.00  0.00    +0.000 F 
ENDBRANCH   9  10
ENDBRANCH   7   9
ENDBRANCH   6   7
ENDBRANCH   1   6
BRANCH   4  17
ATOM     17  C   UNL     1       1.248   8.786  20.132  0.00  0.00    +0.000 C 
BRANCH  17  18
ATOM     18  O   UNL     1       1.873   7.686  20.791  0.00  0.00    +0.000 OA
BRANCH  18  19
ATOM     19  C   UNL     1       1.976   6.499  20.123  0.00  0.00    +0.000 A 
ATOM     20  C   UNL     1       1.595   5.240  20.590  0.00  0.00    +0.000 A 
ATOM     21  C   UNL     1       1.748   4.113  19.767  0.00  0.00    +0.000 A 
ATOM     22  C   UNL     1       2.282   4.246  18.486  0.00  0.00    +0.000 A 
ATOM     23 CL   UNL     1       2.464   2.862  17.479  0.00  0.00    +0.000 Cl
ATOM     24  C   UNL     1       2.667   5.496  18.015  0.00  0.00    +0.000 A 
ATOM     25  C   UNL     1       2.512   6.617  18.835  0.00  0.00    +0.000 A 
ENDBRANCH  18  19
ENDBRANCH  17  18
ENDBRANCH   4  17
BRANCH   5  26
ATOM     26  C   UNL     1       0.004  11.618  19.814  0.00  0.00    +0.000 C 
BRANCH  26  27
ATOM     27  C   UNL     1      -1.147  11.224  18.958  0.00  0.00    +0.000 A 
ATOM     28  C   UNL     1      -1.317  10.273  17.973  0.00  0.00    +0.000 A 
ATOM     29  C   UNL     1      -2.663  10.369  17.546  0.00  0.00    +0.000 A 
ATOM     30  C   UNL     1      -3.235  11.363  18.303  0.00  0.00    +0.000 A 
ATOM     31  O   UNL     1      -2.324  11.885  19.165  0.00  0.00    +0.000 OA
ENDBRANCH  26  27
ENDBRANCH   5  26
TORSDOF 9
ENDMDL
MODEL 9
REMARK VINA RESULT:      -7.7      4.831      7.257
REMARK  Name = 
REMARK  9 active torsions:
REMARK  status: ('A' for Active; 'I' for Inactive)
REMARK    1  A    between atoms: C_2  and  C_3
REMARK    2  A    between atoms: C_2  and  C_25
REMARK    3  A    between atoms: C_3  and  S_4
REMARK    4  A    between atoms: S_4  and  C_5
REMARK    5  A    between atoms: C_8  and  C_9
REMARK    6  A    between atoms: C_9  and  O_10
REMARK    7  A    between atoms: O_10  and  C_11
REMARK    8  A    between atoms: N_18  and  C_19
REMARK    9  A    between atoms: C_19  and  C_20
REMARK                            x       y       z     vdW  Elec       q    Type
REMARK                         _______ _______ _______ _____ _____    ______ ____
ROOT
ATOM      1  C   UNL     1       6.958   6.431  17.878  0.00  0.00    +0.000 A 
ATOM      2  N   UNL     1       7.230   5.891  19.043  0.00  0.00    +0.000 NA
ATOM      3  N   UNL     1       6.252   4.958  19.308  0.00  0.00    +0.000 NA
ATOM      4  C   UNL     1       5.405   4.938  18.293  0.00  0.00    +0.000 A 
ATOM      5  N   UNL     1       5.817   5.872  17.363  0.00  0.00    +0.000 N 
ENDROOT
BRANCH   1   6
ATOM      6  S   UNL     1       7.821   7.737  17.137  0.00  0.00    +0.000 S 
BRANCH   6   7
ATOM      7  C   UNL     1       8.494   8.638  18.574  0.00  0.00    +0.000 C 
BRANCH   7   9
ATOM      8  O   UNL     1       7.858  10.771  17.618  0.00  0.00    +0.000 OA
ATOM      9  C   UNL     1       8.657  10.128  18.301  0.00  0.00    +0.000 C 
BRANCH   9  10
ATOM     10  C   UNL     1       9.807  10.875  18.903  0.00  0.00    +0.000 A 
ATOM     11  C   UNL     1      10.864  11.252  18.056  0.00  0.00    +0.000 A 
ATOM     12  C   UNL     1      11.939  12.008  18.533  0.00  0.00    +0.000 A 
ATOM     13  C   UNL     1      11.978  12.399  19.870  0.00  0.00    +0.000 A 
ATOM     14  C   UNL     1      10.948  12.014  20.727  0.00  0.00    +0.000 A 
ATOM     15  C   UNL     1       9.876  11.255  20.246  0.00  0.00    +0.000 A 
ATOM     16  F   UNL     1       8.916  10.916  21.116  0.00  0.00    +0.000 F 
ENDBRANCH   9  10
ENDBRANCH   7   9
ENDBRANCH   6   7
ENDBRANCH   1   6
BRANCH   4  17
ATOM     17  C   UNL     1       4.214   4.042  18.152  0.00  0.00    +0.000 C 
BRANCH  17  18
ATOM     18  O   UNL     1       3.143   4.880  17.721  0.00  0.00    +0.000 OA
BRANCH  18  19
ATOM     19  C   UNL     1       2.661   5.820  18.588  0.00  0.00    +0.000 A 
ATOM     20  C   UNL     1       2.550   7.192  18.356  0.00  0.00    +0.000 A 
ATOM     21  C   UNL     1       2.010   8.026  19.347  0.00  0.00    +0.000 A 
ATOM     22  C   UNL     1       1.586   7.490  20.563  0.00  0.00    +0.000 A 
ATOM     23 CL   UNL     1       0.920   8.516  21.774  0.00  0.00    +0.000 Cl
ATOM     24  C   UNL     1       1.696   6.125  20.802  0.00  0.00    +0.000 A 
ATOM     25  C   UNL     1       2.232   5.295  19.813  0.00  0.00    +0.000 A 
ENDBRANCH  18  19
ENDBRANCH  17  18
ENDBRANCH   4  17
BRANCH   5  26
ATOM     26  C   UNL     1       5.212   6.125  16.070  0.00  0.00    +0.000 C 
BRANCH  26  27
ATOM     27  C   UNL     1       5.792   5.243  15.022  0.00  0.00    +0.000 A 
ATOM     28  C   UNL     1       7.077   5.028  14.565  0.00  0.00    +0.000 A 
ATOM     29  C   UNL     1       6.987   4.037  13.559  0.00  0.00    +0.000 A 
ATOM     30  C   UNL     1       5.658   3.699  13.471  0.00  0.00    +0.000 A 
ATOM     31  O   UNL     1       4.925   4.422  14.358  0.00  0.00    +0.000 OA
ENDBRANCH  26  27
ENDBRANCH   5  26
TORSDOF 9
ENDMDL
