MODEL 1
REMARK VINA RESULT:      -9.5      0.000      0.000
REMARK  Name = 
REMARK  6 active torsions:
REMARK  status: ('A' for Active; 'I' for Inactive)
REMARK    1  A    between atoms: C_2  and  C_5
REMARK    2  A    between atoms: C_9  and  C_10
REMARK    3  A    between atoms: C_13  and  S_14
REMARK    4  A    between atoms: S_14  and  C_15
REMARK    5  A    between atoms: C_20  and  S_21
REMARK    6  A    between atoms: S_21  and  C_22
REMARK                            x       y       z     vdW  Elec       q    Type
REMARK                         _______ _______ _______ _____ _____    ______ ____
ROOT
ATOM      1  C   UNL     1       8.781   9.569  18.532  0.00  0.00    +0.000 A 
ATOM      2  N   UNL     1       7.995   9.429  17.478  0.00  0.00    +0.000 NA
ATOM      3  N   UNL     1       7.566   8.120  17.418  0.00  0.00    +0.000 NA
ATOM      4  C   UNL     1       8.089   7.494  18.444  0.00  0.00    +0.000 A 
ATOM      5  N   UNL     1       8.851   8.354  19.172  0.00  0.00    +0.000 N 
ATOM      6  H   UNL     1       9.331   8.144  20.033  0.00  0.00    +0.000 HD
ENDROOT
BRANCH   1  11
ATOM      7  C   UNL     1      10.553  12.909  18.443  0.00  0.00    +0.000 A 
ATOM      8  C   UNL     1      10.755  13.138  19.811  0.00  0.00    +0.000 A 
ATOM      9  C   UNL     1      10.308  12.215  20.755  0.00  0.00    +0.000 A 
ATOM     10  C   UNL     1       9.653  11.052  20.343  0.00  0.00    +0.000 A 
ATOM     11  C   UNL     1       9.441  10.793  18.983  0.00  0.00    +0.000 A 
ATOM     12  C   UNL     1       9.901  11.728  18.041  0.00  0.00    +0.000 A 
BRANCH   7  14
ATOM     13  F   UNL     1      12.126  14.606  17.791  0.00  0.00    +0.000 F 
ATOM     14  C   UNL     1      11.016  13.909  17.411  0.00  0.00    +0.000 C 
ATOM     15  F   UNL     1      10.068  14.848  17.136  0.00  0.00    +0.000 F 
ATOM     16  F   UNL     1      11.331  13.330  16.220  0.00  0.00    +0.000 F 
ENDBRANCH   7  14
ENDBRANCH   1  11
BRANCH   4  17
ATOM     17  S   UNL     1       7.829   5.872  18.955  0.00  0.00    +0.000 S 
BRANCH  17  18
ATOM     18  C   UNL     1       6.514   5.418  17.841  0.00  0.00    +0.000 A 
ATOM     19  C   UNL     1       6.758   4.788  16.644  0.00  0.00    +0.000 A 
ATOM     20  C   UNL     1       5.643   4.532  15.893  0.00  0.00    +0.000 A 
ATOM     21 CL   UNL     1       5.765   3.722  14.384  0.00  0.00    +0.000 Cl
ATOM     22  N   UNL     1       4.390   4.857  16.236  0.00  0.00    +0.000 NA
ATOM     23  C   UNL     1       4.261   5.474  17.413  0.00  0.00    +0.000 A 
ATOM     24  N   UNL     1       5.276   5.779  18.236  0.00  0.00    +0.000 NA
BRANCH  23  25
ATOM     25  S   UNL     1       2.618   5.920  17.920  0.00  0.00    +0.000 S 
BRANCH  25  26
ATOM     26  C   UNL     1       2.206   4.543  18.978  0.00  0.00    +0.000 A 
ATOM     27  C   UNL     1       2.403   3.239  18.506  0.00  0.00    +0.000 A 
ATOM     28  C   UNL     1       2.080   2.141  19.306  0.00  0.00    +0.000 A 
ATOM     29  C   UNL     1       1.568   2.336  20.587  0.00  0.00    +0.000 A 
ATOM     30  C   UNL     1       1.398   3.630  21.077  0.00  0.00    +0.000 A 
ATOM     31  C   UNL     1       1.722   4.730  20.278  0.00  0.00    +0.000 A 
ENDBRANCH  25  26
ENDBRANCH  23  25
ENDBRANCH  17  18
ENDBRANCH   4  17
TORSDOF 6
ENDMDL
MODEL 2
REMARK VINA RESULT:      -9.2      2.096      2.884
REMARK  Name = 
REMARK  6 active torsions:
REMARK  status: ('A' for Active; 'I' for Inactive)
REMARK    1  A    between atoms: C_2  and  C_5
REMARK    2  A    between atoms: C_9  and  C_10
REMARK    3  A    between atoms: C_13  and  S_14
REMARK    4  A    between atoms: S_14  and  C_15
REMARK    5  A    between atoms: C_20  and  S_21
REMARK    6  A    between atoms: S_21  and  C_22
REMARK                            x       y       z     vdW  Elec       q    Type
REMARK                         _______ _______ _______ _____ _____    ______ ____
ROOT
ATOM      1  C   UNL     1       8.604   9.221  18.348  0.00  0.00    +0.000 A 
ATOM      2  N   UNL     1       7.746   9.029  17.360  0.00  0.00    +0.000 NA
ATOM      3  N   UNL     1       7.341   7.711  17.377  0.00  0.00    +0.000 NA
ATOM      4  C   UNL     1       7.951   7.131  18.382  0.00  0.00    +0.000 A 
ATOM      5  N   UNL     1       8.746   8.031  19.022  0.00  0.00    +0.000 N 
ATOM      6  H   UNL     1       9.293   7.860  19.851  0.00  0.00    +0.000 HD
ENDROOT
BRANCH   1  11
ATOM      7  C   UNL     1       9.602  12.300  20.305  0.00  0.00    +0.000 A 
ATOM      8  C   UNL     1      10.499  12.901  19.412  0.00  0.00    +0.000 A 
ATOM      9  C   UNL     1      10.783  12.302  18.186  0.00  0.00    +0.000 A 
ATOM     10  C   UNL     1      10.175  11.094  17.837  0.00  0.00    +0.000 A 
ATOM     11  C   UNL     1       9.269  10.472  18.707  0.00  0.00    +0.000 A 
ATOM     12  C   UNL     1       8.987  11.089  19.937  0.00  0.00    +0.000 A 
BRANCH   7  14
ATOM     13  F   UNL     1      10.159  13.933  21.979  0.00  0.00    +0.000 F 
ATOM     14  C   UNL     1       9.299  12.929  21.643  0.00  0.00    +0.000 C 
ATOM     15  F   UNL     1       9.364  12.031  22.666  0.00  0.00    +0.000 F 
ATOM     16  F   UNL     1       8.053  13.474  21.700  0.00  0.00    +0.000 F 
ENDBRANCH   7  14
ENDBRANCH   1  11
BRANCH   4  17
ATOM     17  S   UNL     1       7.764   5.524  18.965  0.00  0.00    +0.000 S 
BRANCH  17  18
ATOM     18  C   UNL     1       6.656   4.886  17.724  0.00  0.00    +0.000 A 
ATOM     19  C   UNL     1       7.057   4.678  16.427  0.00  0.00    +0.000 A 
ATOM     20  C   UNL     1       6.078   4.210  15.592  0.00  0.00    +0.000 A 
ATOM     21 CL   UNL     1       6.417   3.865  13.945  0.00  0.00    +0.000 Cl
ATOM     22  N   UNL     1       4.810   3.967  15.948  0.00  0.00    +0.000 NA
ATOM     23  C   UNL     1       4.520   4.209  17.229  0.00  0.00    +0.000 A 
ATOM     24  N   UNL     1       5.391   4.670  18.140  0.00  0.00    +0.000 NA
BRANCH  23  25
ATOM     25  S   UNL     1       2.853   3.896  17.757  0.00  0.00    +0.000 S 
BRANCH  25  26
ATOM     26  C   UNL     1       2.487   5.407  18.631  0.00  0.00    +0.000 A 
ATOM     27  C   UNL     1       2.072   5.337  19.967  0.00  0.00    +0.000 A 
ATOM     28  C   UNL     1       1.766   6.502  20.675  0.00  0.00    +0.000 A 
ATOM     29  C   UNL     1       1.884   7.746  20.059  0.00  0.00    +0.000 A 
ATOM     30  C   UNL     1       2.326   7.827  18.739  0.00  0.00    +0.000 A 
ATOM     31  C   UNL     1       2.633   6.663  18.030  0.00  0.00    +0.000 A 
ENDBRANCH  25  26
ENDBRANCH  23  25
ENDBRANCH  17  18
ENDBRANCH   4  17
TORSDOF 6
ENDMDL
MODEL 3
REMARK VINA RESULT:      -9.2      0.876      1.365
REMARK  Name = 
REMARK  6 active torsions:
REMARK  status: ('A' for Active; 'I' for Inactive)
REMARK    1  A    between atoms: C_2  and  C_5
REMARK    2  A    between atoms: C_9  and  C_10
REMARK    3  A    between atoms: C_13  and  S_14
REMARK    4  A    between atoms: S_14  and  C_15
REMARK    5  A    between atoms: C_20  and  S_21
REMARK    6  A    between atoms: S_21  and  C_22
REMARK                            x       y       z     vdW  Elec       q    Type
REMARK                         _______ _______ _______ _____ _____    ______ ____
ROOT
ATOM      1  C   UNL     1       8.790   9.662  18.534  0.00  0.00    +0.000 A 
ATOM      2  N   UNL     1       8.055   9.477  17.450  0.00  0.00    +0.000 NA
ATOM      3  N   UNL     1       7.656   8.158  17.407  0.00  0.00    +0.000 NA
ATOM      4  C   UNL     1       8.146   7.570  18.471  0.00  0.00    +0.000 A 
ATOM      5  N   UNL     1       8.857   8.465  19.209  0.00  0.00    +0.000 N 
ATOM      6  H   UNL     1       9.303   8.288  20.095  0.00  0.00    +0.000 HD
ENDROOT
BRANCH   1  11
ATOM      7  C   UNL     1       9.574  13.351  18.821  0.00  0.00    +0.000 A 
ATOM      8  C   UNL     1      10.593  13.330  19.783  0.00  0.00    +0.000 A 
ATOM      9  C   UNL     1      11.015  12.123  20.339  0.00  0.00    +0.000 A 
ATOM     10  C   UNL     1      10.422  10.923  19.943  0.00  0.00    +0.000 A 
ATOM     11  C   UNL     1       9.404  10.911  18.980  0.00  0.00    +0.000 A 
ATOM     12  C   UNL     1       8.992  12.133  18.422  0.00  0.00    +0.000 A 
BRANCH   7  14
ATOM     13  F   UNL     1       8.863  15.623  19.152  0.00  0.00    +0.000 F 
ATOM     14  C   UNL     1       9.096  14.652  18.223  0.00  0.00    +0.000 C 
ATOM     15  F   UNL     1       7.927  14.510  17.538  0.00  0.00    +0.000 F 
ATOM     16  F   UNL     1       9.986  15.186  17.343  0.00  0.00    +0.000 F 
ENDBRANCH   7  14
ENDBRANCH   1  11
BRANCH   4  17
ATOM     17  S   UNL     1       7.898   5.956  19.013  0.00  0.00    +0.000 S 
BRANCH  17  18
ATOM     18  C   UNL     1       6.559   5.485  17.936  0.00  0.00    +0.000 A 
ATOM     19  C   UNL     1       6.772   4.792  16.769  0.00  0.00    +0.000 A 
ATOM     20  C   UNL     1       5.642   4.530  16.042  0.00  0.00    +0.000 A 
ATOM     21 CL   UNL     1       5.726   3.645  14.574  0.00  0.00    +0.000 Cl
ATOM     22  N   UNL     1       4.402   4.905  16.381  0.00  0.00    +0.000 NA
ATOM     23  C   UNL     1       4.303   5.582  17.528  0.00  0.00    +0.000 A 
ATOM     24  N   UNL     1       5.335   5.899  18.325  0.00  0.00    +0.000 NA
BRANCH  23  25
ATOM     25  S   UNL     1       2.678   6.096  18.029  0.00  0.00    +0.000 S 
BRANCH  25  26
ATOM     26  C   UNL     1       2.206   4.740  19.087  0.00  0.00    +0.000 A 
ATOM     27  C   UNL     1       2.373   4.866  20.472  0.00  0.00    +0.000 A 
ATOM     28  C   UNL     1       2.024   3.817  21.325  0.00  0.00    +0.000 A 
ATOM     29  C   UNL     1       1.494   2.638  20.803  0.00  0.00    +0.000 A 
ATOM     30  C   UNL     1       1.295   2.516  19.429  0.00  0.00    +0.000 A 
ATOM     31  C   UNL     1       1.643   3.565  18.574  0.00  0.00    +0.000 A 
ENDBRANCH  25  26
ENDBRANCH  23  25
ENDBRANCH  17  18
ENDBRANCH   4  17
TORSDOF 6
ENDMDL
MODEL 4
REMARK VINA RESULT:      -9.1      1.828      2.285
REMARK  Name = 
REMARK  6 active torsions:
REMARK  status: ('A' for Active; 'I' for Inactive)
REMARK    1  A    between atoms: C_2  and  C_5
REMARK    2  A    between atoms: C_9  and  C_10
REMARK    3  A    between atoms: C_13  and  S_14
REMARK    4  A    between atoms: S_14  and  C_15
REMARK    5  A    between atoms: C_20  and  S_21
REMARK    6  A    between atoms: S_21  and  C_22
REMARK                            x       y       z     vdW  Elec       q    Type
REMARK                         _______ _______ _______ _____ _____    ______ ____
ROOT
ATOM      1  C   UNL     1       8.796   9.570  18.505  0.00  0.00    +0.000 A 
ATOM      2  N   UNL     1       8.028   9.405  17.441  0.00  0.00    +0.000 NA
ATOM      3  N   UNL     1       7.606   8.092  17.401  0.00  0.00    +0.000 NA
ATOM      4  C   UNL     1       8.116   7.489  18.447  0.00  0.00    +0.000 A 
ATOM      5  N   UNL     1       8.863   8.367  19.170  0.00  0.00    +0.000 N 
ATOM      6  H   UNL     1       9.331   8.176  20.042  0.00  0.00    +0.000 HD
ENDROOT
BRANCH   1  11
ATOM      7  C   UNL     1       9.654  12.605  20.592  0.00  0.00    +0.000 A 
ATOM      8  C   UNL     1      10.637  13.205  19.793  0.00  0.00    +0.000 A 
ATOM      9  C   UNL     1      11.023  12.620  18.589  0.00  0.00    +0.000 A 
ATOM     10  C   UNL     1      10.433  11.426  18.168  0.00  0.00    +0.000 A 
ATOM     11  C   UNL     1       9.444  10.805  18.942  0.00  0.00    +0.000 A 
ATOM     12  C   UNL     1       9.059  11.408  20.151  0.00  0.00    +0.000 A 
BRANCH   7  14
ATOM     13  F   UNL     1       9.995  14.297  22.265  0.00  0.00    +0.000 F 
ATOM     14  C   UNL     1       9.239  13.219  21.907  0.00  0.00    +0.000 C 
ATOM     15  F   UNL     1       9.336  12.341  22.944  0.00  0.00    +0.000 F 
ATOM     16  F   UNL     1       7.950  13.656  21.902  0.00  0.00    +0.000 F 
ENDBRANCH   7  14
ENDBRANCH   1  11
BRANCH   4  17
ATOM     17  S   UNL     1       7.857   5.876  18.985  0.00  0.00    +0.000 S 
BRANCH  17  18
ATOM     18  C   UNL     1       6.521   5.413  17.900  0.00  0.00    +0.000 A 
ATOM     19  C   UNL     1       6.741   4.762  16.710  0.00  0.00    +0.000 A 
ATOM     20  C   UNL     1       5.611   4.503  15.981  0.00  0.00    +0.000 A 
ATOM     21 CL   UNL     1       5.703   3.667  14.485  0.00  0.00    +0.000 Cl
ATOM     22  N   UNL     1       4.367   4.842  16.339  0.00  0.00    +0.000 NA
ATOM     23  C   UNL     1       4.261   5.479  17.509  0.00  0.00    +0.000 A 
ATOM     24  N   UNL     1       5.292   5.790  18.309  0.00  0.00    +0.000 NA
BRANCH  23  25
ATOM     25  S   UNL     1       2.630   5.945  18.035  0.00  0.00    +0.000 S 
BRANCH  25  26
ATOM     26  C   UNL     1       2.251   4.621  19.170  0.00  0.00    +0.000 A 
ATOM     27  C   UNL     1       1.828   3.387  18.660  0.00  0.00    +0.000 A 
ATOM     28  C   UNL     1       1.512   2.335  19.522  0.00  0.00    +0.000 A 
ATOM     29  C   UNL     1       1.629   2.504  20.901  0.00  0.00    +0.000 A 
ATOM     30  C   UNL     1       2.078   3.718  21.417  0.00  0.00    +0.000 A 
ATOM     31  C   UNL     1       2.395   4.771  20.554  0.00  0.00    +0.000 A 
ENDBRANCH  25  26
ENDBRANCH  23  25
ENDBRANCH  17  18
ENDBRANCH   4  17
TORSDOF 6
ENDMDL
MODEL 5
REMARK VINA RESULT:      -8.9      1.599      2.323
REMARK  Name = 
REMARK  6 active torsions:
REMARK  status: ('A' for Active; 'I' for Inactive)
REMARK    1  A    between atoms: C_2  and  C_5
REMARK    2  A    between atoms: C_9  and  C_10
REMARK    3  A    between atoms: C_13  and  S_14
REMARK    4  A    between atoms: S_14  and  C_15
REMARK    5  A    between atoms: C_20  and  S_21
REMARK    6  A    between atoms: S_21  and  C_22
REMARK                            x       y       z     vdW  Elec       q    Type
REMARK                         _______ _______ _______ _____ _____    ______ ____
ROOT
ATOM      1  C   UNL     1       8.531   9.253  18.324  0.00  0.00    +0.000 A 
ATOM      2  N   UNL     1       7.739   8.997  17.296  0.00  0.00    +0.000 NA
ATOM      3  N   UNL     1       7.405   7.659  17.319  0.00  0.00    +0.000 NA
ATOM      4  C   UNL     1       7.990   7.131  18.367  0.00  0.00    +0.000 A 
ATOM      5  N   UNL     1       8.701   8.084  19.029  0.00  0.00    +0.000 N 
ATOM      6  H   UNL     1       9.210   7.958  19.889  0.00  0.00    +0.000 HD
ENDROOT
BRANCH   1  11
ATOM      7  C   UNL     1       9.037  12.992  18.586  0.00  0.00    +0.000 A 
ATOM      8  C   UNL     1      10.216  13.046  19.342  0.00  0.00    +0.000 A 
ATOM      9  C   UNL     1      10.835  11.873  19.771  0.00  0.00    +0.000 A 
ATOM     10  C   UNL     1      10.283  10.631  19.451  0.00  0.00    +0.000 A 
ATOM     11  C   UNL     1       9.109  10.544  18.691  0.00  0.00    +0.000 A 
ATOM     12  C   UNL     1       8.498  11.733  18.260  0.00  0.00    +0.000 A 
BRANCH   7  14
ATOM     13  F   UNL     1       9.189  15.149  17.537  0.00  0.00    +0.000 F 
ATOM     14  C   UNL     1       8.347  14.254  18.130  0.00  0.00    +0.000 C 
ATOM     15  F   UNL     1       7.761  14.927  19.159  0.00  0.00    +0.000 F 
ATOM     16  F   UNL     1       7.359  14.018  17.223  0.00  0.00    +0.000 F 
ENDBRANCH   7  14
ENDBRANCH   1  11
BRANCH   4  17
ATOM     17  S   UNL     1       7.858   5.527  18.973  0.00  0.00    +0.000 S 
BRANCH  17  18
ATOM     18  C   UNL     1       6.687   4.864  17.804  0.00  0.00    +0.000 A 
ATOM     19  C   UNL     1       7.023   4.624  16.493  0.00  0.00    +0.000 A 
ATOM     20  C   UNL     1       6.002   4.140  15.719  0.00  0.00    +0.000 A 
ATOM     21 CL   UNL     1       6.259   3.755  14.066  0.00  0.00    +0.000 Cl
ATOM     22  N   UNL     1       4.753   3.912  16.144  0.00  0.00    +0.000 NA
ATOM     23  C   UNL     1       4.527   4.186  17.431  0.00  0.00    +0.000 A 
ATOM     24  N   UNL     1       5.444   4.664  18.287  0.00  0.00    +0.000 NA
BRANCH  23  25
ATOM     25  S   UNL     1       2.888   3.893  18.048  0.00  0.00    +0.000 S 
BRANCH  25  26
ATOM     26  C   UNL     1       2.499   5.490  18.743  0.00  0.00    +0.000 A 
ATOM     27  C   UNL     1       2.107   5.571  20.085  0.00  0.00    +0.000 A 
ATOM     28  C   UNL     1       1.784   6.804  20.655  0.00  0.00    +0.000 A 
ATOM     29  C   UNL     1       1.863   7.968  19.892  0.00  0.00    +0.000 A 
ATOM     30  C   UNL     1       2.282   7.901  18.565  0.00  0.00    +0.000 A 
ATOM     31  C   UNL     1       2.605   6.667  17.994  0.00  0.00    +0.000 A 
ENDBRANCH  25  26
ENDBRANCH  23  25
ENDBRANCH  17  18
ENDBRANCH   4  17
TORSDOF 6
ENDMDL
MODEL 6
REMARK VINA RESULT:      -8.7      8.118     10.072
REMARK  Name = 
REMARK  6 active torsions:
REMARK  status: ('A' for Active; 'I' for Inactive)
REMARK    1  A    between atoms: C_2  and  C_5
REMARK    2  A    between atoms: C_9  and  C_10
REMARK    3  A    between atoms: C_13  and  S_14
REMARK    4  A    between atoms: S_14  and  C_15
REMARK    5  A    between atoms: C_20  and  S_21
REMARK    6  A    between atoms: S_21  and  C_22
REMARK                            x       y       z     vdW  Elec       q    Type
REMARK                         _______ _______ _______ _____ _____    ______ ____
ROOT
ATOM      1  C   UNL     1       1.654   9.102  18.672  0.00  0.00    +0.000 A 
ATOM      2  N   UNL     1       1.981  10.205  18.019  0.00  0.00    +0.000 NA
ATOM      3  N   UNL     1       1.014  11.161  18.255  0.00  0.00    +0.000 NA
ATOM      4  C   UNL     1       0.127  10.624  19.056  0.00  0.00    +0.000 A 
ATOM      5  N   UNL     1       0.481   9.344  19.350  0.00  0.00    +0.000 N 
ATOM      6  H   UNL     1      -0.002   8.719  19.976  0.00  0.00    +0.000 HD
ENDROOT
BRANCH   1  11
ATOM      7  C   UNL     1       3.987   6.302  17.660  0.00  0.00    +0.000 A 
ATOM      8  C   UNL     1       3.828   5.424  18.741  0.00  0.00    +0.000 A 
ATOM      9  C   UNL     1       2.975   5.746  19.794  0.00  0.00    +0.000 A 
ATOM     10  C   UNL     1       2.270   6.951  19.783  0.00  0.00    +0.000 A 
ATOM     11  C   UNL     1       2.403   7.848  18.714  0.00  0.00    +0.000 A 
ATOM     12  C   UNL     1       3.262   7.509  17.655  0.00  0.00    +0.000 A 
BRANCH   7  14
ATOM     13  F   UNL     1       6.218   5.815  16.912  0.00  0.00    +0.000 F 
ATOM     14  C   UNL     1       4.921   5.974  16.521  0.00  0.00    +0.000 C 
ATOM     15  F   UNL     1       4.939   6.947  15.568  0.00  0.00    +0.000 F 
ATOM     16  F   UNL     1       4.584   4.822  15.878  0.00  0.00    +0.000 F 
ENDBRANCH   7  14
ENDBRANCH   1  11
BRANCH   4  17
ATOM     17  S   UNL     1      -1.247  11.363  19.781  0.00  0.00    +0.000 S 
BRANCH  17  18
ATOM     18  C   UNL     1      -2.392  11.258  18.420  0.00  0.00    +0.000 A 
ATOM     19  C   UNL     1      -2.037  10.714  17.209  0.00  0.00    +0.000 A 
ATOM     20  C   UNL     1      -3.023  10.733  16.260  0.00  0.00    +0.000 A 
ATOM     21 CL   UNL     1      -2.757  10.063  14.702  0.00  0.00    +0.000 Cl
ATOM     22  N   UNL     1      -4.250  11.239  16.432  0.00  0.00    +0.000 NA
ATOM     23  C   UNL     1      -4.493  11.753  17.641  0.00  0.00    +0.000 A 
ATOM     24  N   UNL     1      -3.609  11.793  18.650  0.00  0.00    +0.000 NA
BRANCH  23  25
ATOM     25  S   UNL     1      -6.110  12.431  17.926  0.00  0.00    +0.000 S 
BRANCH  25  26
ATOM     26  C   UNL     1      -6.771  11.251  19.089  0.00  0.00    +0.000 A 
ATOM     27  C   UNL     1      -7.399  11.718  20.249  0.00  0.00    +0.000 A 
ATOM     28  C   UNL     1      -7.916  10.819  21.185  0.00  0.00    +0.000 A 
ATOM     29  C   UNL     1      -7.820   9.446  20.963  0.00  0.00    +0.000 A 
ATOM     30  C   UNL     1      -7.224   8.973  19.795  0.00  0.00    +0.000 A 
ATOM     31  C   UNL     1      -6.707   9.872  18.858  0.00  0.00    +0.000 A 
ENDBRANCH  25  26
ENDBRANCH  23  25
ENDBRANCH  17  18
ENDBRANCH   4  17
TORSDOF 6
ENDMDL
MODEL 7
REMARK VINA RESULT:      -8.5      1.610      1.926
REMARK  Name = 
REMARK  6 active torsions:
REMARK  status: ('A' for Active; 'I' for Inactive)
REMARK    1  A    between atoms: C_2  and  C_5
REMARK    2  A    between atoms: C_9  and  C_10
REMARK    3  A    between atoms: C_13  and  S_14
REMARK    4  A    between atoms: S_14  and  C_15
REMARK    5  A    between atoms: C_20  and  S_21
REMARK    6  A    between atoms: S_21  and  C_22
REMARK                            x       y       z     vdW  Elec       q    Type
REMARK                         _______ _______ _______ _____ _____    ______ ____
ROOT
ATOM      1  C   UNL     1       8.792   9.389  18.394  0.00  0.00    +0.000 A 
ATOM      2  N   UNL     1       8.164   9.316  17.233  0.00  0.00    +0.000 NA
ATOM      3  N   UNL     1       7.687   8.032  17.069  0.00  0.00    +0.000 NA
ATOM      4  C   UNL     1       8.023   7.355  18.139  0.00  0.00    +0.000 A 
ATOM      5  N   UNL     1       8.709   8.156  18.998  0.00  0.00    +0.000 N 
ATOM      6  H   UNL     1       9.048   7.899  19.912  0.00  0.00    +0.000 HD
ENDROOT
BRANCH   1  11
ATOM      7  C   UNL     1      10.589  12.706  18.666  0.00  0.00    +0.000 A 
ATOM      8  C   UNL     1      10.721  12.821  20.057  0.00  0.00    +0.000 A 
ATOM      9  C   UNL     1      10.219  11.830  20.899  0.00  0.00    +0.000 A 
ATOM     10  C   UNL     1       9.578  10.712  20.362  0.00  0.00    +0.000 A 
ATOM     11  C   UNL     1       9.436  10.565  18.976  0.00  0.00    +0.000 A 
ATOM     12  C   UNL     1       9.951  11.568  18.137  0.00  0.00    +0.000 A 
BRANCH   7  14
ATOM     13  F   UNL     1      10.299  14.872  17.667  0.00  0.00    +0.000 F 
ATOM     14  C   UNL     1      11.112  13.780  17.744  0.00  0.00    +0.000 C 
ATOM     15  F   UNL     1      11.259  13.338  16.463  0.00  0.00    +0.000 F 
ATOM     16  F   UNL     1      12.332  14.251  18.122  0.00  0.00    +0.000 F 
ENDBRANCH   7  14
ENDBRANCH   1  11
BRANCH   4  17
ATOM     17  S   UNL     1       7.614   5.736  18.554  0.00  0.00    +0.000 S 
BRANCH  17  18
ATOM     18  C   UNL     1       5.881   5.753  18.140  0.00  0.00    +0.000 A 
ATOM     19  C   UNL     1       5.186   6.925  17.963  0.00  0.00    +0.000 A 
ATOM     20  C   UNL     1       3.857   6.766  17.675  0.00  0.00    +0.000 A 
ATOM     21 CL   UNL     1       2.849   8.126  17.393  0.00  0.00    +0.000 Cl
ATOM     22  N   UNL     1       3.225   5.590  17.573  0.00  0.00    +0.000 NA
ATOM     23  C   UNL     1       3.987   4.511  17.771  0.00  0.00    +0.000 A 
ATOM     24  N   UNL     1       5.297   4.540  18.060  0.00  0.00    +0.000 NA
BRANCH  23  25
ATOM     25  S   UNL     1       3.199   2.925  17.639  0.00  0.00    +0.000 S 
BRANCH  25  26
ATOM     26  C   UNL     1       2.477   2.771  19.263  0.00  0.00    +0.000 A 
ATOM     27  C   UNL     1       1.093   2.927  19.410  0.00  0.00    +0.000 A 
ATOM     28  C   UNL     1       0.498   2.825  20.669  0.00  0.00    +0.000 A 
ATOM     29  C   UNL     1       1.280   2.554  21.791  0.00  0.00    +0.000 A 
ATOM     30  C   UNL     1       2.654   2.367  21.650  0.00  0.00    +0.000 A 
ATOM     31  C   UNL     1       3.250   2.469  20.390  0.00  0.00    +0.000 A 
ENDBRANCH  25  26
ENDBRANCH  23  25
ENDBRANCH  17  18
ENDBRANCH   4  17
TORSDOF 6
ENDMDL
MODEL 8
REMARK VINA RESULT:      -8.4      2.984      3.803
REMARK  Name = 
REMARK  6 active torsions:
REMARK  status: ('A' for Active; 'I' for Inactive)
REMARK    1  A    between atoms: C_2  and  C_5
REMARK    2  A    between atoms: C_9  and  C_10
REMARK    3  A    between atoms: C_13  and  S_14
REMARK    4  A    between atoms: S_14  and  C_15
REMARK    5  A    between atoms: C_20  and  S_21
REMARK    6  A    between atoms: S_21  and  C_22
REMARK                            x       y       z     vdW  Elec       q    Type
REMARK                         _______ _______ _______ _____ _____    ______ ____
ROOT
ATOM      1  C   UNL     1       8.146   8.636  18.142  0.00  0.00    +0.000 A 
ATOM      2  N   UNL     1       8.525   7.645  18.931  0.00  0.00    +0.000 NA
ATOM      3  N   UNL     1       7.922   6.482  18.498  0.00  0.00    +0.000 NA
ATOM      4  C   UNL     1       7.200   6.788  17.448  0.00  0.00    +0.000 A 
ATOM      5  N   UNL     1       7.309   8.118  17.183  0.00  0.00    +0.000 N 
ATOM      6  H   UNL     1       6.890   8.608  16.407  0.00  0.00    +0.000 HD
ENDROOT
BRANCH   1  11
ATOM      7  C   UNL     1       9.894  11.778  19.318  0.00  0.00    +0.000 A 
ATOM      8  C   UNL     1       9.337  12.729  18.453  0.00  0.00    +0.000 A 
ATOM      9  C   UNL     1       8.407  12.348  17.488  0.00  0.00    +0.000 A 
ATOM     10  C   UNL     1       8.022  11.010  17.375  0.00  0.00    +0.000 A 
ATOM     11  C   UNL     1       8.556  10.037  18.229  0.00  0.00    +0.000 A 
ATOM     12  C   UNL     1       9.489  10.435  19.201  0.00  0.00    +0.000 A 
BRANCH   7  14
ATOM     13  F   UNL     1      12.104  11.517  20.226  0.00  0.00    +0.000 F 
ATOM     14  C   UNL     1      10.916  12.175  20.355  0.00  0.00    +0.000 C 
ATOM     15  F   UNL     1      10.492  11.923  21.625  0.00  0.00    +0.000 F 
ATOM     16  F   UNL     1      11.221  13.501  20.316  0.00  0.00    +0.000 F 
ENDBRANCH   7  14
ENDBRANCH   1  11
BRANCH   4  17
ATOM     17  S   UNL     1       6.306   5.738  16.419  0.00  0.00    +0.000 S 
BRANCH  17  18
ATOM     18  C   UNL     1       4.681   5.951  17.119  0.00  0.00    +0.000 A 
ATOM     19  C   UNL     1       3.914   4.883  17.516  0.00  0.00    +0.000 A 
ATOM     20  C   UNL     1       2.679   5.214  18.008  0.00  0.00    +0.000 A 
ATOM     21 CL   UNL     1       1.605   4.003  18.579  0.00  0.00    +0.000 Cl
ATOM     22  N   UNL     1       2.197   6.459  18.107  0.00  0.00    +0.000 NA
ATOM     23  C   UNL     1       3.017   7.426  17.686  0.00  0.00    +0.000 A 
ATOM     24  N   UNL     1       4.246   7.226  17.184  0.00  0.00    +0.000 NA
BRANCH  23  25
ATOM     25  S   UNL     1       2.429   9.098  17.802  0.00  0.00    +0.000 S 
BRANCH  25  26
ATOM     26  C   UNL     1       1.439   9.005  19.283  0.00  0.00    +0.000 A 
ATOM     27  C   UNL     1       1.805   8.103  20.291  0.00  0.00    +0.000 A 
ATOM     28  C   UNL     1       1.043   7.997  21.457  0.00  0.00    +0.000 A 
ATOM     29  C   UNL     1      -0.082   8.801  21.631  0.00  0.00    +0.000 A 
ATOM     30  C   UNL     1      -0.435   9.724  20.648  0.00  0.00    +0.000 A 
ATOM     31  C   UNL     1       0.326   9.830  19.481  0.00  0.00    +0.000 A 
ENDBRANCH  25  26
ENDBRANCH  23  25
ENDBRANCH  17  18
ENDBRANCH   4  17
TORSDOF 6
ENDMDL
MODEL 9
REMARK VINA RESULT:      -8.2      6.701      9.829
REMARK  Name = 
REMARK  6 active torsions:
REMARK  status: ('A' for Active; 'I' for Inactive)
REMARK    1  A    between atoms: C_2  and  C_5
REMARK    2  A    between atoms: C_9  and  C_10
REMARK    3  A    between atoms: C_13  and  S_14
REMARK    4  A    between atoms: S_14  and  C_15
REMARK    5  A    between atoms: C_20  and  S_21
REMARK    6  A    between atoms: S_21  and  C_22
REMARK                            x       y       z     vdW  Elec       q    Type
REMARK                         _______ _______ _______ _____ _____    ______ ____
ROOT
ATOM      1  C   UNL     1       2.680   7.050  18.560  0.00  0.00    +0.000 A 
ATOM      2  N   UNL     1       2.352   8.167  17.931  0.00  0.00    +0.000 NA
ATOM      3  N   UNL     1       1.721   9.007  18.825  0.00  0.00    +0.000 NA
ATOM      4  C   UNL     1       1.688   8.390  19.980  0.00  0.00    +0.000 A 
ATOM      5  N   UNL     1       2.277   7.168  19.870  0.00  0.00    +0.000 N 
ATOM      6  H   UNL     1       2.424   6.507  20.616  0.00  0.00    +0.000 HD
ENDROOT
BRANCH   1  11
ATOM      7  C   UNL     1       5.431   4.907  17.096  0.00  0.00    +0.000 A 
ATOM      8  C   UNL     1       4.741   3.707  16.876  0.00  0.00    +0.000 A 
ATOM      9  C   UNL     1       3.393   3.595  17.212  0.00  0.00    +0.000 A 
ATOM     10  C   UNL     1       2.717   4.680  17.772  0.00  0.00    +0.000 A 
ATOM     11  C   UNL     1       3.377   5.895  17.998  0.00  0.00    +0.000 A 
ATOM     12  C   UNL     1       4.735   5.997  17.651  0.00  0.00    +0.000 A 
BRANCH   7  14
ATOM     13  F   UNL     1       7.372   6.308  16.879  0.00  0.00    +0.000 F 
ATOM     14  C   UNL     1       6.895   5.036  16.753  0.00  0.00    +0.000 C 
ATOM     15  F   UNL     1       7.162   4.668  15.469  0.00  0.00    +0.000 F 
ATOM     16  F   UNL     1       7.691   4.261  17.540  0.00  0.00    +0.000 F 
ENDBRANCH   7  14
ENDBRANCH   1  11
BRANCH   4  17
ATOM     17  S   UNL     1       1.122   8.979  21.494  0.00  0.00    +0.000 S 
BRANCH  17  18
ATOM     18  C   UNL     1       0.344  10.488  20.951  0.00  0.00    +0.000 A 
ATOM     19  C   UNL     1      -0.776  10.485  20.157  0.00  0.00    +0.000 A 
ATOM     20  C   UNL     1      -1.234  11.727  19.806  0.00  0.00    +0.000 A 
ATOM     21 CL   UNL     1      -2.644  11.905  18.843  0.00  0.00    +0.000 Cl
ATOM     22  N   UNL     1      -0.671  12.887  20.165  0.00  0.00    +0.000 NA
ATOM     23  C   UNL     1       0.419  12.781  20.930  0.00  0.00    +0.000 A 
ATOM     24  N   UNL     1       0.962  11.624  21.337  0.00  0.00    +0.000 NA
BRANCH  23  25
ATOM     25  S   UNL     1       1.201  14.292  21.443  0.00  0.00    +0.000 S 
BRANCH  25  26
ATOM     26  C   UNL     1       2.042  14.762  19.941  0.00  0.00    +0.000 A 
ATOM     27  C   UNL     1       1.770  16.012  19.372  0.00  0.00    +0.000 A 
ATOM     28  C   UNL     1       2.403  16.405  18.190  0.00  0.00    +0.000 A 
ATOM     29  C   UNL     1       3.321  15.556  17.575  0.00  0.00    +0.000 A 
ATOM     30  C   UNL     1       3.621  14.323  18.151  0.00  0.00    +0.000 A 
ATOM     31  C   UNL     1       2.989  13.930  19.333  0.00  0.00    +0.000 A 
ENDBRANCH  25  26
ENDBRANCH  23  25
ENDBRANCH  17  18
ENDBRANCH   4  17
TORSDOF 6
ENDMDL
