MODEL 1
REMARK VINA RESULT:      -8.6      0.000      0.000
REMARK  Name = 
REMARK  7 active torsions:
REMARK  status: ('A' for Active; 'I' for Inactive)
REMARK    1  A    between atoms: C_1  and  N_2
REMARK    2  A    between atoms: C_5  and  O_6
REMARK    3  A    between atoms: C_5  and  C_7
REMARK    4  A    between atoms: C_8  and  C_9
REMARK    5  A    between atoms: C_18  and  C_19
REMARK    6  A    between atoms: C_18  and  O_20
REMARK    7  A    between atoms: C_23  and  C_24
REMARK                            x       y       z     vdW  Elec       q    Type
REMARK                         _______ _______ _______ _____ _____    ______ ____
ROOT
ATOM      1  C   UNL     1       1.635   8.564  19.504  0.00  0.00    +0.000 A 
ATOM      2  C   UNL     1       2.549   7.847  18.706  0.00  0.00    +0.000 A 
ATOM      3  C   UNL     1       2.854   6.482  18.960  0.00  0.00    +0.000 A 
ATOM      4  C   UNL     1       2.233   5.854  20.057  0.00  0.00    +0.000 A 
ATOM      5  C   UNL     1       1.355   6.591  20.869  0.00  0.00    +0.000 A 
ATOM      6  C   UNL     1       1.051   7.917  20.586  0.00  0.00    +0.000 A 
ATOM      7  F   UNL     1       0.171   8.554  21.375  0.00  0.00    +0.000 F 
ATOM      8  O   UNL     1       2.368   4.580  20.522  0.00  0.00    +0.000 OA
ATOM      9  C   UNL     1       2.703   3.445  19.725  0.00  0.00    +0.000 C 
ATOM     10  C   UNL     1       2.528   3.514  18.194  0.00  0.00    +0.000 C 
ATOM     11  C   UNL     1       2.626   2.099  17.603  0.00  0.00    +0.000 C 
ATOM     12  C   UNL     1       3.556   4.469  17.663  0.00  0.00    +0.000 A 
ATOM     13  S   UNL     1       4.746   4.002  16.526  0.00  0.00    +0.000 S 
ATOM     14  C   UNL     1       5.462   5.545  16.627  0.00  0.00    +0.000 A 
ATOM     15  N   UNL     1       4.853   6.413  17.424  0.00  0.00    +0.000 NA
ATOM     16  C   UNL     1       3.755   5.790  18.034  0.00  0.00    +0.000 A 
ENDROOT
BRANCH  14  17
ATOM     17  C   UNL     1       6.675   5.795  15.852  0.00  0.00    +0.000 C 
ATOM     18  N   UNL     1       6.752   5.175  14.635  0.00  0.00    +0.000 N 
ATOM     19  O   UNL     1       7.614   6.512  16.200  0.00  0.00    +0.000 OA
ATOM     20  H   UNL     1       6.005   4.572  14.314  0.00  0.00    +0.000 HD
ATOM     21  H   UNL     1       7.583   5.318  14.084  0.00  0.00    +0.000 HD
ENDBRANCH  14  17
BRANCH   1  23
ATOM     22  C   UNL     1       1.017  11.074  18.934  0.00  0.00    +0.000 C 
ATOM     23  C   UNL     1       1.271   9.921  19.197  0.00  0.00    +0.000 C 
BRANCH  22  28
ATOM     24  C   UNL     1       1.548  15.305  21.158  0.00  0.00    +0.000 C 
ATOM     25  N   UNL     1       1.552  14.202  20.223  0.00  0.00    +0.000 N 
ATOM     26  C   UNL     1       2.679  13.861  19.403  0.00  0.00    +0.000 C 
ATOM     27  C   UNL     1       2.035  13.231  18.185  0.00  0.00    +0.000 C 
ATOM     28  C   UNL     1       0.787  12.519  18.733  0.00  0.00    +0.000 C 
ATOM     29  C   UNL     1       0.488  13.324  20.027  0.00  0.00    +0.000 C 
ATOM     30  O   UNL     1      -0.544  13.311  20.681  0.00  0.00    +0.000 OA
BRANCH  28  31
ATOM     31  O   UNL     1      -0.262  12.670  17.777  0.00  0.00    +0.000 OA
ATOM     32  H   UNL     1      -0.444  13.625  17.712  0.00  0.00    +0.000 HD
ENDBRANCH  28  31
ENDBRANCH  22  28
ENDBRANCH   1  23
BRANCH  10  33
ATOM     33  O   UNL     1       1.247   4.028  17.823  0.00  0.00    +0.000 OA
ATOM     34  H   UNL     1       1.384   4.882  17.380  0.00  0.00    +0.000 HD
ENDBRANCH  10  33
TORSDOF 5
ENDMDL
MODEL 2
REMARK VINA RESULT:      -8.5      1.408      1.895
REMARK  Name = 
REMARK  7 active torsions:
REMARK  status: ('A' for Active; 'I' for Inactive)
REMARK    1  A    between atoms: C_1  and  N_2
REMARK    2  A    between atoms: C_5  and  O_6
REMARK    3  A    between atoms: C_5  and  C_7
REMARK    4  A    between atoms: C_8  and  C_9
REMARK    5  A    between atoms: C_18  and  C_19
REMARK    6  A    between atoms: C_18  and  O_20
REMARK    7  A    between atoms: C_23  and  C_24
REMARK                            x       y       z     vdW  Elec       q    Type
REMARK                         _______ _______ _______ _____ _____    ______ ____
ROOT
ATOM      1  C   UNL     1       1.591   8.116  19.699  0.00  0.00    +0.000 A 
ATOM      2  C   UNL     1       2.590   7.504  18.915  0.00  0.00    +0.000 A 
ATOM      3  C   UNL     1       3.028   6.175  19.165  0.00  0.00    +0.000 A 
ATOM      4  C   UNL     1       2.453   5.476  20.244  0.00  0.00    +0.000 A 
ATOM      5  C   UNL     1       1.489   6.111  21.043  0.00  0.00    +0.000 A 
ATOM      6  C   UNL     1       1.055   7.402  20.764  0.00  0.00    +0.000 A 
ATOM      7  F   UNL     1       0.099   7.938  21.539  0.00  0.00    +0.000 F 
ATOM      8  O   UNL     1       2.709   4.218  20.701  0.00  0.00    +0.000 OA
ATOM      9  C   UNL     1       3.174   3.131  19.903  0.00  0.00    +0.000 C 
ATOM     10  C   UNL     1       3.024   3.197  18.369  0.00  0.00    +0.000 C 
ATOM     11  C   UNL     1       3.278   1.805  17.769  0.00  0.00    +0.000 C 
ATOM     12  C   UNL     1       3.958   4.258  17.867  0.00  0.00    +0.000 A 
ATOM     13  S   UNL     1       5.212   3.926  16.751  0.00  0.00    +0.000 S 
ATOM     14  C   UNL     1       5.764   5.533  16.879  0.00  0.00    +0.000 A 
ATOM     15  N   UNL     1       5.054   6.326  17.669  0.00  0.00    +0.000 NA
ATOM     16  C   UNL     1       4.014   5.588  18.252  0.00  0.00    +0.000 A 
ENDROOT
BRANCH  14  17
ATOM     17  C   UNL     1       6.960   5.913  16.131  0.00  0.00    +0.000 C 
ATOM     18  N   UNL     1       7.240   5.166  15.019  0.00  0.00    +0.000 N 
ATOM     19  O   UNL     1       7.718   6.842  16.414  0.00  0.00    +0.000 OA
ATOM     20  H   UNL     1       6.646   4.390  14.756  0.00  0.00    +0.000 HD
ATOM     21  H   UNL     1       8.066   5.397  14.492  0.00  0.00    +0.000 HD
ENDBRANCH  14  17
BRANCH   1  23
ATOM     22  C   UNL     1       0.676  10.548  19.192  0.00  0.00    +0.000 C 
ATOM     23  C   UNL     1       1.096   9.431  19.395  0.00  0.00    +0.000 C 
BRANCH  22  28
ATOM     24  C   UNL     1      -3.496  12.833  19.895  0.00  0.00    +0.000 C 
ATOM     25  N   UNL     1      -2.109  12.427  19.854  0.00  0.00    +0.000 N 
ATOM     26  C   UNL     1      -1.212  12.554  20.968  0.00  0.00    +0.000 C 
ATOM     27  C   UNL     1       0.137  12.722  20.300  0.00  0.00    +0.000 C 
ATOM     28  C   UNL     1       0.045  11.871  19.023  0.00  0.00    +0.000 C 
ATOM     29  C   UNL     1      -1.485  11.841  18.756  0.00  0.00    +0.000 C 
ATOM     30  O   UNL     1      -2.046  11.507  17.723  0.00  0.00    +0.000 OA
BRANCH  28  31
ATOM     31  O   UNL     1       0.737  12.561  17.982  0.00  0.00    +0.000 OA
ATOM     32  H   UNL     1       1.642  12.716  18.305  0.00  0.00    +0.000 HD
ENDBRANCH  28  31
ENDBRANCH  22  28
ENDBRANCH   1  23
BRANCH  10  33
ATOM     33  O   UNL     1       1.705   3.580  17.976  0.00  0.00    +0.000 OA
ATOM     34  H   UNL     1       1.781   4.329  17.361  0.00  0.00    +0.000 HD
ENDBRANCH  10  33
TORSDOF 5
ENDMDL
MODEL 3
REMARK VINA RESULT:      -7.9      1.873      2.430
REMARK  Name = 
REMARK  7 active torsions:
REMARK  status: ('A' for Active; 'I' for Inactive)
REMARK    1  A    between atoms: C_1  and  N_2
REMARK    2  A    between atoms: C_5  and  O_6
REMARK    3  A    between atoms: C_5  and  C_7
REMARK    4  A    between atoms: C_8  and  C_9
REMARK    5  A    between atoms: C_18  and  C_19
REMARK    6  A    between atoms: C_18  and  O_20
REMARK    7  A    between atoms: C_23  and  C_24
REMARK                            x       y       z     vdW  Elec       q    Type
REMARK                         _______ _______ _______ _____ _____    ______ ____
ROOT
ATOM      1  C   UNL     1       1.112   8.489  19.655  0.00  0.00    +0.000 A 
ATOM      2  C   UNL     1       2.040   7.803  18.846  0.00  0.00    +0.000 A 
ATOM      3  C   UNL     1       2.580   6.545  19.229  0.00  0.00    +0.000 A 
ATOM      4  C   UNL     1       2.179   5.996  20.463  0.00  0.00    +0.000 A 
ATOM      5  C   UNL     1       1.284   6.708  21.278  0.00  0.00    +0.000 A 
ATOM      6  C   UNL     1       0.748   7.925  20.871  0.00  0.00    +0.000 A 
ATOM      7  F   UNL     1      -0.136   8.536  21.676  0.00  0.00    +0.000 F 
ATOM      8  O   UNL     1       2.559   4.832  21.062  0.00  0.00    +0.000 OA
ATOM      9  C   UNL     1       2.984   3.656  20.377  0.00  0.00    +0.000 C 
ATOM     10  C   UNL     1       2.646   3.483  18.883  0.00  0.00    +0.000 C 
ATOM     11  C   UNL     1       2.903   2.026  18.464  0.00  0.00    +0.000 C 
ATOM     12  C   UNL     1       3.452   4.489  18.116  0.00  0.00    +0.000 A 
ATOM     13  S   UNL     1       4.579   4.039  16.910  0.00  0.00    +0.000 S 
ATOM     14  C   UNL     1       5.051   5.667  16.731  0.00  0.00    +0.000 A 
ATOM     15  N   UNL     1       4.398   6.543  17.482  0.00  0.00    +0.000 NA
ATOM     16  C   UNL     1       3.479   5.863  18.293  0.00  0.00    +0.000 A 
ENDROOT
BRANCH  14  17
ATOM     17  C   UNL     1       6.125   5.974  15.789  0.00  0.00    +0.000 C 
ATOM     18  N   UNL     1       7.363   6.186  16.333  0.00  0.00    +0.000 N 
ATOM     19  O   UNL     1       6.007   6.049  14.565  0.00  0.00    +0.000 OA
ATOM     20  H   UNL     1       7.501   6.139  17.335  0.00  0.00    +0.000 HD
ATOM     21  H   UNL     1       8.120   6.412  15.709  0.00  0.00    +0.000 HD
ENDBRANCH  14  17
BRANCH   1  23
ATOM     22  C   UNL     1      -0.011  10.771  18.919  0.00  0.00    +0.000 C 
ATOM     23  C   UNL     1       0.510   9.724  19.227  0.00  0.00    +0.000 C 
BRANCH  22  28
ATOM     24  C   UNL     1      -4.522  12.417  18.647  0.00  0.00    +0.000 C 
ATOM     25  N   UNL     1      -3.117  12.216  18.920  0.00  0.00    +0.000 N 
ATOM     26  C   UNL     1      -2.517  12.452  20.203  0.00  0.00    +0.000 C 
ATOM     27  C   UNL     1      -1.092  12.825  19.848  0.00  0.00    +0.000 C 
ATOM     28  C   UNL     1      -0.775  11.993  18.595  0.00  0.00    +0.000 C 
ATOM     29  C   UNL     1      -2.187  11.746  17.996  0.00  0.00    +0.000 C 
ATOM     30  O   UNL     1      -2.450  11.354  16.869  0.00  0.00    +0.000 OA
BRANCH  28  31
ATOM     31  O   UNL     1       0.023  12.794  17.724  0.00  0.00    +0.000 OA
ATOM     32  H   UNL     1       0.550  12.177  17.184  0.00  0.00    +0.000 HD
ENDBRANCH  28  31
ENDBRANCH  22  28
ENDBRANCH   1  23
BRANCH  10  33
ATOM     33  O   UNL     1       1.270   3.752  18.609  0.00  0.00    +0.000 OA
ATOM     34  H   UNL     1       0.897   4.216  19.377  0.00  0.00    +0.000 HD
ENDBRANCH  10  33
TORSDOF 5
ENDMDL
MODEL 4
REMARK VINA RESULT:      -7.6      6.812     10.722
REMARK  Name = 
REMARK  7 active torsions:
REMARK  status: ('A' for Active; 'I' for Inactive)
REMARK    1  A    between atoms: C_1  and  N_2
REMARK    2  A    between atoms: C_5  and  O_6
REMARK    3  A    between atoms: C_5  and  C_7
REMARK    4  A    between atoms: C_8  and  C_9
REMARK    5  A    between atoms: C_18  and  C_19
REMARK    6  A    between atoms: C_18  and  O_20
REMARK    7  A    between atoms: C_23  and  C_24
REMARK                            x       y       z     vdW  Elec       q    Type
REMARK                         _______ _______ _______ _____ _____    ______ ____
ROOT
ATOM      1  C   UNL     1       9.043  10.260  18.936  0.00  0.00    +0.000 A 
ATOM      2  C   UNL     1       8.627  10.746  20.192  0.00  0.00    +0.000 A 
ATOM      3  C   UNL     1       9.226  11.890  20.787  0.00  0.00    +0.000 A 
ATOM      4  C   UNL     1      10.276  12.527  20.097  0.00  0.00    +0.000 A 
ATOM      5  C   UNL     1      10.709  12.008  18.865  0.00  0.00    +0.000 A 
ATOM      6  C   UNL     1      10.090  10.904  18.289  0.00  0.00    +0.000 A 
ATOM      7  F   UNL     1      10.521  10.483  17.089  0.00  0.00    +0.000 F 
ATOM      8  O   UNL     1      11.021  13.611  20.454  0.00  0.00    +0.000 OA
ATOM      9  C   UNL     1      10.574  14.675  21.292  0.00  0.00    +0.000 C 
ATOM     10  C   UNL     1       9.063  14.879  21.519  0.00  0.00    +0.000 C 
ATOM     11  C   UNL     1       8.822  16.255  22.161  0.00  0.00    +0.000 C 
ATOM     12  C   UNL     1       8.568  13.727  22.341  0.00  0.00    +0.000 A 
ATOM     13  S   UNL     1       7.834  13.937  23.873  0.00  0.00    +0.000 S 
ATOM     14  C   UNL     1       7.751  12.247  24.076  0.00  0.00    +0.000 A 
ATOM     15  N   UNL     1       8.197  11.521  23.059  0.00  0.00    +0.000 NA
ATOM     16  C   UNL     1       8.681  12.375  22.058  0.00  0.00    +0.000 A 
ENDROOT
BRANCH  14  17
ATOM     17  C   UNL     1       7.214  11.729  25.331  0.00  0.00    +0.000 C 
ATOM     18  N   UNL     1       7.865  12.114  26.471  0.00  0.00    +0.000 N 
ATOM     19  O   UNL     1       6.234  10.991  25.442  0.00  0.00    +0.000 OA
ATOM     20  H   UNL     1       8.678  12.715  26.423  0.00  0.00    +0.000 HD
ATOM     21  H   UNL     1       7.525  11.761  27.351  0.00  0.00    +0.000 HD
ENDBRANCH  14  17
BRANCH   1  23
ATOM     22  C   UNL     1       7.810   8.201  17.819  0.00  0.00    +0.000 C 
ATOM     23  C   UNL     1       8.382   9.150  18.303  0.00  0.00    +0.000 C 
BRANCH  22  28
ATOM     24  C   UNL     1       5.207   4.436  19.293  0.00  0.00    +0.000 C 
ATOM     25  N   UNL     1       5.742   5.583  18.597  0.00  0.00    +0.000 N 
ATOM     26  C   UNL     1       4.930   6.657  18.098  0.00  0.00    +0.000 C 
ATOM     27  C   UNL     1       5.726   7.161  16.910  0.00  0.00    +0.000 C 
ATOM     28  C   UNL     1       7.195   6.956  17.315  0.00  0.00    +0.000 C 
ATOM     29  C   UNL     1       7.095   5.805  18.353  0.00  0.00    +0.000 C 
ATOM     30  O   UNL     1       8.009   5.112  18.776  0.00  0.00    +0.000 OA
BRANCH  28  31
ATOM     31  O   UNL     1       7.919   6.544  16.155  0.00  0.00    +0.000 OA
ATOM     32  H   UNL     1       8.849   6.449  16.428  0.00  0.00    +0.000 HD
ENDBRANCH  28  31
ENDBRANCH  22  28
ENDBRANCH   1  23
BRANCH  10  33
ATOM     33  O   UNL     1       8.329  14.865  20.293  0.00  0.00    +0.000 OA
ATOM     34  H   UNL     1       8.529  14.032  19.834  0.00  0.00    +0.000 HD
ENDBRANCH  10  33
TORSDOF 5
ENDMDL
MODEL 5
REMARK VINA RESULT:      -7.0      3.607      8.427
REMARK  Name = 
REMARK  7 active torsions:
REMARK  status: ('A' for Active; 'I' for Inactive)
REMARK    1  A    between atoms: C_1  and  N_2
REMARK    2  A    between atoms: C_5  and  O_6
REMARK    3  A    between atoms: C_5  and  C_7
REMARK    4  A    between atoms: C_8  and  C_9
REMARK    5  A    between atoms: C_18  and  C_19
REMARK    6  A    between atoms: C_18  and  O_20
REMARK    7  A    between atoms: C_23  and  C_24
REMARK                            x       y       z     vdW  Elec       q    Type
REMARK                         _______ _______ _______ _____ _____    ______ ____
ROOT
ATOM      1  C   UNL     1       2.123   7.814  19.099  0.00  0.00    +0.000 A 
ATOM      2  C   UNL     1       1.095   8.726  18.784  0.00  0.00    +0.000 A 
ATOM      3  C   UNL     1       0.221   9.242  19.780  0.00  0.00    +0.000 A 
ATOM      4  C   UNL     1       0.390   8.801  21.107  0.00  0.00    +0.000 A 
ATOM      5  C   UNL     1       1.392   7.862  21.401  0.00  0.00    +0.000 A 
ATOM      6  C   UNL     1       2.252   7.391  20.415  0.00  0.00    +0.000 A 
ATOM      7  F   UNL     1       3.218   6.527  20.768  0.00  0.00    +0.000 F 
ATOM      8  O   UNL     1      -0.317   9.121  22.227  0.00  0.00    +0.000 OA
ATOM      9  C   UNL     1      -0.997  10.356  22.444  0.00  0.00    +0.000 C 
ATOM     10  C   UNL     1      -0.630  11.586  21.590  0.00  0.00    +0.000 C 
ATOM     11  C   UNL     1      -1.237  12.849  22.222  0.00  0.00    +0.000 C 
ATOM     12  C   UNL     1      -1.096  11.321  20.189  0.00  0.00    +0.000 A 
ATOM     13  S   UNL     1      -2.229  12.323  19.390  0.00  0.00    +0.000 S 
ATOM     14  C   UNL     1      -2.244  11.262  18.058  0.00  0.00    +0.000 A 
ATOM     15  N   UNL     1      -1.428  10.220  18.141  0.00  0.00    +0.000 NA
ATOM     16  C   UNL     1      -0.770  10.245  19.379  0.00  0.00    +0.000 A 
ENDROOT
BRANCH  14  17
ATOM     17  C   UNL     1      -3.141  11.563  16.946  0.00  0.00    +0.000 C 
ATOM     18  N   UNL     1      -2.603  11.467  15.691  0.00  0.00    +0.000 N 
ATOM     19  O   UNL     1      -4.327  11.885  17.046  0.00  0.00    +0.000 OA
ATOM     20  H   UNL     1      -1.631  11.211  15.565  0.00  0.00    +0.000 HD
ATOM     21  H   UNL     1      -3.195  11.682  14.906  0.00  0.00    +0.000 HD
ENDBRANCH  14  17
BRANCH   1  23
ATOM     22  C   UNL     1       3.831   6.919  17.285  0.00  0.00    +0.000 C 
ATOM     23  C   UNL     1       3.052   7.355  18.102  0.00  0.00    +0.000 C 
BRANCH  22  28
ATOM     24  C   UNL     1       7.958   4.456  17.447  0.00  0.00    +0.000 C 
ATOM     25  N   UNL     1       6.629   4.948  17.162  0.00  0.00    +0.000 N 
ATOM     26  C   UNL     1       5.481   4.097  17.029  0.00  0.00    +0.000 C 
ATOM     27  C   UNL     1       4.594   4.870  16.073  0.00  0.00    +0.000 C 
ATOM     28  C   UNL     1       4.867   6.347  16.402  0.00  0.00    +0.000 C 
ATOM     29  C   UNL     1       6.295   6.292  17.013  0.00  0.00    +0.000 C 
ATOM     30  O   UNL     1       7.054   7.231  17.198  0.00  0.00    +0.000 OA
BRANCH  28  31
ATOM     31  O   UNL     1       4.858   7.081  15.178  0.00  0.00    +0.000 OA
ATOM     32  H   UNL     1       3.951   7.416  15.062  0.00  0.00    +0.000 HD
ENDBRANCH  28  31
ENDBRANCH  22  28
ENDBRANCH   1  23
BRANCH  10  33
ATOM     33  O   UNL     1       0.782  11.795  21.530  0.00  0.00    +0.000 OA
ATOM     34  H   UNL     1       0.963  12.412  20.801  0.00  0.00    +0.000 HD
ENDBRANCH  10  33
TORSDOF 5
ENDMDL
MODEL 6
REMARK VINA RESULT:      -6.7      3.470      8.571
REMARK  Name = 
REMARK  7 active torsions:
REMARK  status: ('A' for Active; 'I' for Inactive)
REMARK    1  A    between atoms: C_1  and  N_2
REMARK    2  A    between atoms: C_5  and  O_6
REMARK    3  A    between atoms: C_5  and  C_7
REMARK    4  A    between atoms: C_8  and  C_9
REMARK    5  A    between atoms: C_18  and  C_19
REMARK    6  A    between atoms: C_18  and  O_20
REMARK    7  A    between atoms: C_23  and  C_24
REMARK                            x       y       z     vdW  Elec       q    Type
REMARK                         _______ _______ _______ _____ _____    ______ ____
ROOT
ATOM      1  C   UNL     1       2.114   9.462  17.833  0.00  0.00    +0.000 A 
ATOM      2  C   UNL     1       2.540  10.764  18.164  0.00  0.00    +0.000 A 
ATOM      3  C   UNL     1       1.626  11.765  18.594  0.00  0.00    +0.000 A 
ATOM      4  C   UNL     1       0.260  11.432  18.663  0.00  0.00    +0.000 A 
ATOM      5  C   UNL     1      -0.158  10.143  18.292  0.00  0.00    +0.000 A 
ATOM      6  C   UNL     1       0.757   9.173  17.900  0.00  0.00    +0.000 A 
ATOM      7  F   UNL     1       0.299   7.947  17.600  0.00  0.00    +0.000 F 
ATOM      8  O   UNL     1      -0.807  12.203  19.019  0.00  0.00    +0.000 OA
ATOM      9  C   UNL     1      -0.759  13.307  19.921  0.00  0.00    +0.000 C 
ATOM     10  C   UNL     1       0.437  13.448  20.885  0.00  0.00    +0.000 C 
ATOM     11  C   UNL     1       0.105  14.493  21.962  0.00  0.00    +0.000 C 
ATOM     12  C   UNL     1       1.646  13.781  20.062  0.00  0.00    +0.000 A 
ATOM     13  S   UNL     1       2.547  15.218  20.291  0.00  0.00    +0.000 S 
ATOM     14  C   UNL     1       3.527  14.827  18.953  0.00  0.00    +0.000 A 
ATOM     15  N   UNL     1       3.261  13.671  18.360  0.00  0.00    +0.000 NA
ATOM     16  C   UNL     1       2.165  13.068  18.993  0.00  0.00    +0.000 A 
ENDROOT
BRANCH  14  17
ATOM     17  C   UNL     1       4.563  15.777  18.557  0.00  0.00    +0.000 C 
ATOM     18  N   UNL     1       5.736  15.237  18.101  0.00  0.00    +0.000 N 
ATOM     19  O   UNL     1       4.465  17.004  18.593  0.00  0.00    +0.000 OA
ATOM     20  H   UNL     1       5.860  14.233  18.061  0.00  0.00    +0.000 HD
ATOM     21  H   UNL     1       6.473  15.868  17.833  0.00  0.00    +0.000 HD
ENDBRANCH  14  17
BRANCH   1  23
ATOM     22  C   UNL     1       3.872   7.583  17.210  0.00  0.00    +0.000 C 
ATOM     23  C   UNL     1       3.051   8.432  17.473  0.00  0.00    +0.000 C 
BRANCH  22  28
ATOM     24  C   UNL     1       7.911   5.708  19.026  0.00  0.00    +0.000 C 
ATOM     25  N   UNL     1       6.624   5.932  18.407  0.00  0.00    +0.000 N 
ATOM     26  C   UNL     1       5.473   5.110  18.649  0.00  0.00    +0.000 C 
ATOM     27  C   UNL     1       4.693   5.226  17.355  0.00  0.00    +0.000 C 
ATOM     28  C   UNL     1       4.969   6.657  16.865  0.00  0.00    +0.000 C 
ATOM     29  C   UNL     1       6.334   6.978  17.533  0.00  0.00    +0.000 C 
ATOM     30  O   UNL     1       7.096   7.892  17.252  0.00  0.00    +0.000 OA
BRANCH  28  31
ATOM     31  O   UNL     1       5.086   6.622  15.443  0.00  0.00    +0.000 OA
ATOM     32  H   UNL     1       5.924   7.066  15.222  0.00  0.00    +0.000 HD
ENDBRANCH  28  31
ENDBRANCH  22  28
ENDBRANCH   1  23
BRANCH  10  33
ATOM     33  O   UNL     1       0.720  12.227  21.571  0.00  0.00    +0.000 OA
ATOM     34  H   UNL     1       0.122  11.543  21.226  0.00  0.00    +0.000 HD
ENDBRANCH  10  33
TORSDOF 5
ENDMDL
MODEL 7
REMARK VINA RESULT:      -6.7      9.236     11.761
REMARK  Name = 
REMARK  7 active torsions:
REMARK  status: ('A' for Active; 'I' for Inactive)
REMARK    1  A    between atoms: C_1  and  N_2
REMARK    2  A    between atoms: C_5  and  O_6
REMARK    3  A    between atoms: C_5  and  C_7
REMARK    4  A    between atoms: C_8  and  C_9
REMARK    5  A    between atoms: C_18  and  C_19
REMARK    6  A    between atoms: C_18  and  O_20
REMARK    7  A    between atoms: C_23  and  C_24
REMARK                            x       y       z     vdW  Elec       q    Type
REMARK                         _______ _______ _______ _____ _____    ______ ____
ROOT
ATOM      1  C   UNL     1       8.610  13.669  23.571  0.00  0.00    +0.000 A 
ATOM      2  C   UNL     1       7.731  12.983  24.433  0.00  0.00    +0.000 A 
ATOM      3  C   UNL     1       7.253  13.569  25.637  0.00  0.00    +0.000 A 
ATOM      4  C   UNL     1       7.700  14.863  25.970  0.00  0.00    +0.000 A 
ATOM      5  C   UNL     1       8.607  15.520  25.123  0.00  0.00    +0.000 A 
ATOM      6  C   UNL     1       9.040  14.938  23.937  0.00  0.00    +0.000 A 
ATOM      7  F   UNL     1       9.874  15.636  23.149  0.00  0.00    +0.000 F 
ATOM      8  O   UNL     1       7.414  15.628  27.061  0.00  0.00    +0.000 OA
ATOM      9  C   UNL     1       6.205  15.566  27.815  0.00  0.00    +0.000 C 
ATOM     10  C   UNL     1       4.955  14.909  27.193  0.00  0.00    +0.000 C 
ATOM     11  C   UNL     1       3.720  15.257  28.039  0.00  0.00    +0.000 C 
ATOM     12  C   UNL     1       5.224  13.438  27.082  0.00  0.00    +0.000 A 
ATOM     13  S   UNL     1       4.253  12.263  27.861  0.00  0.00    +0.000 S 
ATOM     14  C   UNL     1       5.303  11.030  27.331  0.00  0.00    +0.000 A 
ATOM     15  N   UNL     1       6.317  11.422  26.572  0.00  0.00    +0.000 NA
ATOM     16  C   UNL     1       6.281  12.817  26.435  0.00  0.00    +0.000 A 
ENDROOT
BRANCH  14  17
ATOM     17  C   UNL     1       5.022   9.659  27.748  0.00  0.00    +0.000 C 
ATOM     18  N   UNL     1       6.091   8.936  28.205  0.00  0.00    +0.000 N 
ATOM     19  O   UNL     1       3.917   9.114  27.729  0.00  0.00    +0.000 OA
ATOM     20  H   UNL     1       7.017   9.344  28.232  0.00  0.00    +0.000 HD
ATOM     21  H   UNL     1       5.929   7.983  28.487  0.00  0.00    +0.000 HD
ENDBRANCH  14  17
BRANCH   1  23
ATOM     22  C   UNL     1       9.367  12.578  21.281  0.00  0.00    +0.000 C 
ATOM     23  C   UNL     1       9.028  13.103  22.317  0.00  0.00    +0.000 C 
BRANCH  22  28
ATOM     24  C   UNL     1      11.135  13.373  16.880  0.00  0.00    +0.000 C 
ATOM     25  N   UNL     1      10.890  12.927  18.233  0.00  0.00    +0.000 N 
ATOM     26  C   UNL     1      11.915  12.825  19.232  0.00  0.00    +0.000 C 
ATOM     27  C   UNL     1      11.409  11.712  20.127  0.00  0.00    +0.000 C 
ATOM     28  C   UNL     1       9.879  11.859  20.097  0.00  0.00    +0.000 C 
ATOM     29  C   UNL     1       9.641  12.575  18.739  0.00  0.00    +0.000 C 
ATOM     30  O   UNL     1       8.582  12.686  18.141  0.00  0.00    +0.000 OA
BRANCH  28  31
ATOM     31  O   UNL     1       9.310  10.549  20.096  0.00  0.00    +0.000 OA
ATOM     32  H   UNL     1       8.482  10.606  20.606  0.00  0.00    +0.000 HD
ENDBRANCH  28  31
ENDBRANCH  22  28
ENDBRANCH   1  23
BRANCH  10  33
ATOM     33  O   UNL     1       4.698  15.389  25.872  0.00  0.00    +0.000 OA
ATOM     34  H   UNL     1       4.044  16.105  25.936  0.00  0.00    +0.000 HD
ENDBRANCH  10  33
TORSDOF 5
ENDMDL
MODEL 8
REMARK VINA RESULT:      -6.5      3.351      8.772
REMARK  Name = 
REMARK  7 active torsions:
REMARK  status: ('A' for Active; 'I' for Inactive)
REMARK    1  A    between atoms: C_1  and  N_2
REMARK    2  A    between atoms: C_5  and  O_6
REMARK    3  A    between atoms: C_5  and  C_7
REMARK    4  A    between atoms: C_8  and  C_9
REMARK    5  A    between atoms: C_18  and  C_19
REMARK    6  A    between atoms: C_18  and  O_20
REMARK    7  A    between atoms: C_23  and  C_24
REMARK                            x       y       z     vdW  Elec       q    Type
REMARK                         _______ _______ _______ _____ _____    ______ ____
ROOT
ATOM      1  C   UNL     1       1.300  10.016  18.546  0.00  0.00    +0.000 A 
ATOM      2  C   UNL     1       2.112  11.165  18.637  0.00  0.00    +0.000 A 
ATOM      3  C   UNL     1       1.559  12.475  18.638  0.00  0.00    +0.000 A 
ATOM      4  C   UNL     1       0.162  12.607  18.520  0.00  0.00    +0.000 A 
ATOM      5  C   UNL     1      -0.633  11.456  18.388  0.00  0.00    +0.000 A 
ATOM      6  C   UNL     1      -0.073  10.184  18.418  0.00  0.00    +0.000 A 
ATOM      7  F   UNL     1      -0.890   9.123  18.331  0.00  0.00    +0.000 F 
ATOM      8  O   UNL     1      -0.605  13.733  18.473  0.00  0.00    +0.000 OA
ATOM      9  C   UNL     1      -0.274  14.978  19.084  0.00  0.00    +0.000 C 
ATOM     10  C   UNL     1       0.791  15.018  20.198  0.00  0.00    +0.000 C 
ATOM     11  C   UNL     1       0.730  16.376  20.917  0.00  0.00    +0.000 C 
ATOM     12  C   UNL     1       2.119  14.721  19.568  0.00  0.00    +0.000 A 
ATOM     13  S   UNL     1       3.430  15.818  19.622  0.00  0.00    +0.000 S 
ATOM     14  C   UNL     1       4.349  14.785  18.626  0.00  0.00    +0.000 A 
ATOM     15  N   UNL     1       3.764  13.646  18.281  0.00  0.00    +0.000 NA
ATOM     16  C   UNL     1       2.468  13.610  18.816  0.00  0.00    +0.000 A 
ENDROOT
BRANCH  14  17
ATOM     17  C   UNL     1       5.683  15.221  18.225  0.00  0.00    +0.000 C 
ATOM     18  N   UNL     1       6.075  16.454  18.669  0.00  0.00    +0.000 N 
ATOM     19  O   UNL     1       6.473  14.574  17.535  0.00  0.00    +0.000 OA
ATOM     20  H   UNL     1       5.454  17.021  19.233  0.00  0.00    +0.000 HD
ATOM     21  H   UNL     1       6.986  16.787  18.397  0.00  0.00    +0.000 HD
ENDBRANCH  14  17
BRANCH   1  23
ATOM     22  C   UNL     1       2.287   7.566  18.725  0.00  0.00    +0.000 C 
ATOM     23  C   UNL     1       1.858   8.693  18.624  0.00  0.00    +0.000 C 
BRANCH  22  28
ATOM     24  C   UNL     1       0.851   3.073  19.663  0.00  0.00    +0.000 C 
ATOM     25  N   UNL     1       1.483   4.262  19.137  0.00  0.00    +0.000 N 
ATOM     26  C   UNL     1       1.685   4.499  17.735  0.00  0.00    +0.000 C 
ATOM     27  C   UNL     1       2.924   5.371  17.713  0.00  0.00    +0.000 C 
ATOM     28  C   UNL     1       2.824   6.217  18.993  0.00  0.00    +0.000 C 
ATOM     29  C   UNL     1       1.940   5.327  19.909  0.00  0.00    +0.000 C 
ATOM     30  O   UNL     1       1.783   5.440  21.116  0.00  0.00    +0.000 OA
BRANCH  28  31
ATOM     31  O   UNL     1       4.139   6.363  19.529  0.00  0.00    +0.000 OA
ATOM     32  H   UNL     1       4.502   7.185  19.152  0.00  0.00    +0.000 HD
ENDBRANCH  28  31
ENDBRANCH  22  28
ENDBRANCH   1  23
BRANCH  10  33
ATOM     33  O   UNL     1       0.565  14.017  21.193  0.00  0.00    +0.000 OA
ATOM     34  H   UNL     1       1.420  13.802  21.601  0.00  0.00    +0.000 HD
ENDBRANCH  10  33
TORSDOF 5
ENDMDL
MODEL 9
REMARK VINA RESULT:      -6.5      3.347      8.823
REMARK  Name = 
REMARK  7 active torsions:
REMARK  status: ('A' for Active; 'I' for Inactive)
REMARK    1  A    between atoms: C_1  and  N_2
REMARK    2  A    between atoms: C_5  and  O_6
REMARK    3  A    between atoms: C_5  and  C_7
REMARK    4  A    between atoms: C_8  and  C_9
REMARK    5  A    between atoms: C_18  and  C_19
REMARK    6  A    between atoms: C_18  and  O_20
REMARK    7  A    between atoms: C_23  and  C_24
REMARK                            x       y       z     vdW  Elec       q    Type
REMARK                         _______ _______ _______ _____ _____    ______ ____
ROOT
ATOM      1  C   UNL     1       0.852   9.640  19.878  0.00  0.00    +0.000 A 
ATOM      2  C   UNL     1       1.401  10.899  19.561  0.00  0.00    +0.000 A 
ATOM      3  C   UNL     1       0.688  12.107  19.794  0.00  0.00    +0.000 A 
ATOM      4  C   UNL     1      -0.609  12.020  20.336  0.00  0.00    +0.000 A 
ATOM      5  C   UNL     1      -1.161  10.758  20.609  0.00  0.00    +0.000 A 
ATOM      6  C   UNL     1      -0.435   9.591  20.398  0.00  0.00    +0.000 A 
ATOM      7  F   UNL     1      -1.003   8.417  20.720  0.00  0.00    +0.000 F 
ATOM      8  O   UNL     1      -1.497  13.011  20.630  0.00  0.00    +0.000 OA
ATOM      9  C   UNL     1      -1.149  14.345  20.994  0.00  0.00    +0.000 C 
ATOM     10  C   UNL     1       0.280  14.650  21.487  0.00  0.00    +0.000 C 
ATOM     11  C   UNL     1       0.315  16.047  22.126  0.00  0.00    +0.000 C 
ATOM     12  C   UNL     1       1.206  14.490  20.318  0.00  0.00    +0.000 A 
ATOM     13  S   UNL     1       2.184  15.769  19.737  0.00  0.00    +0.000 S 
ATOM     14  C   UNL     1       2.716  14.789  18.448  0.00  0.00    +0.000 A 
ATOM     15  N   UNL     1       2.248  13.549  18.434  0.00  0.00    +0.000 NA
ATOM     16  C   UNL     1       1.365  13.376  19.510  0.00  0.00    +0.000 A 
ENDROOT
BRANCH  14  17
ATOM     17  C   UNL     1       3.623  15.376  17.465  0.00  0.00    +0.000 C 
ATOM     18  N   UNL     1       4.899  14.881  17.450  0.00  0.00    +0.000 N 
ATOM     19  O   UNL     1       3.333  16.261  16.658  0.00  0.00    +0.000 OA
ATOM     20  H   UNL     1       5.180  14.158  18.101  0.00  0.00    +0.000 HD
ATOM     21  H   UNL     1       5.550  15.276  16.792  0.00  0.00    +0.000 HD
ENDBRANCH  14  17
BRANCH   1  23
ATOM     22  C   UNL     1       2.209   7.393  19.533  0.00  0.00    +0.000 C 
ATOM     23  C   UNL     1       1.606   8.427  19.713  0.00  0.00    +0.000 C 
BRANCH  22  28
ATOM     24  C   UNL     1       1.052   2.728  19.378  0.00  0.00    +0.000 C 
ATOM     25  N   UNL     1       1.563   4.055  19.119  0.00  0.00    +0.000 N 
ATOM     26  C   UNL     1       1.540   4.676  17.825  0.00  0.00    +0.000 C 
ATOM     27  C   UNL     1       2.738   5.603  17.871  0.00  0.00    +0.000 C 
ATOM     28  C   UNL     1       2.815   6.061  19.336  0.00  0.00    +0.000 C 
ATOM     29  C   UNL     1       2.107   4.899  20.085  0.00  0.00    +0.000 C 
ATOM     30  O   UNL     1       2.136   4.669  21.285  0.00  0.00    +0.000 OA
BRANCH  28  31
ATOM     31  O   UNL     1       4.193   6.145  19.700  0.00  0.00    +0.000 OA
ATOM     32  H   UNL     1       4.219   6.464  20.620  0.00  0.00    +0.000 HD
ENDBRANCH  28  31
ENDBRANCH  22  28
ENDBRANCH   1  23
BRANCH  10  33
ATOM     33  O   UNL     1       0.710  13.728  22.491  0.00  0.00    +0.000 OA
ATOM     34  H   UNL     1       1.542  13.325  22.192  0.00  0.00    +0.000 HD
ENDBRANCH  10  33
TORSDOF 5
ENDMDL
