MODEL 1
REMARK VINA RESULT:      -7.8      0.000      0.000
REMARK  Name = 
REMARK  5 active torsions:
REMARK  status: ('A' for Active; 'I' for Inactive)
REMARK    1  A    between atoms: C_1  and  O_2
REMARK    2  A    between atoms: O_2  and  C_3
REMARK    3  A    between atoms: C_12  and  O_13
REMARK    4  A    between atoms: O_13  and  C_14
REMARK    5  A    between atoms: C_16  and  O_17
REMARK                            x       y       z     vdW  Elec       q    Type
REMARK                         _______ _______ _______ _____ _____    ______ ____
ROOT
ATOM      1  C   UNL     1       2.074   3.908  20.215  0.00  0.00    +0.000 C 
ATOM      2  C   UNL     1       1.534   5.103  20.488  0.00  0.00    +0.000 C 
ATOM      3  C   UNL     1       2.109   6.345  19.961  0.00  0.00    +0.000 C 
ATOM      4  O   UNL     1       1.762   7.429  20.414  0.00  0.00    +0.000 OA
ATOM      5  C   UNL     1       3.035   6.232  18.823  0.00  0.00    +0.000 A 
ATOM      6  C   UNL     1       3.329   7.388  18.104  0.00  0.00    +0.000 A 
ATOM      7  C   UNL     1       4.175   7.315  17.007  0.00  0.00    +0.000 A 
ATOM      8  C   UNL     1       4.712   6.091  16.590  0.00  0.00    +0.000 A 
ATOM      9  C   UNL     1       5.555   6.090  15.464  0.00  0.00    +0.000 A 
ATOM     10  C   UNL     1       6.108   4.911  14.974  0.00  0.00    +0.000 A 
ATOM     11  C   UNL     1       5.790   3.713  15.599  0.00  0.00    +0.000 A 
ATOM     12  C   UNL     1       4.933   3.702  16.706  0.00  0.00    +0.000 A 
ATOM     13  C   UNL     1       4.402   4.887  17.283  0.00  0.00    +0.000 A 
ATOM     14  C   UNL     1       3.579   4.995  18.456  0.00  0.00    +0.000 A 
ATOM     15  C   UNL     1       3.351   3.877  19.418  0.00  0.00    +0.000 C 
ATOM     16  O   UNL     1       4.212   3.036  19.659  0.00  0.00    +0.000 OA
ENDROOT
BRANCH   1  18
ATOM     17  C   UNL     1       1.593   2.492  22.092  0.00  0.00    +0.000 C 
ATOM     18  O   UNL     1       1.610   2.693  20.682  0.00  0.00    +0.000 OA
ENDBRANCH   1  18
BRANCH  10  19
ATOM     19  O   UNL     1       6.937   4.803  13.892  0.00  0.00    +0.000 OA
ATOM     20  C   UNL     1       6.567   3.866  12.887  0.00  0.00    +0.000 C 
ENDBRANCH  10  19
BRANCH  12  21
ATOM     21  O   UNL     1       4.525   2.475  17.150  0.00  0.00    +0.000 OA
ATOM     22  H   UNL     1       4.792   2.383  18.081  0.00  0.00    +0.000 HD
ENDBRANCH  12  21
TORSDOF 3
ENDMDL
MODEL 2
REMARK VINA RESULT:      -7.4      1.485      3.294
REMARK  Name = 
REMARK  5 active torsions:
REMARK  status: ('A' for Active; 'I' for Inactive)
REMARK    1  A    between atoms: C_1  and  O_2
REMARK    2  A    between atoms: O_2  and  C_3
REMARK    3  A    between atoms: C_12  and  O_13
REMARK    4  A    between atoms: O_13  and  C_14
REMARK    5  A    between atoms: C_16  and  O_17
REMARK                            x       y       z     vdW  Elec       q    Type
REMARK                         _______ _______ _______ _____ _____    ______ ____
ROOT
ATOM      1  C   UNL     1       1.941   6.769  20.221  0.00  0.00    +0.000 C 
ATOM      2  C   UNL     1       1.491   5.667  20.837  0.00  0.00    +0.000 C 
ATOM      3  C   UNL     1       1.566   4.347  20.202  0.00  0.00    +0.000 C 
ATOM      4  O   UNL     1       0.935   3.403  20.661  0.00  0.00    +0.000 OA
ATOM      5  C   UNL     1       2.488   4.195  19.066  0.00  0.00    +0.000 A 
ATOM      6  C   UNL     1       2.822   2.903  18.665  0.00  0.00    +0.000 A 
ATOM      7  C   UNL     1       3.712   2.719  17.617  0.00  0.00    +0.000 A 
ATOM      8  C   UNL     1       4.305   3.814  16.975  0.00  0.00    +0.000 A 
ATOM      9  C   UNL     1       5.205   3.553  15.925  0.00  0.00    +0.000 A 
ATOM     10  C   UNL     1       5.854   4.585  15.254  0.00  0.00    +0.000 A 
ATOM     11  C   UNL     1       5.624   5.894  15.658  0.00  0.00    +0.000 A 
ATOM     12  C   UNL     1       4.748   6.161  16.717  0.00  0.00    +0.000 A 
ATOM     13  C   UNL     1       4.011   5.144  17.384  0.00  0.00    +0.000 A 
ATOM     14  C   UNL     1       3.036   5.314  18.426  0.00  0.00    +0.000 A 
ATOM     15  C   UNL     1       2.449   6.630  18.810  0.00  0.00    +0.000 C 
ATOM     16  O   UNL     1       2.260   7.525  17.993  0.00  0.00    +0.000 OA
ENDROOT
BRANCH   1  18
ATOM     17  C   UNL     1       0.660   8.491  21.295  0.00  0.00    +0.000 C 
ATOM     18  O   UNL     1       1.894   8.051  20.736  0.00  0.00    +0.000 OA
ENDBRANCH   1  18
BRANCH  10  19
ATOM     19  O   UNL     1       6.741   4.440  14.224  0.00  0.00    +0.000 OA
ATOM     20  C   UNL     1       6.290   3.724  13.080  0.00  0.00    +0.000 C 
ENDBRANCH  10  19
BRANCH  12  21
ATOM     21  O   UNL     1       4.714   7.449  17.172  0.00  0.00    +0.000 OA
ATOM     22  H   UNL     1       3.845   7.827  16.954  0.00  0.00    +0.000 HD
ENDBRANCH  12  21
TORSDOF 3
ENDMDL
MODEL 3
REMARK VINA RESULT:      -7.0      2.173      6.390
REMARK  Name = 
REMARK  5 active torsions:
REMARK  status: ('A' for Active; 'I' for Inactive)
REMARK    1  A    between atoms: C_1  and  O_2
REMARK    2  A    between atoms: O_2  and  C_3
REMARK    3  A    between atoms: C_12  and  O_13
REMARK    4  A    between atoms: O_13  and  C_14
REMARK    5  A    between atoms: C_16  and  O_17
REMARK                            x       y       z     vdW  Elec       q    Type
REMARK                         _______ _______ _______ _____ _____    ______ ____
ROOT
ATOM      1  C   UNL     1       4.670   4.788  16.619  0.00  0.00    +0.000 C 
ATOM      2  C   UNL     1       4.608   3.611  17.257  0.00  0.00    +0.000 C 
ATOM      3  C   UNL     1       4.153   3.514  18.648  0.00  0.00    +0.000 C 
ATOM      4  O   UNL     1       4.337   2.488  19.289  0.00  0.00    +0.000 OA
ATOM      5  C   UNL     1       3.400   4.654  19.193  0.00  0.00    +0.000 A 
ATOM      6  C   UNL     1       2.684   4.459  20.372  0.00  0.00    +0.000 A 
ATOM      7  C   UNL     1       1.937   5.502  20.901  0.00  0.00    +0.000 A 
ATOM      8  C   UNL     1       1.867   6.740  20.250  0.00  0.00    +0.000 A 
ATOM      9  C   UNL     1       1.083   7.750  20.838  0.00  0.00    +0.000 A 
ATOM     10  C   UNL     1       0.943   8.999  20.242  0.00  0.00    +0.000 A 
ATOM     11  C   UNL     1       1.569   9.231  19.023  0.00  0.00    +0.000 A 
ATOM     12  C   UNL     1       2.331   8.224  18.419  0.00  0.00    +0.000 A 
ATOM     13  C   UNL     1       2.558   6.960  19.027  0.00  0.00    +0.000 A 
ATOM     14  C   UNL     1       3.379   5.889  18.532  0.00  0.00    +0.000 A 
ATOM     15  C   UNL     1       4.341   6.032  17.400  0.00  0.00    +0.000 C 
ATOM     16  O   UNL     1       4.946   7.077  17.185  0.00  0.00    +0.000 OA
ENDROOT
BRANCH   1  18
ATOM     17  C   UNL     1       6.320   4.343  14.933  0.00  0.00    +0.000 C 
ATOM     18  O   UNL     1       5.102   4.972  15.318  0.00  0.00    +0.000 OA
ENDBRANCH   1  18
BRANCH  10  19
ATOM     19  O   UNL     1       0.210  10.045  20.730  0.00  0.00    +0.000 OA
ATOM     20  C   UNL     1      -0.133  10.004  22.111  0.00  0.00    +0.000 C 
ENDBRANCH  10  19
BRANCH  12  21
ATOM     21  O   UNL     1       2.761   8.466  17.144  0.00  0.00    +0.000 OA
ATOM     22  H   UNL     1       2.205   9.167  16.763  0.00  0.00    +0.000 HD
ENDBRANCH  12  21
TORSDOF 3
ENDMDL
MODEL 4
REMARK VINA RESULT:      -6.6      4.619      7.432
REMARK  Name = 
REMARK  5 active torsions:
REMARK  status: ('A' for Active; 'I' for Inactive)
REMARK    1  A    between atoms: C_1  and  O_2
REMARK    2  A    between atoms: O_2  and  C_3
REMARK    3  A    between atoms: C_12  and  O_13
REMARK    4  A    between atoms: O_13  and  C_14
REMARK    5  A    between atoms: C_16  and  O_17
REMARK                            x       y       z     vdW  Elec       q    Type
REMARK                         _______ _______ _______ _____ _____    ______ ____
ROOT
ATOM      1  C   UNL     1      -0.409  12.796  20.094  0.00  0.00    +0.000 C 
ATOM      2  C   UNL     1      -0.643  12.747  21.412  0.00  0.00    +0.000 C 
ATOM      3  C   UNL     1      -0.586  11.485  22.157  0.00  0.00    +0.000 C 
ATOM      4  O   UNL     1      -1.041  11.415  23.292  0.00  0.00    +0.000 OA
ATOM      5  C   UNL     1       0.112  10.357  21.521  0.00  0.00    +0.000 A 
ATOM      6  C   UNL     1       0.465   9.273  22.323  0.00  0.00    +0.000 A 
ATOM      7  C   UNL     1       1.150   8.204  21.765  0.00  0.00    +0.000 A 
ATOM      8  C   UNL     1       1.521   8.210  20.414  0.00  0.00    +0.000 A 
ATOM      9  C   UNL     1       2.222   7.096  19.918  0.00  0.00    +0.000 A 
ATOM     10  C   UNL     1       2.646   7.037  18.594  0.00  0.00    +0.000 A 
ATOM     11  C   UNL     1       2.394   8.121  17.763  0.00  0.00    +0.000 A 
ATOM     12  C   UNL     1       1.718   9.244  18.255  0.00  0.00    +0.000 A 
ATOM     13  C   UNL     1       1.206   9.317  19.578  0.00  0.00    +0.000 A 
ATOM     14  C   UNL     1       0.437  10.384  20.159  0.00  0.00    +0.000 A 
ATOM     15  C   UNL     1      -0.169  11.497  19.372  0.00  0.00    +0.000 C 
ATOM     16  O   UNL     1      -0.582  11.339  18.227  0.00  0.00    +0.000 OA
ENDROOT
BRANCH   1  18
ATOM     17  C   UNL     1       0.779  14.517  18.915  0.00  0.00    +0.000 C 
ATOM     18  O   UNL     1      -0.459  13.936  19.313  0.00  0.00    +0.000 OA
ENDBRANCH   1  18
BRANCH  10  19
ATOM     19  O   UNL     1       3.330   6.004  18.015  0.00  0.00    +0.000 OA
ATOM     20  C   UNL     1       3.888   5.030  18.889  0.00  0.00    +0.000 C 
ENDBRANCH  10  19
BRANCH  12  21
ATOM     21  O   UNL     1       1.669  10.336  17.434  0.00  0.00    +0.000 OA
ATOM     22  H   UNL     1       0.807  10.340  16.983  0.00  0.00    +0.000 HD
ENDBRANCH  12  21
TORSDOF 3
ENDMDL
MODEL 5
REMARK VINA RESULT:      -6.4      2.229      5.298
REMARK  Name = 
REMARK  5 active torsions:
REMARK  status: ('A' for Active; 'I' for Inactive)
REMARK    1  A    between atoms: C_1  and  O_2
REMARK    2  A    between atoms: O_2  and  C_3
REMARK    3  A    between atoms: C_12  and  O_13
REMARK    4  A    between atoms: O_13  and  C_14
REMARK    5  A    between atoms: C_16  and  O_17
REMARK                            x       y       z     vdW  Elec       q    Type
REMARK                         _______ _______ _______ _____ _____    ______ ____
ROOT
ATOM      1  C   UNL     1       2.787   3.892  20.712  0.00  0.00    +0.000 C 
ATOM      2  C   UNL     1       3.717   3.419  19.871  0.00  0.00    +0.000 C 
ATOM      3  C   UNL     1       3.991   4.068  18.585  0.00  0.00    +0.000 C 
ATOM      4  O   UNL     1       4.653   3.493  17.730  0.00  0.00    +0.000 OA
ATOM      5  C   UNL     1       3.522   5.452  18.413  0.00  0.00    +0.000 A 
ATOM      6  C   UNL     1       4.047   6.192  17.356  0.00  0.00    +0.000 A 
ATOM      7  C   UNL     1       3.650   7.510  17.179  0.00  0.00    +0.000 A 
ATOM      8  C   UNL     1       2.753   8.118  18.067  0.00  0.00    +0.000 A 
ATOM      9  C   UNL     1       2.402   9.460  17.832  0.00  0.00    +0.000 A 
ATOM     10  C   UNL     1       1.536  10.142  18.682  0.00  0.00    +0.000 A 
ATOM     11  C   UNL     1       1.040   9.483  19.799  0.00  0.00    +0.000 A 
ATOM     12  C   UNL     1       1.403   8.155  20.053  0.00  0.00    +0.000 A 
ATOM     13  C   UNL     1       2.227   7.399  19.176  0.00  0.00    +0.000 A 
ATOM     14  C   UNL     1       2.598   6.016  19.301  0.00  0.00    +0.000 A 
ATOM     15  C   UNL     1       1.962   5.068  20.262  0.00  0.00    +0.000 C 
ATOM     16  O   UNL     1       0.780   5.153  20.577  0.00  0.00    +0.000 OA
ENDROOT
BRANCH   1  18
ATOM     17  C   UNL     1       1.477   2.295  21.935  0.00  0.00    +0.000 C 
ATOM     18  O   UNL     1       2.452   3.334  21.932  0.00  0.00    +0.000 OA
ENDBRANCH   1  18
BRANCH  10  19
ATOM     19  O   UNL     1       1.132  11.440  18.542  0.00  0.00    +0.000 OA
ATOM     20  C   UNL     1       2.151  12.419  18.367  0.00  0.00    +0.000 C 
ENDBRANCH  10  19
BRANCH  12  21
ATOM     21  O   UNL     1       1.023   7.638  21.260  0.00  0.00    +0.000 OA
ATOM     22  H   UNL     1       1.822   7.495  21.796  0.00  0.00    +0.000 HD
ENDBRANCH  12  21
TORSDOF 3
ENDMDL
MODEL 6
REMARK VINA RESULT:      -6.3      1.946      5.726
REMARK  Name = 
REMARK  5 active torsions:
REMARK  status: ('A' for Active; 'I' for Inactive)
REMARK    1  A    between atoms: C_1  and  O_2
REMARK    2  A    between atoms: O_2  and  C_3
REMARK    3  A    between atoms: C_12  and  O_13
REMARK    4  A    between atoms: O_13  and  C_14
REMARK    5  A    between atoms: C_16  and  O_17
REMARK                            x       y       z     vdW  Elec       q    Type
REMARK                         _______ _______ _______ _____ _____    ______ ____
ROOT
ATOM      1  C   UNL     1       4.040   3.212  18.353  0.00  0.00    +0.000 C 
ATOM      2  C   UNL     1       4.802   3.631  17.334  0.00  0.00    +0.000 C 
ATOM      3  C   UNL     1       4.583   4.933  16.695  0.00  0.00    +0.000 C 
ATOM      4  O   UNL     1       5.113   5.192  15.622  0.00  0.00    +0.000 OA
ATOM      5  C   UNL     1       3.788   5.924  17.437  0.00  0.00    +0.000 A 
ATOM      6  C   UNL     1       3.843   7.251  17.016  0.00  0.00    +0.000 A 
ATOM      7  C   UNL     1       3.129   8.219  17.708  0.00  0.00    +0.000 A 
ATOM      8  C   UNL     1       2.379   7.888  18.844  0.00  0.00    +0.000 A 
ATOM      9  C   UNL     1       1.688   8.922  19.502  0.00  0.00    +0.000 A 
ATOM     10  C   UNL     1       0.941   8.678  20.649  0.00  0.00    +0.000 A 
ATOM     11  C   UNL     1       0.910   7.389  21.166  0.00  0.00    +0.000 A 
ATOM     12  C   UNL     1       1.614   6.359  20.531  0.00  0.00    +0.000 A 
ATOM     13  C   UNL     1       2.332   6.548  19.319  0.00  0.00    +0.000 A 
ATOM     14  C   UNL     1       3.022   5.550  18.548  0.00  0.00    +0.000 A 
ATOM     15  C   UNL     1       2.885   4.081  18.774  0.00  0.00    +0.000 C 
ATOM     16  O   UNL     1       1.836   3.575  19.159  0.00  0.00    +0.000 OA
ENDROOT
BRANCH   1  18
ATOM     17  C   UNL     1       4.635   2.010  20.344  0.00  0.00    +0.000 C 
ATOM     18  O   UNL     1       4.164   1.996  19.000  0.00  0.00    +0.000 OA
ENDBRANCH   1  18
BRANCH  10  19
ATOM     19  O   UNL     1       0.234   9.608  21.360  0.00  0.00    +0.000 OA
ATOM     20  C   UNL     1       0.119   9.397  22.763  0.00  0.00    +0.000 C 
ENDBRANCH  10  19
BRANCH  12  21
ATOM     21  O   UNL     1       1.684   5.166  21.196  0.00  0.00    +0.000 OA
ATOM     22  H   UNL     1       0.798   4.957  21.541  0.00  0.00    +0.000 HD
ENDBRANCH  12  21
TORSDOF 3
ENDMDL
MODEL 7
REMARK VINA RESULT:      -6.3      2.616      5.064
REMARK  Name = 
REMARK  5 active torsions:
REMARK  status: ('A' for Active; 'I' for Inactive)
REMARK    1  A    between atoms: C_1  and  O_2
REMARK    2  A    between atoms: O_2  and  C_3
REMARK    3  A    between atoms: C_12  and  O_13
REMARK    4  A    between atoms: O_13  and  C_14
REMARK    5  A    between atoms: C_16  and  O_17
REMARK                            x       y       z     vdW  Elec       q    Type
REMARK                         _______ _______ _______ _____ _____    ______ ____
ROOT
ATOM      1  C   UNL     1       0.483   9.504  19.995  0.00  0.00    +0.000 C 
ATOM      2  C   UNL     1       0.843  10.255  18.944  0.00  0.00    +0.000 C 
ATOM      3  C   UNL     1       2.017   9.925  18.130  0.00  0.00    +0.000 C 
ATOM      4  O   UNL     1       2.473  10.743  17.342  0.00  0.00    +0.000 OA
ATOM      5  C   UNL     1       2.551   8.558  18.237  0.00  0.00    +0.000 A 
ATOM      6  C   UNL     1       3.435   8.124  17.252  0.00  0.00    +0.000 A 
ATOM      7  C   UNL     1       3.937   6.832  17.303  0.00  0.00    +0.000 A 
ATOM      8  C   UNL     1       3.542   5.944  18.313  0.00  0.00    +0.000 A 
ATOM      9  C   UNL     1       4.084   4.646  18.298  0.00  0.00    +0.000 A 
ATOM     10  C   UNL     1       3.724   3.700  19.251  0.00  0.00    +0.000 A 
ATOM     11  C   UNL     1       2.785   4.045  20.215  0.00  0.00    +0.000 A 
ATOM     12  C   UNL     1       2.223   5.328  20.223  0.00  0.00    +0.000 A 
ATOM     13  C   UNL     1       2.613   6.347  19.312  0.00  0.00    +0.000 A 
ATOM     14  C   UNL     1       2.159   7.710  19.280  0.00  0.00    +0.000 A 
ATOM     15  C   UNL     1       1.373   8.351  20.375  0.00  0.00    +0.000 C 
ATOM     16  O   UNL     1       1.533   8.053  21.554  0.00  0.00    +0.000 OA
ENDROOT
BRANCH   1  18
ATOM     17  C   UNL     1      -0.561  10.939  21.611  0.00  0.00    +0.000 C 
ATOM     18  O   UNL     1      -0.594   9.752  20.825  0.00  0.00    +0.000 OA
ENDBRANCH   1  18
BRANCH  10  19
ATOM     19  O   UNL     1       4.191   2.417  19.326  0.00  0.00    +0.000 OA
ATOM     20  C   UNL     1       3.596   1.461  18.456  0.00  0.00    +0.000 C 
ENDBRANCH  10  19
BRANCH  12  21
ATOM     21  O   UNL     1       1.180   5.532  21.083  0.00  0.00    +0.000 OA
ATOM     22  H   UNL     1       1.132   4.773  21.690  0.00  0.00    +0.000 HD
ENDBRANCH  12  21
TORSDOF 3
ENDMDL
MODEL 8
REMARK VINA RESULT:      -6.1      2.045      5.408
REMARK  Name = 
REMARK  5 active torsions:
REMARK  status: ('A' for Active; 'I' for Inactive)
REMARK    1  A    between atoms: C_1  and  O_2
REMARK    2  A    between atoms: O_2  and  C_3
REMARK    3  A    between atoms: C_12  and  O_13
REMARK    4  A    between atoms: O_13  and  C_14
REMARK    5  A    between atoms: C_16  and  O_17
REMARK                            x       y       z     vdW  Elec       q    Type
REMARK                         _______ _______ _______ _____ _____    ______ ____
ROOT
ATOM      1  C   UNL     1       3.929   3.375  19.642  0.00  0.00    +0.000 C 
ATOM      2  C   UNL     1       4.802   3.269  18.631  0.00  0.00    +0.000 C 
ATOM      3  C   UNL     1       4.789   4.206  17.502  0.00  0.00    +0.000 C 
ATOM      4  O   UNL     1       5.416   3.953  16.482  0.00  0.00    +0.000 OA
ATOM      5  C   UNL     1       4.077   5.480  17.690  0.00  0.00    +0.000 A 
ATOM      6  C   UNL     1       4.323   6.505  16.780  0.00  0.00    +0.000 A 
ATOM      7  C   UNL     1       3.692   7.730  16.941  0.00  0.00    +0.000 A 
ATOM      8  C   UNL     1       2.834   7.962  18.023  0.00  0.00    +0.000 A 
ATOM      9  C   UNL     1       2.236   9.231  18.129  0.00  0.00    +0.000 A 
ATOM     10  C   UNL     1       1.391   9.548  19.188  0.00  0.00    +0.000 A 
ATOM     11  C   UNL     1       1.166   8.594  20.172  0.00  0.00    +0.000 A 
ATOM     12  C   UNL     1       1.777   7.337  20.087  0.00  0.00    +0.000 A 
ATOM     13  C   UNL     1       2.590   6.947  18.989  0.00  0.00    +0.000 A 
ATOM     14  C   UNL     1       3.199   5.664  18.766  0.00  0.00    +0.000 A 
ATOM     15  C   UNL     1       2.866   4.437  19.547  0.00  0.00    +0.000 C 
ATOM     16  O   UNL     1       1.739   4.228  19.984  0.00  0.00    +0.000 OA
ENDROOT
BRANCH   1  18
ATOM     17  C   UNL     1       4.855   1.517  20.847  0.00  0.00    +0.000 C 
ATOM     18  O   UNL     1       3.858   2.528  20.732  0.00  0.00    +0.000 OA
ENDBRANCH   1  18
BRANCH  10  19
ATOM     19  O   UNL     1       0.760  10.745  19.382  0.00  0.00    +0.000 OA
ATOM     20  C   UNL     1      -0.600  10.699  19.797  0.00  0.00    +0.000 C 
ENDBRANCH  10  19
BRANCH  12  21
ATOM     21  O   UNL     1       1.654   6.523  21.179  0.00  0.00    +0.000 OA
ATOM     22  H   UNL     1       1.101   6.978  21.838  0.00  0.00    +0.000 HD
ENDBRANCH  12  21
TORSDOF 3
ENDMDL
MODEL 9
REMARK VINA RESULT:      -6.1      7.528      9.480
REMARK  Name = 
REMARK  5 active torsions:
REMARK  status: ('A' for Active; 'I' for Inactive)
REMARK    1  A    between atoms: C_1  and  O_2
REMARK    2  A    between atoms: O_2  and  C_3
REMARK    3  A    between atoms: C_12  and  O_13
REMARK    4  A    between atoms: O_13  and  C_14
REMARK    5  A    between atoms: C_16  and  O_17
REMARK                            x       y       z     vdW  Elec       q    Type
REMARK                         _______ _______ _______ _____ _____    ______ ____
ROOT
ATOM      1  C   UNL     1      -0.084  11.449  21.586  0.00  0.00    +0.000 C 
ATOM      2  C   UNL     1      -0.923  12.002  22.473  0.00  0.00    +0.000 C 
ATOM      3  C   UNL     1      -2.174  12.641  22.053  0.00  0.00    +0.000 C 
ATOM      4  O   UNL     1      -2.798  13.351  22.831  0.00  0.00    +0.000 OA
ATOM      5  C   UNL     1      -2.679  12.318  20.709  0.00  0.00    +0.000 A 
ATOM      6  C   UNL     1      -4.003  12.637  20.416  0.00  0.00    +0.000 A 
ATOM      7  C   UNL     1      -4.523  12.321  19.169  0.00  0.00    +0.000 A 
ATOM      8  C   UNL     1      -3.747  11.657  18.210  0.00  0.00    +0.000 A 
ATOM      9  C   UNL     1      -4.342  11.359  16.971  0.00  0.00    +0.000 A 
ATOM     10  C   UNL     1      -3.646  10.681  15.977  0.00  0.00    +0.000 A 
ATOM     11  C   UNL     1      -2.346  10.264  16.236  0.00  0.00    +0.000 A 
ATOM     12  C   UNL     1      -1.754  10.535  17.476  0.00  0.00    +0.000 A 
ATOM     13  C   UNL     1      -2.403  11.286  18.493  0.00  0.00    +0.000 A 
ATOM     14  C   UNL     1      -1.863  11.682  19.764  0.00  0.00    +0.000 A 
ATOM     15  C   UNL     1      -0.418  11.578  20.124  0.00  0.00    +0.000 C 
ATOM     16  O   UNL     1       0.474  11.722  19.295  0.00  0.00    +0.000 OA
ENDROOT
BRANCH   1  18
ATOM     17  C   UNL     1       1.146   9.422  21.965  0.00  0.00    +0.000 C 
ATOM     18  O   UNL     1       1.121  10.845  21.892  0.00  0.00    +0.000 OA
ENDBRANCH   1  18
BRANCH  10  19
ATOM     19  O   UNL     1      -4.129  10.346  14.742  0.00  0.00    +0.000 OA
ATOM     20  C   UNL     1      -3.179   9.931  13.767  0.00  0.00    +0.000 C 
ENDBRANCH  10  19
BRANCH  12  21
ATOM     21  O   UNL     1      -0.549   9.938  17.720  0.00  0.00    +0.000 OA
ATOM     22  H   UNL     1       0.106  10.635  17.897  0.00  0.00    +0.000 HD
ENDBRANCH  12  21
TORSDOF 3
ENDMDL
