MODEL 1
REMARK VINA RESULT:      -7.6      0.000      0.000
REMARK  Name = 
REMARK  15 active torsions:
REMARK  status: ('A' for Active; 'I' for Inactive)
REMARK    1  A    between atoms: C_1  and  C_2
REMARK    2  A    between atoms: C_2  and  C_3
REMARK    3  A    between atoms: C_2  and  C_4
REMARK    4  A    between atoms: C_2  and  O_5
REMARK    5  A    between atoms: O_5  and  C_6
REMARK    6  A    between atoms: N_8  and  C_9
REMARK    7  A    between atoms: C_12  and  N_13
REMARK    8  A    between atoms: N_13  and  C_14
REMARK    9  A    between atoms: C_14  and  C_15
REMARK   10  A    between atoms: C_15  and  C_16
REMARK   11  A    between atoms: C_16  and  N_17
REMARK   12  A    between atoms: N_17  and  C_18
REMARK   13  A    between atoms: N_17  and  C_25
REMARK   14  A    between atoms: C_18  and  C_19
REMARK   15  A    between atoms: C_25  and  C_26
REMARK                            x       y       z     vdW  Elec       q    Type
REMARK                         _______ _______ _______ _____ _____    ______ ____
ROOT
ATOM      1  C   UNL     1       1.939  10.386  18.199  0.00  0.00    +0.000 C 
ENDROOT
BRANCH   1   2
ATOM      2  N   UNL     1       0.558  10.895  18.064  0.00  0.00    +0.000 NA
ATOM      3  H   UNL     1       0.572  11.843  17.691  0.00  0.00    +0.000 HD
BRANCH   2   7
ATOM      4  C   UNL     1      -2.402  12.818  19.624  0.00  0.00    +0.000 C 
ATOM      5  C   UNL     1      -0.939  13.251  19.748  0.00  0.00    +0.000 C 
ATOM      6  C   UNL     1      -0.050  12.091  20.171  0.00  0.00    +0.000 C 
ATOM      7  C   UNL     1      -0.224  10.830  19.310  0.00  0.00    +0.000 C 
ATOM      8  C   UNL     1      -1.686  10.482  18.999  0.00  0.00    +0.000 C 
ATOM      9  C   UNL     1      -2.535  11.679  18.612  0.00  0.00    +0.000 C 
BRANCH   4  12
ATOM     10  C   UNL     1      -4.212  12.865  21.283  0.00  0.00    +0.000 C 
ATOM     11  O   UNL     1      -4.925  13.573  20.616  0.00  0.00    +0.000 OA
ATOM     12  N   UNL     1      -2.953  12.469  20.911  0.00  0.00    +0.000 N 
ATOM     13  H   UNL     1      -2.431  11.950  21.612  0.00  0.00    +0.000 HD
BRANCH  10  14
ATOM     14  O   UNL     1      -4.558  12.287  22.468  0.00  0.00    +0.000 OA
BRANCH  14  16
ATOM     15  C   UNL     1      -6.278  13.552  23.580  0.00  0.00    +0.000 C 
ATOM     16  C   UNL     1      -4.789  13.182  23.593  0.00  0.00    +0.000 C 
ATOM     17  C   UNL     1      -3.914  14.443  23.628  0.00  0.00    +0.000 C 
ATOM     18  C   UNL     1      -4.489  12.364  24.858  0.00  0.00    +0.000 C 
ENDBRANCH  14  16
ENDBRANCH  10  14
ENDBRANCH   4  12
ENDBRANCH   2   7
ENDBRANCH   1   2
BRANCH   1  19
ATOM     19  C   UNL     1       1.995   8.909  17.827  0.00  0.00    +0.000 C 
BRANCH  19  20
ATOM     20  C   UNL     1       2.113   7.919  18.979  0.00  0.00    +0.000 C 
BRANCH  20  21
ATOM     21  N   UNL     1       3.038   6.809  18.597  0.00  0.00    +0.000 NA
BRANCH  21  22
ATOM     22  C   UNL     1       2.236   5.622  18.227  0.00  0.00    +0.000 C 
BRANCH  22  23
ATOM     23  C   UNL     1       2.237   4.426  19.151  0.00  0.00    +0.000 A 
ATOM     24  C   UNL     1       3.263   3.471  19.099  0.00  0.00    +0.000 A 
ATOM     25  C   UNL     1       3.411   2.545  20.134  0.00  0.00    +0.000 A 
ATOM     26  C   UNL     1       2.531   2.557  21.216  0.00  0.00    +0.000 A 
ATOM     27  C   UNL     1       1.481   3.471  21.250  0.00  0.00    +0.000 A 
ATOM     28  C   UNL     1       1.333   4.399  20.222  0.00  0.00    +0.000 A 
ENDBRANCH  22  23
ENDBRANCH  21  22
BRANCH  21  29
ATOM     29  C   UNL     1       3.897   7.219  17.472  0.00  0.00    +0.000 C 
BRANCH  29  30
ATOM     30  C   UNL     1       5.022   6.254  17.140  0.00  0.00    +0.000 A 
ATOM     31  C   UNL     1       5.319   5.903  15.813  0.00  0.00    +0.000 A 
ATOM     32  C   UNL     1       6.411   5.079  15.525  0.00  0.00    +0.000 A 
ATOM     33  C   UNL     1       7.212   4.592  16.558  0.00  0.00    +0.000 A 
ATOM     34  C   UNL     1       6.911   4.911  17.880  0.00  0.00    +0.000 A 
ATOM     35  C   UNL     1       5.821   5.734  18.169  0.00  0.00    +0.000 A 
ENDBRANCH  29  30
ENDBRANCH  21  29
ENDBRANCH  20  21
ENDBRANCH  19  20
ENDBRANCH   1  19
TORSDOF 12
ENDMDL
MODEL 2
REMARK VINA RESULT:      -7.4      7.211     10.944
REMARK  Name = 
REMARK  15 active torsions:
REMARK  status: ('A' for Active; 'I' for Inactive)
REMARK    1  A    between atoms: C_1  and  C_2
REMARK    2  A    between atoms: C_2  and  C_3
REMARK    3  A    between atoms: C_2  and  C_4
REMARK    4  A    between atoms: C_2  and  O_5
REMARK    5  A    between atoms: O_5  and  C_6
REMARK    6  A    between atoms: N_8  and  C_9
REMARK    7  A    between atoms: C_12  and  N_13
REMARK    8  A    between atoms: N_13  and  C_14
REMARK    9  A    between atoms: C_14  and  C_15
REMARK   10  A    between atoms: C_15  and  C_16
REMARK   11  A    between atoms: C_16  and  N_17
REMARK   12  A    between atoms: N_17  and  C_18
REMARK   13  A    between atoms: N_17  and  C_25
REMARK   14  A    between atoms: C_18  and  C_19
REMARK   15  A    between atoms: C_25  and  C_26
REMARK                            x       y       z     vdW  Elec       q    Type
REMARK                         _______ _______ _______ _____ _____    ______ ____
ROOT
ATOM      1  C   UNL     1       7.619   9.200  17.590  0.00  0.00    +0.000 C 
ENDROOT
BRANCH   1   2
ATOM      2  N   UNL     1       7.733   7.774  17.221  0.00  0.00    +0.000 NA
ATOM      3  H   UNL     1       7.489   7.648  16.240  0.00  0.00    +0.000 HD
BRANCH   2   7
ATOM      4  C   UNL     1       5.824   4.446  16.796  0.00  0.00    +0.000 C 
ATOM      5  C   UNL     1       5.221   5.823  16.502  0.00  0.00    +0.000 C 
ATOM      6  C   UNL     1       5.473   6.795  17.645  0.00  0.00    +0.000 C 
ATOM      7  C   UNL     1       6.946   6.873  18.080  0.00  0.00    +0.000 C 
ATOM      8  C   UNL     1       7.638   5.508  18.190  0.00  0.00    +0.000 C 
ATOM      9  C   UNL     1       7.328   4.566  17.041  0.00  0.00    +0.000 C 
BRANCH   4  12
ATOM     10  C   UNL     1       3.844   3.380  17.784  0.00  0.00    +0.000 C 
ATOM     11  O   UNL     1       3.154   3.557  16.811  0.00  0.00    +0.000 OA
ATOM     12  N   UNL     1       5.143   3.804  17.895  0.00  0.00    +0.000 N 
ATOM     13  H   UNL     1       5.573   3.667  18.806  0.00  0.00    +0.000 HD
BRANCH  10  14
ATOM     14  O   UNL     1       3.482   2.674  18.892  0.00  0.00    +0.000 OA
BRANCH  14  16
ATOM     15  C   UNL     1       1.103   2.680  19.263  0.00  0.00    +0.000 C 
ATOM     16  C   UNL     1       2.445   3.257  19.732  0.00  0.00    +0.000 C 
ATOM     17  C   UNL     1       2.400   4.791  19.761  0.00  0.00    +0.000 C 
ATOM     18  C   UNL     1       2.727   2.766  21.161  0.00  0.00    +0.000 C 
ENDBRANCH  14  16
ENDBRANCH  10  14
ENDBRANCH   4  12
ENDBRANCH   2   7
ENDBRANCH   1   2
BRANCH   1  19
ATOM     19  C   UNL     1       8.717   9.578  18.578  0.00  0.00    +0.000 C 
BRANCH  19  20
ATOM     20  C   UNL     1       9.668  10.689  18.150  0.00  0.00    +0.000 C 
BRANCH  20  21
ATOM     21  N   UNL     1       9.491  11.875  19.042  0.00  0.00    +0.000 NA
BRANCH  21  22
ATOM     22  C   UNL     1      10.007  11.543  20.389  0.00  0.00    +0.000 C 
BRANCH  22  23
ATOM     23  C   UNL     1       9.409  12.237  21.590  0.00  0.00    +0.000 A 
ATOM     24  C   UNL     1       9.679  13.587  21.857  0.00  0.00    +0.000 A 
ATOM     25  C   UNL     1       8.904  14.287  22.783  0.00  0.00    +0.000 A 
ATOM     26  C   UNL     1       7.865  13.643  23.457  0.00  0.00    +0.000 A 
ATOM     27  C   UNL     1       7.622  12.291  23.233  0.00  0.00    +0.000 A 
ATOM     28  C   UNL     1       8.391  11.591  22.305  0.00  0.00    +0.000 A 
ENDBRANCH  22  23
ENDBRANCH  21  22
BRANCH  21  29
ATOM     29  C   UNL     1      10.201  13.044  18.494  0.00  0.00    +0.000 C 
BRANCH  29  30
ATOM     30  C   UNL     1       9.371  14.312  18.397  0.00  0.00    +0.000 A 
ATOM     31  C   UNL     1       8.027  14.341  18.802  0.00  0.00    +0.000 A 
ATOM     32  C   UNL     1       7.306  15.539  18.782  0.00  0.00    +0.000 A 
ATOM     33  C   UNL     1       7.917  16.716  18.350  0.00  0.00    +0.000 A 
ATOM     34  C   UNL     1       9.241  16.694  17.919  0.00  0.00    +0.000 A 
ATOM     35  C   UNL     1       9.962  15.499  17.939  0.00  0.00    +0.000 A 
ENDBRANCH  29  30
ENDBRANCH  21  29
ENDBRANCH  20  21
ENDBRANCH  19  20
ENDBRANCH   1  19
TORSDOF 12
ENDMDL
MODEL 3
REMARK VINA RESULT:      -7.4      0.749      1.432
REMARK  Name = 
REMARK  15 active torsions:
REMARK  status: ('A' for Active; 'I' for Inactive)
REMARK    1  A    between atoms: C_1  and  C_2
REMARK    2  A    between atoms: C_2  and  C_3
REMARK    3  A    between atoms: C_2  and  C_4
REMARK    4  A    between atoms: C_2  and  O_5
REMARK    5  A    between atoms: O_5  and  C_6
REMARK    6  A    between atoms: N_8  and  C_9
REMARK    7  A    between atoms: C_12  and  N_13
REMARK    8  A    between atoms: N_13  and  C_14
REMARK    9  A    between atoms: C_14  and  C_15
REMARK   10  A    between atoms: C_15  and  C_16
REMARK   11  A    between atoms: C_16  and  N_17
REMARK   12  A    between atoms: N_17  and  C_18
REMARK   13  A    between atoms: N_17  and  C_25
REMARK   14  A    between atoms: C_18  and  C_19
REMARK   15  A    between atoms: C_25  and  C_26
REMARK                            x       y       z     vdW  Elec       q    Type
REMARK                         _______ _______ _______ _____ _____    ______ ____
ROOT
ATOM      1  C   UNL     1       1.628  10.225  18.271  0.00  0.00    +0.000 C 
ENDROOT
BRANCH   1   2
ATOM      2  N   UNL     1       0.195  10.356  17.939  0.00  0.00    +0.000 NA
ATOM      3  H   UNL     1       0.041  11.198  17.388  0.00  0.00    +0.000 HD
BRANCH   2   7
ATOM      4  C   UNL     1      -2.067  12.855  19.817  0.00  0.00    +0.000 C 
ATOM      5  C   UNL     1      -0.567  12.694  20.079  0.00  0.00    +0.000 C 
ATOM      6  C   UNL     1      -0.188  11.230  20.248  0.00  0.00    +0.000 C 
ATOM      7  C   UNL     1      -0.693  10.324  19.113  0.00  0.00    +0.000 C 
ATOM      8  C   UNL     1      -2.142  10.601  18.690  0.00  0.00    +0.000 C 
ATOM      9  C   UNL     1      -2.475  12.076  18.567  0.00  0.00    +0.000 C 
BRANCH   4  12
ATOM     10  C   UNL     1      -4.090  12.993  21.204  0.00  0.00    +0.000 C 
ATOM     11  O   UNL     1      -4.610  13.837  20.518  0.00  0.00    +0.000 OA
ATOM     12  N   UNL     1      -2.842  12.474  20.974  0.00  0.00    +0.000 N 
ATOM     13  H   UNL     1      -2.494  11.837  21.685  0.00  0.00    +0.000 HD
BRANCH  10  14
ATOM     14  O   UNL     1      -4.673  12.367  22.264  0.00  0.00    +0.000 OA
BRANCH  14  16
ATOM     15  C   UNL     1      -3.768  14.283  23.407  0.00  0.00    +0.000 C 
ATOM     16  C   UNL     1      -4.771  13.126  23.503  0.00  0.00    +0.000 C 
ATOM     17  C   UNL     1      -4.555  12.322  24.793  0.00  0.00    +0.000 C 
ATOM     18  C   UNL     1      -6.195  13.702  23.540  0.00  0.00    +0.000 C 
ENDBRANCH  14  16
ENDBRANCH  10  14
ENDBRANCH   4  12
ENDBRANCH   2   7
ENDBRANCH   1   2
BRANCH   1  19
ATOM     19  C   UNL     1       2.152   8.866  17.820  0.00  0.00    +0.000 C 
BRANCH  19  20
ATOM     20  C   UNL     1       2.344   7.813  18.905  0.00  0.00    +0.000 C 
BRANCH  20  21
ATOM     21  N   UNL     1       3.066   6.633  18.339  0.00  0.00    +0.000 NA
BRANCH  21  22
ATOM     22  C   UNL     1       2.075   5.691  17.773  0.00  0.00    +0.000 C 
BRANCH  22  23
ATOM     23  C   UNL     1       2.214   4.217  18.078  0.00  0.00    +0.000 A 
ATOM     24  C   UNL     1       3.139   3.419  17.390  0.00  0.00    +0.000 A 
ATOM     25  C   UNL     1       3.464   2.149  17.872  0.00  0.00    +0.000 A 
ATOM     26  C   UNL     1       2.858   1.664  19.032  0.00  0.00    +0.000 A 
ATOM     27  C   UNL     1       1.903   2.432  19.693  0.00  0.00    +0.000 A 
ATOM     28  C   UNL     1       1.581   3.701  19.218  0.00  0.00    +0.000 A 
ENDBRANCH  22  23
ENDBRANCH  21  22
BRANCH  21  29
ATOM     29  C   UNL     1       4.018   7.061  17.299  0.00  0.00    +0.000 C 
BRANCH  29  30
ATOM     30  C   UNL     1       5.256   6.191  17.166  0.00  0.00    +0.000 A 
ATOM     31  C   UNL     1       6.001   5.799  18.289  0.00  0.00    +0.000 A 
ATOM     32  C   UNL     1       7.088   4.931  18.151  0.00  0.00    +0.000 A 
ATOM     33  C   UNL     1       7.446   4.452  16.891  0.00  0.00    +0.000 A 
ATOM     34  C   UNL     1       6.732   4.857  15.766  0.00  0.00    +0.000 A 
ATOM     35  C   UNL     1       5.646   5.723  15.901  0.00  0.00    +0.000 A 
ENDBRANCH  29  30
ENDBRANCH  21  29
ENDBRANCH  20  21
ENDBRANCH  19  20
ENDBRANCH   1  19
TORSDOF 12
ENDMDL
MODEL 4
REMARK VINA RESULT:      -7.3      1.320      1.868
REMARK  Name = 
REMARK  15 active torsions:
REMARK  status: ('A' for Active; 'I' for Inactive)
REMARK    1  A    between atoms: C_1  and  C_2
REMARK    2  A    between atoms: C_2  and  C_3
REMARK    3  A    between atoms: C_2  and  C_4
REMARK    4  A    between atoms: C_2  and  O_5
REMARK    5  A    between atoms: O_5  and  C_6
REMARK    6  A    between atoms: N_8  and  C_9
REMARK    7  A    between atoms: C_12  and  N_13
REMARK    8  A    between atoms: N_13  and  C_14
REMARK    9  A    between atoms: C_14  and  C_15
REMARK   10  A    between atoms: C_15  and  C_16
REMARK   11  A    between atoms: C_16  and  N_17
REMARK   12  A    between atoms: N_17  and  C_18
REMARK   13  A    between atoms: N_17  and  C_25
REMARK   14  A    between atoms: C_18  and  C_19
REMARK   15  A    between atoms: C_25  and  C_26
REMARK                            x       y       z     vdW  Elec       q    Type
REMARK                         _______ _______ _______ _____ _____    ______ ____
ROOT
ATOM      1  C   UNL     1       1.018   9.797  18.015  0.00  0.00    +0.000 C 
ENDROOT
BRANCH   1   2
ATOM      2  N   UNL     1       0.921  10.360  19.378  0.00  0.00    +0.000 NA
ATOM      3  H   UNL     1       1.528   9.843  20.012  0.00  0.00    +0.000 HD
BRANCH   2   7
ATOM      4  C   UNL     1      -0.843  11.831  22.479  0.00  0.00    +0.000 C 
ATOM      5  C   UNL     1      -0.179  10.452  22.445  0.00  0.00    +0.000 C 
ATOM      6  C   UNL     1      -0.612   9.658  21.221  0.00  0.00    +0.000 C 
ATOM      7  C   UNL     1      -0.455  10.424  19.898  0.00  0.00    +0.000 C 
ATOM      8  C   UNL     1      -0.931  11.881  19.959  0.00  0.00    +0.000 C 
ATOM      9  C   UNL     1      -0.498  12.617  21.214  0.00  0.00    +0.000 C 
BRANCH   4  12
ATOM     10  C   UNL     1      -2.970  12.668  23.377  0.00  0.00    +0.000 C 
ATOM     11  O   UNL     1      -2.467  13.618  23.923  0.00  0.00    +0.000 OA
ATOM     12  N   UNL     1      -2.268  11.720  22.679  0.00  0.00    +0.000 N 
ATOM     13  H   UNL     1      -2.810  10.925  22.350  0.00  0.00    +0.000 HD
BRANCH  10  14
ATOM     14  O   UNL     1      -4.308  12.419  23.297  0.00  0.00    +0.000 OA
BRANCH  14  16
ATOM     15  C   UNL     1      -4.409  13.733  21.282  0.00  0.00    +0.000 C 
ATOM     16  C   UNL     1      -5.119  13.408  22.602  0.00  0.00    +0.000 C 
ATOM     17  C   UNL     1      -5.419  14.691  23.390  0.00  0.00    +0.000 C 
ATOM     18  C   UNL     1      -6.458  12.721  22.292  0.00  0.00    +0.000 C 
ENDBRANCH  14  16
ENDBRANCH  10  14
ENDBRANCH   4  12
ENDBRANCH   2   7
ENDBRANCH   1   2
BRANCH   1  19
ATOM     19  C   UNL     1       2.189   8.824  17.929  0.00  0.00    +0.000 C 
BRANCH  19  20
ATOM     20  C   UNL     1       2.352   7.846  19.087  0.00  0.00    +0.000 C 
BRANCH  20  21
ATOM     21  N   UNL     1       3.103   6.640  18.624  0.00  0.00    +0.000 NA
BRANCH  21  22
ATOM     22  C   UNL     1       2.134   5.582  18.261  0.00  0.00    +0.000 C 
BRANCH  22  23
ATOM     23  C   UNL     1       1.833   4.494  19.265  0.00  0.00    +0.000 A 
ATOM     24  C   UNL     1       1.495   3.198  18.850  0.00  0.00    +0.000 A 
ATOM     25  C   UNL     1       1.507   2.143  19.766  0.00  0.00    +0.000 A 
ATOM     26  C   UNL     1       1.841   2.379  21.100  0.00  0.00    +0.000 A 
ATOM     27  C   UNL     1       2.129   3.671  21.529  0.00  0.00    +0.000 A 
ATOM     28  C   UNL     1       2.124   4.724  20.617  0.00  0.00    +0.000 A 
ENDBRANCH  22  23
ENDBRANCH  21  22
BRANCH  21  29
ATOM     29  C   UNL     1       3.955   6.974  17.470  0.00  0.00    +0.000 C 
BRANCH  29  30
ATOM     30  C   UNL     1       5.162   6.071  17.281  0.00  0.00    +0.000 A 
ATOM     31  C   UNL     1       5.635   5.737  16.002  0.00  0.00    +0.000 A 
ATOM     32  C   UNL     1       6.796   4.973  15.852  0.00  0.00    +0.000 A 
ATOM     33  C   UNL     1       7.491   4.529  16.976  0.00  0.00    +0.000 A 
ATOM     34  C   UNL     1       7.016   4.830  18.250  0.00  0.00    +0.000 A 
ATOM     35  C   UNL     1       5.858   5.593  18.402  0.00  0.00    +0.000 A 
ENDBRANCH  29  30
ENDBRANCH  21  29
ENDBRANCH  20  21
ENDBRANCH  19  20
ENDBRANCH   1  19
TORSDOF 12
ENDMDL
MODEL 5
REMARK VINA RESULT:      -7.3      1.329      4.092
REMARK  Name = 
REMARK  15 active torsions:
REMARK  status: ('A' for Active; 'I' for Inactive)
REMARK    1  A    between atoms: C_1  and  C_2
REMARK    2  A    between atoms: C_2  and  C_3
REMARK    3  A    between atoms: C_2  and  C_4
REMARK    4  A    between atoms: C_2  and  O_5
REMARK    5  A    between atoms: O_5  and  C_6
REMARK    6  A    between atoms: N_8  and  C_9
REMARK    7  A    between atoms: C_12  and  N_13
REMARK    8  A    between atoms: N_13  and  C_14
REMARK    9  A    between atoms: C_14  and  C_15
REMARK   10  A    between atoms: C_15  and  C_16
REMARK   11  A    between atoms: C_16  and  N_17
REMARK   12  A    between atoms: N_17  and  C_18
REMARK   13  A    between atoms: N_17  and  C_25
REMARK   14  A    between atoms: C_18  and  C_19
REMARK   15  A    between atoms: C_25  and  C_26
REMARK                            x       y       z     vdW  Elec       q    Type
REMARK                         _______ _______ _______ _____ _____    ______ ____
ROOT
ATOM      1  C   UNL     1       1.396   9.789  17.908  0.00  0.00    +0.000 C 
ENDROOT
BRANCH   1   2
ATOM      2  N   UNL     1       1.098  10.613  19.097  0.00  0.00    +0.000 NA
ATOM      3  H   UNL     1       1.778  10.424  19.831  0.00  0.00    +0.000 HD
BRANCH   2   7
ATOM      4  C   UNL     1      -1.401  12.724  21.145  0.00  0.00    +0.000 C 
ATOM      5  C   UNL     1      -0.331  11.822  21.766  0.00  0.00    +0.000 C 
ATOM      6  C   UNL     1      -0.337  10.438  21.135  0.00  0.00    +0.000 C 
ATOM      7  C   UNL     1      -0.278  10.456  19.599  0.00  0.00    +0.000 C 
ATOM      8  C   UNL     1      -1.200  11.498  18.950  0.00  0.00    +0.000 C 
ATOM      9  C   UNL     1      -1.179  12.851  19.638  0.00  0.00    +0.000 C 
BRANCH   4  12
ATOM     10  C   UNL     1      -3.566  12.967  22.279  0.00  0.00    +0.000 C 
ATOM     11  O   UNL     1      -3.257  13.989  22.840  0.00  0.00    +0.000 OA
ATOM     12  N   UNL     1      -2.727  12.253  21.462  0.00  0.00    +0.000 N 
ATOM     13  H   UNL     1      -3.091  11.363  21.131  0.00  0.00    +0.000 HD
BRANCH  10  14
ATOM     14  O   UNL     1      -4.803  12.397  22.300  0.00  0.00    +0.000 OA
BRANCH  14  16
ATOM     15  C   UNL     1      -6.641  11.838  20.849  0.00  0.00    +0.000 C 
ATOM     16  C   UNL     1      -5.814  12.989  21.436  0.00  0.00    +0.000 C 
ATOM     17  C   UNL     1      -5.282  13.903  20.322  0.00  0.00    +0.000 C 
ATOM     18  C   UNL     1      -6.715  13.835  22.350  0.00  0.00    +0.000 C 
ENDBRANCH  14  16
ENDBRANCH  10  14
ENDBRANCH   4  12
ENDBRANCH   2   7
ENDBRANCH   1   2
BRANCH   1  19
ATOM     19  C   UNL     1       1.872   8.404  18.332  0.00  0.00    +0.000 C 
BRANCH  19  20
ATOM     20  C   UNL     1       3.185   7.918  17.729  0.00  0.00    +0.000 C 
BRANCH  20  21
ATOM     21  N   UNL     1       3.435   6.503  18.141  0.00  0.00    +0.000 NA
BRANCH  21  22
ATOM     22  C   UNL     1       4.895   6.264  18.172  0.00  0.00    +0.000 C 
BRANCH  22  23
ATOM     23  C   UNL     1       5.517   5.412  17.090  0.00  0.00    +0.000 A 
ATOM     24  C   UNL     1       4.737   4.544  16.313  0.00  0.00    +0.000 A 
ATOM     25  C   UNL     1       5.260   3.990  15.143  0.00  0.00    +0.000 A 
ATOM     26  C   UNL     1       6.565   4.288  14.749  0.00  0.00    +0.000 A 
ATOM     27  C   UNL     1       7.361   5.111  15.541  0.00  0.00    +0.000 A 
ATOM     28  C   UNL     1       6.841   5.669  16.707  0.00  0.00    +0.000 A 
ENDBRANCH  22  23
ENDBRANCH  21  22
BRANCH  21  29
ATOM     29  C   UNL     1       2.843   6.239  19.464  0.00  0.00    +0.000 C 
BRANCH  29  30
ATOM     30  C   UNL     1       2.202   4.870  19.618  0.00  0.00    +0.000 A 
ATOM     31  C   UNL     1       2.008   4.290  20.881  0.00  0.00    +0.000 A 
ATOM     32  C   UNL     1       1.341   3.067  21.005  0.00  0.00    +0.000 A 
ATOM     33  C   UNL     1       0.869   2.409  19.870  0.00  0.00    +0.000 A 
ATOM     34  C   UNL     1       1.081   2.961  18.609  0.00  0.00    +0.000 A 
ATOM     35  C   UNL     1       1.746   4.182  18.483  0.00  0.00    +0.000 A 
ENDBRANCH  29  30
ENDBRANCH  21  29
ENDBRANCH  20  21
ENDBRANCH  19  20
ENDBRANCH   1  19
TORSDOF 12
ENDMDL
MODEL 6
REMARK VINA RESULT:      -7.3      7.197     11.069
REMARK  Name = 
REMARK  15 active torsions:
REMARK  status: ('A' for Active; 'I' for Inactive)
REMARK    1  A    between atoms: C_1  and  C_2
REMARK    2  A    between atoms: C_2  and  C_3
REMARK    3  A    between atoms: C_2  and  C_4
REMARK    4  A    between atoms: C_2  and  O_5
REMARK    5  A    between atoms: O_5  and  C_6
REMARK    6  A    between atoms: N_8  and  C_9
REMARK    7  A    between atoms: C_12  and  N_13
REMARK    8  A    between atoms: N_13  and  C_14
REMARK    9  A    between atoms: C_14  and  C_15
REMARK   10  A    between atoms: C_15  and  C_16
REMARK   11  A    between atoms: C_16  and  N_17
REMARK   12  A    between atoms: N_17  and  C_18
REMARK   13  A    between atoms: N_17  and  C_25
REMARK   14  A    between atoms: C_18  and  C_19
REMARK   15  A    between atoms: C_25  and  C_26
REMARK                            x       y       z     vdW  Elec       q    Type
REMARK                         _______ _______ _______ _____ _____    ______ ____
ROOT
ATOM      1  C   UNL     1       7.839   9.205  17.459  0.00  0.00    +0.000 C 
ENDROOT
BRANCH   1   2
ATOM      2  N   UNL     1       7.772   7.763  17.143  0.00  0.00    +0.000 NA
ATOM      3  H   UNL     1       7.489   7.633  16.173  0.00  0.00    +0.000 HD
BRANCH   2   7
ATOM      4  C   UNL     1       5.857   4.414  17.037  0.00  0.00    +0.000 C 
ATOM      5  C   UNL     1       5.299   5.737  16.505  0.00  0.00    +0.000 C 
ATOM      6  C   UNL     1       5.474   6.860  17.518  0.00  0.00    +0.000 C 
ATOM      7  C   UNL     1       6.908   6.994  18.054  0.00  0.00    +0.000 C 
ATOM      8  C   UNL     1       7.570   5.657  18.409  0.00  0.00    +0.000 C 
ATOM      9  C   UNL     1       7.339   4.564  17.381  0.00  0.00    +0.000 C 
BRANCH   4  12
ATOM     10  C   UNL     1       3.873   3.316  17.979  0.00  0.00    +0.000 C 
ATOM     11  O   UNL     1       3.333   3.178  16.910  0.00  0.00    +0.000 OA
ATOM     12  N   UNL     1       5.084   3.935  18.157  0.00  0.00    +0.000 N 
ATOM     13  H   UNL     1       5.374   4.061  19.122  0.00  0.00    +0.000 HD
BRANCH  10  14
ATOM     14  O   UNL     1       3.417   2.822  19.164  0.00  0.00    +0.000 OA
BRANCH  14  16
ATOM     15  C   UNL     1       1.872   4.668  19.225  0.00  0.00    +0.000 C 
ATOM     16  C   UNL     1       2.058   3.179  19.545  0.00  0.00    +0.000 C 
ATOM     17  C   UNL     1       1.677   2.881  21.002  0.00  0.00    +0.000 C 
ATOM     18  C   UNL     1       1.130   2.355  18.638  0.00  0.00    +0.000 C 
ENDBRANCH  14  16
ENDBRANCH  10  14
ENDBRANCH   4  12
ENDBRANCH   2   7
ENDBRANCH   1   2
BRANCH   1  19
ATOM     19  C   UNL     1       8.704   9.435  18.693  0.00  0.00    +0.000 C 
BRANCH  19  20
ATOM     20  C   UNL     1       9.839  10.443  18.554  0.00  0.00    +0.000 C 
BRANCH  20  21
ATOM     21  N   UNL     1       9.365  11.796  18.976  0.00  0.00    +0.000 NA
BRANCH  21  22
ATOM     22  C   UNL     1      10.333  12.363  19.942  0.00  0.00    +0.000 C 
BRANCH  22  23
ATOM     23  C   UNL     1       9.815  12.944  21.237  0.00  0.00    +0.000 A 
ATOM     24  C   UNL     1      10.062  14.280  21.582  0.00  0.00    +0.000 A 
ATOM     25  C   UNL     1       9.344  14.880  22.619  0.00  0.00    +0.000 A 
ATOM     26  C   UNL     1       8.388  14.148  23.324  0.00  0.00    +0.000 A 
ATOM     27  C   UNL     1       8.172  12.807  23.018  0.00  0.00    +0.000 A 
ATOM     28  C   UNL     1       8.882  12.207  21.981  0.00  0.00    +0.000 A 
ENDBRANCH  22  23
ENDBRANCH  21  22
BRANCH  21  29
ATOM     29  C   UNL     1       9.227  12.682  17.807  0.00  0.00    +0.000 C 
BRANCH  29  30
ATOM     30  C   UNL     1       8.913  14.132  18.135  0.00  0.00    +0.000 A 
ATOM     31  C   UNL     1       9.826  15.161  17.854  0.00  0.00    +0.000 A 
ATOM     32  C   UNL     1       9.483  16.496  18.087  0.00  0.00    +0.000 A 
ATOM     33  C   UNL     1       8.231  16.816  18.609  0.00  0.00    +0.000 A 
ATOM     34  C   UNL     1       7.328  15.802  18.918  0.00  0.00    +0.000 A 
ATOM     35  C   UNL     1       7.667  14.468  18.686  0.00  0.00    +0.000 A 
ENDBRANCH  29  30
ENDBRANCH  21  29
ENDBRANCH  20  21
ENDBRANCH  19  20
ENDBRANCH   1  19
TORSDOF 12
ENDMDL
MODEL 7
REMARK VINA RESULT:      -7.2      1.035      1.175
REMARK  Name = 
REMARK  15 active torsions:
REMARK  status: ('A' for Active; 'I' for Inactive)
REMARK    1  A    between atoms: C_1  and  C_2
REMARK    2  A    between atoms: C_2  and  C_3
REMARK    3  A    between atoms: C_2  and  C_4
REMARK    4  A    between atoms: C_2  and  O_5
REMARK    5  A    between atoms: O_5  and  C_6
REMARK    6  A    between atoms: N_8  and  C_9
REMARK    7  A    between atoms: C_12  and  N_13
REMARK    8  A    between atoms: N_13  and  C_14
REMARK    9  A    between atoms: C_14  and  C_15
REMARK   10  A    between atoms: C_15  and  C_16
REMARK   11  A    between atoms: C_16  and  N_17
REMARK   12  A    between atoms: N_17  and  C_18
REMARK   13  A    between atoms: N_17  and  C_25
REMARK   14  A    between atoms: C_18  and  C_19
REMARK   15  A    between atoms: C_25  and  C_26
REMARK                            x       y       z     vdW  Elec       q    Type
REMARK                         _______ _______ _______ _____ _____    ______ ____
ROOT
ATOM      1  C   UNL     1       2.161   9.790  18.145  0.00  0.00    +0.000 C 
ENDROOT
BRANCH   1   2
ATOM      2  N   UNL     1       0.802  10.276  17.831  0.00  0.00    +0.000 NA
ATOM      3  H   UNL     1       0.853  11.198  17.400  0.00  0.00    +0.000 HD
BRANCH   2   7
ATOM      4  C   UNL     1      -1.824  12.682  19.320  0.00  0.00    +0.000 C 
ATOM      5  C   UNL     1      -0.324  12.760  19.618  0.00  0.00    +0.000 C 
ATOM      6  C   UNL     1       0.240  11.397  19.992  0.00  0.00    +0.000 C 
ATOM      7  C   UNL     1      -0.109  10.285  18.989  0.00  0.00    +0.000 C 
ATOM      8  C   UNL     1      -1.568  10.305  18.515  0.00  0.00    +0.000 C 
ATOM      9  C   UNL     1      -2.088  11.692  18.185  0.00  0.00    +0.000 C 
BRANCH   4  12
ATOM     10  C   UNL     1      -3.875  12.766  20.667  0.00  0.00    +0.000 C 
ATOM     11  O   UNL     1      -4.469  13.461  19.880  0.00  0.00    +0.000 OA
ATOM     12  N   UNL     1      -2.576  12.360  20.509  0.00  0.00    +0.000 N 
ATOM     13  H   UNL     1      -2.175  11.854  21.295  0.00  0.00    +0.000 HD
BRANCH  10  14
ATOM     14  O   UNL     1      -4.410  12.212  21.792  0.00  0.00    +0.000 OA
BRANCH  14  16
ATOM     15  C   UNL     1      -5.885  13.064  23.493  0.00  0.00    +0.000 C 
ATOM     16  C   UNL     1      -4.437  13.046  22.985  0.00  0.00    +0.000 C 
ATOM     17  C   UNL     1      -3.903  14.475  22.808  0.00  0.00    +0.000 C 
ATOM     18  C   UNL     1      -3.554  12.337  24.023  0.00  0.00    +0.000 C 
ENDBRANCH  14  16
ENDBRANCH  10  14
ENDBRANCH   4  12
ENDBRANCH   2   7
ENDBRANCH   1   2
BRANCH   1  19
ATOM     19  C   UNL     1       2.408   8.445  17.473  0.00  0.00    +0.000 C 
BRANCH  19  20
ATOM     20  C   UNL     1       1.978   7.204  18.247  0.00  0.00    +0.000 C 
BRANCH  20  21
ATOM     21  N   UNL     1       3.079   6.194  18.232  0.00  0.00    +0.000 NA
BRANCH  21  22
ATOM     22  C   UNL     1       2.499   4.857  17.976  0.00  0.00    +0.000 C 
BRANCH  22  23
ATOM     23  C   UNL     1       2.379   3.883  19.125  0.00  0.00    +0.000 A 
ATOM     24  C   UNL     1       3.510   3.258  19.667  0.00  0.00    +0.000 A 
ATOM     25  C   UNL     1       3.426   2.599  20.896  0.00  0.00    +0.000 A 
ATOM     26  C   UNL     1       2.212   2.548  21.582  0.00  0.00    +0.000 A 
ATOM     27  C   UNL     1       1.073   3.125  21.026  0.00  0.00    +0.000 A 
ATOM     28  C   UNL     1       1.155   3.787  19.803  0.00  0.00    +0.000 A 
ENDBRANCH  22  23
ENDBRANCH  21  22
BRANCH  21  29
ATOM     29  C   UNL     1       4.072   6.529  17.196  0.00  0.00    +0.000 C 
BRANCH  29  30
ATOM     30  C   UNL     1       5.516   6.527  17.668  0.00  0.00    +0.000 A 
ATOM     31  C   UNL     1       6.425   7.512  17.250  0.00  0.00    +0.000 A 
ATOM     32  C   UNL     1       7.726   7.538  17.760  0.00  0.00    +0.000 A 
ATOM     33  C   UNL     1       8.134   6.579  18.686  0.00  0.00    +0.000 A 
ATOM     34  C   UNL     1       7.250   5.580  19.087  0.00  0.00    +0.000 A 
ATOM     35  C   UNL     1       5.951   5.552  18.579  0.00  0.00    +0.000 A 
ENDBRANCH  29  30
ENDBRANCH  21  29
ENDBRANCH  20  21
ENDBRANCH  19  20
ENDBRANCH   1  19
TORSDOF 12
ENDMDL
MODEL 8
REMARK VINA RESULT:      -7.2      7.544      9.610
REMARK  Name = 
REMARK  15 active torsions:
REMARK  status: ('A' for Active; 'I' for Inactive)
REMARK    1  A    between atoms: C_1  and  C_2
REMARK    2  A    between atoms: C_2  and  C_3
REMARK    3  A    between atoms: C_2  and  C_4
REMARK    4  A    between atoms: C_2  and  O_5
REMARK    5  A    between atoms: O_5  and  C_6
REMARK    6  A    between atoms: N_8  and  C_9
REMARK    7  A    between atoms: C_12  and  N_13
REMARK    8  A    between atoms: N_13  and  C_14
REMARK    9  A    between atoms: C_14  and  C_15
REMARK   10  A    between atoms: C_15  and  C_16
REMARK   11  A    between atoms: C_16  and  N_17
REMARK   12  A    between atoms: N_17  and  C_18
REMARK   13  A    between atoms: N_17  and  C_25
REMARK   14  A    between atoms: C_18  and  C_19
REMARK   15  A    between atoms: C_25  and  C_26
REMARK                            x       y       z     vdW  Elec       q    Type
REMARK                         _______ _______ _______ _____ _____    ______ ____
ROOT
ATOM      1  C   UNL     1       7.689   9.080  17.885  0.00  0.00    +0.000 C 
ENDROOT
BRANCH   1   2
ATOM      2  N   UNL     1       8.961   9.508  18.504  0.00  0.00    +0.000 NA
ATOM      3  H   UNL     1       9.266   8.816  19.186  0.00  0.00    +0.000 HD
BRANCH   2   7
ATOM      4  C   UNL     1      11.225  12.632  18.589  0.00  0.00    +0.000 C 
ATOM      5  C   UNL     1      11.359  11.451  19.554  0.00  0.00    +0.000 C 
ATOM      6  C   UNL     1      10.013  11.065  20.150  0.00  0.00    +0.000 C 
ATOM      7  C   UNL     1       8.909  10.853  19.102  0.00  0.00    +0.000 C 
ATOM      8  C   UNL     1       8.878  11.921  18.001  0.00  0.00    +0.000 C 
ATOM      9  C   UNL     1      10.249  12.291  17.464  0.00  0.00    +0.000 C 
BRANCH   4  12
ATOM     10  C   UNL     1      11.104  15.079  18.769  0.00  0.00    +0.000 C 
ATOM     11  O   UNL     1      11.704  15.272  17.741  0.00  0.00    +0.000 OA
ATOM     12  N   UNL     1      10.848  13.837  19.290  0.00  0.00    +0.000 N 
ATOM     13  H   UNL     1      10.413  13.827  20.209  0.00  0.00    +0.000 HD
BRANCH  10  14
ATOM     14  O   UNL     1      10.520  16.042  19.537  0.00  0.00    +0.000 OA
BRANCH  14  16
ATOM     15  C   UNL     1       8.272  16.232  20.376  0.00  0.00    +0.000 C 
ATOM     16  C   UNL     1       9.178  16.460  19.159  0.00  0.00    +0.000 C 
ATOM     17  C   UNL     1       8.598  15.778  17.911  0.00  0.00    +0.000 C 
ATOM     18  C   UNL     1       9.263  17.968  18.876  0.00  0.00    +0.000 C 
ENDBRANCH  14  16
ENDBRANCH  10  14
ENDBRANCH   4  12
ENDBRANCH   2   7
ENDBRANCH   1   2
BRANCH   1  19
ATOM     19  C   UNL     1       7.837   7.687  17.284  0.00  0.00    +0.000 C 
BRANCH  19  20
ATOM     20  C   UNL     1       7.378   6.518  18.147  0.00  0.00    +0.000 C 
BRANCH  20  21
ATOM     21  N   UNL     1       6.929   5.393  17.273  0.00  0.00    +0.000 NA
BRANCH  21  22
ATOM     22  C   UNL     1       6.083   4.475  18.070  0.00  0.00    +0.000 C 
BRANCH  22  23
ATOM     23  C   UNL     1       4.582   4.554  17.920  0.00  0.00    +0.000 A 
ATOM     24  C   UNL     1       3.865   3.543  17.264  0.00  0.00    +0.000 A 
ATOM     25  C   UNL     1       2.475   3.478  17.385  0.00  0.00    +0.000 A 
ATOM     26  C   UNL     1       1.794   4.426  18.149  0.00  0.00    +0.000 A 
ATOM     27  C   UNL     1       2.494   5.461  18.763  0.00  0.00    +0.000 A 
ATOM     28  C   UNL     1       3.881   5.526  18.648  0.00  0.00    +0.000 A 
ENDBRANCH  22  23
ENDBRANCH  21  22
BRANCH  21  29
ATOM     29  C   UNL     1       6.177   5.908  16.115  0.00  0.00    +0.000 C 
BRANCH  29  30
ATOM     30  C   UNL     1       6.434   5.179  14.807  0.00  0.00    +0.000 A 
ATOM     31  C   UNL     1       5.545   4.208  14.322  0.00  0.00    +0.000 A 
ATOM     32  C   UNL     1       5.759   3.610  13.077  0.00  0.00    +0.000 A 
ATOM     33  C   UNL     1       6.865   3.970  12.308  0.00  0.00    +0.000 A 
ATOM     34  C   UNL     1       7.770   4.911  12.792  0.00  0.00    +0.000 A 
ATOM     35  C   UNL     1       7.558   5.510  14.035  0.00  0.00    +0.000 A 
ENDBRANCH  29  30
ENDBRANCH  21  29
ENDBRANCH  20  21
ENDBRANCH  19  20
ENDBRANCH   1  19
TORSDOF 12
ENDMDL
MODEL 9
REMARK VINA RESULT:      -7.2      1.274      2.025
REMARK  Name = 
REMARK  15 active torsions:
REMARK  status: ('A' for Active; 'I' for Inactive)
REMARK    1  A    between atoms: C_1  and  C_2
REMARK    2  A    between atoms: C_2  and  C_3
REMARK    3  A    between atoms: C_2  and  C_4
REMARK    4  A    between atoms: C_2  and  O_5
REMARK    5  A    between atoms: O_5  and  C_6
REMARK    6  A    between atoms: N_8  and  C_9
REMARK    7  A    between atoms: C_12  and  N_13
REMARK    8  A    between atoms: N_13  and  C_14
REMARK    9  A    between atoms: C_14  and  C_15
REMARK   10  A    between atoms: C_15  and  C_16
REMARK   11  A    between atoms: C_16  and  N_17
REMARK   12  A    between atoms: N_17  and  C_18
REMARK   13  A    between atoms: N_17  and  C_25
REMARK   14  A    between atoms: C_18  and  C_19
REMARK   15  A    between atoms: C_25  and  C_26
REMARK                            x       y       z     vdW  Elec       q    Type
REMARK                         _______ _______ _______ _____ _____    ______ ____
ROOT
ATOM      1  C   UNL     1       0.959   9.367  17.844  0.00  0.00    +0.000 C 
ENDROOT
BRANCH   1   2
ATOM      2  N   UNL     1       0.861  10.234  19.037  0.00  0.00    +0.000 NA
ATOM      3  H   UNL     1       1.563   9.962  19.723  0.00  0.00    +0.000 HD
BRANCH   2   7
ATOM      4  C   UNL     1      -0.854  12.057  21.974  0.00  0.00    +0.000 C 
ATOM      5  C   UNL     1      -0.063  10.754  22.119  0.00  0.00    +0.000 C 
ATOM      6  C   UNL     1      -0.486   9.728  21.078  0.00  0.00    +0.000 C 
ATOM      7  C   UNL     1      -0.482  10.267  19.639  0.00  0.00    +0.000 C 
ATOM      8  C   UNL     1      -1.093  11.667  19.494  0.00  0.00    +0.000 C 
ATOM      9  C   UNL     1      -0.662  12.642  20.575  0.00  0.00    +0.000 C 
BRANCH   4  12
ATOM     10  C   UNL     1      -2.899  12.665  23.192  0.00  0.00    +0.000 C 
ATOM     11  O   UNL     1      -2.367  13.545  23.823  0.00  0.00    +0.000 OA
ATOM     12  N   UNL     1      -2.248  11.858  22.294  0.00  0.00    +0.000 N 
ATOM     13  H   UNL     1      -2.801  11.100  21.905  0.00  0.00    +0.000 HD
BRANCH  10  14
ATOM     14  O   UNL     1      -4.230  12.376  23.207  0.00  0.00    +0.000 OA
BRANCH  14  16
ATOM     15  C   UNL     1      -6.519  12.658  22.515  0.00  0.00    +0.000 C 
ATOM     16  C   UNL     1      -5.076  13.127  22.289  0.00  0.00    +0.000 C 
ATOM     17  C   UNL     1      -4.695  13.027  20.805  0.00  0.00    +0.000 C 
ATOM     18  C   UNL     1      -4.958  14.600  22.709  0.00  0.00    +0.000 C 
ENDBRANCH  14  16
ENDBRANCH  10  14
ENDBRANCH   4  12
ENDBRANCH   2   7
ENDBRANCH   1   2
BRANCH   1  19
ATOM     19  C   UNL     1       2.289   8.622  17.842  0.00  0.00    +0.000 C 
BRANCH  19  20
ATOM     20  C   UNL     1       2.474   7.551  18.911  0.00  0.00    +0.000 C 
BRANCH  20  21
ATOM     21  N   UNL     1       3.536   6.591  18.483  0.00  0.00    +0.000 NA
BRANCH  21  22
ATOM     22  C   UNL     1       2.901   5.304  18.119  0.00  0.00    +0.000 C 
BRANCH  22  23
ATOM     23  C   UNL     1       2.145   4.540  19.181  0.00  0.00    +0.000 A 
ATOM     24  C   UNL     1       1.169   3.595  18.838  0.00  0.00    +0.000 A 
ATOM     25  C   UNL     1       0.693   2.698  19.796  0.00  0.00    +0.000 A 
ATOM     26  C   UNL     1       1.178   2.748  21.104  0.00  0.00    +0.000 A 
ATOM     27  C   UNL     1       2.112   3.716  21.464  0.00  0.00    +0.000 A 
ATOM     28  C   UNL     1       2.592   4.609  20.509  0.00  0.00    +0.000 A 
ENDBRANCH  22  23
ENDBRANCH  21  22
BRANCH  21  29
ATOM     29  C   UNL     1       4.290   7.133  17.338  0.00  0.00    +0.000 C 
BRANCH  29  30
ATOM     30  C   UNL     1       5.346   6.201  16.767  0.00  0.00    +0.000 A 
ATOM     31  C   UNL     1       6.364   5.667  17.571  0.00  0.00    +0.000 A 
ATOM     32  C   UNL     1       7.275   4.747  17.044  0.00  0.00    +0.000 A 
ATOM     33  C   UNL     1       7.183   4.359  15.708  0.00  0.00    +0.000 A 
ATOM     34  C   UNL     1       6.195   4.904  14.893  0.00  0.00    +0.000 A 
ATOM     35  C   UNL     1       5.283   5.822  15.418  0.00  0.00    +0.000 A 
ENDBRANCH  29  30
ENDBRANCH  21  29
ENDBRANCH  20  21
ENDBRANCH  19  20
ENDBRANCH   1  19
TORSDOF 12
ENDMDL
