MODEL 1
REMARK VINA RESULT:      -7.9      0.000      0.000
REMARK  Name = 
REMARK  2 active torsions:
REMARK  status: ('A' for Active; 'I' for Inactive)
REMARK    1  A    between atoms: C_6  and  N_7
REMARK    2  A    between atoms: N_13  and  C_14
REMARK                            x       y       z     vdW  Elec       q    Type
REMARK                         _______ _______ _______ _____ _____    ______ ____
ROOT
ATOM      1  O   UNL     1       6.848   5.383  20.124  0.00  0.00    +0.000 OA
ATOM      2  C   UNL     1       6.594   5.181  18.944  0.00  0.00    +0.000 C 
ATOM      3  C   UNL     1       7.635   5.120  17.822  0.00  0.00    +0.000 C 
ATOM      4  C   UNL     1       6.809   4.776  16.617  0.00  0.00    +0.000 A 
ATOM      5  C   UNL     1       7.221   4.574  15.308  0.00  0.00    +0.000 A 
ATOM      6  C   UNL     1       6.236   4.275  14.353  0.00  0.00    +0.000 A 
ATOM      7  C   UNL     1       4.873   4.207  14.711  0.00  0.00    +0.000 A 
ATOM      8  C   UNL     1       4.480   4.430  16.036  0.00  0.00    +0.000 A 
ATOM      9  C   UNL     1       5.462   4.684  16.981  0.00  0.00    +0.000 A 
ATOM     10  N   UNL     1       5.346   4.917  18.360  0.00  0.00    +0.000 N 
ENDROOT
BRANCH  10  11
ATOM     11  C   UNL     1       4.117   4.902  19.057  0.00  0.00    +0.000 A 
ATOM     12  C   UNL     1       3.712   3.753  19.768  0.00  0.00    +0.000 A 
ATOM     13 CL   UNL     1       4.723   2.356  19.934  0.00  0.00    +0.000 Cl
ATOM     14  C   UNL     1       2.495   3.732  20.464  0.00  0.00    +0.000 A 
ATOM     15  C   UNL     1       1.664   4.849  20.466  0.00  0.00    +0.000 A 
ATOM     16  C   UNL     1       2.040   5.987  19.756  0.00  0.00    +0.000 A 
ATOM     17  C   UNL     1       3.248   6.012  19.047  0.00  0.00    +0.000 A 
ATOM     18 CL   UNL     1       3.551   7.429  18.095  0.00  0.00    +0.000 Cl
ENDBRANCH  10  11
BRANCH   6  19
ATOM     19  N   UNL     1       6.624   4.033  12.956  0.00  0.00    +0.000 N 
ATOM     20  O   UNL     1       6.002   3.165  12.327  0.00  0.00    +0.000 OA
ATOM     21  O   UNL     1       7.550   4.713  12.489  0.00  0.00    +0.000 OA
ENDBRANCH   6  19
TORSDOF 2
ENDMDL
MODEL 2
REMARK VINA RESULT:      -7.9      0.196      2.122
REMARK  Name = 
REMARK  2 active torsions:
REMARK  status: ('A' for Active; 'I' for Inactive)
REMARK    1  A    between atoms: C_6  and  N_7
REMARK    2  A    between atoms: N_13  and  C_14
REMARK                            x       y       z     vdW  Elec       q    Type
REMARK                         _______ _______ _______ _____ _____    ______ ____
ROOT
ATOM      1  O   UNL     1       6.739   5.357  20.084  0.00  0.00    +0.000 OA
ATOM      2  C   UNL     1       6.509   5.147  18.901  0.00  0.00    +0.000 C 
ATOM      3  C   UNL     1       7.558   5.170  17.786  0.00  0.00    +0.000 C 
ATOM      4  C   UNL     1       6.767   4.776  16.572  0.00  0.00    +0.000 A 
ATOM      5  C   UNL     1       7.201   4.616  15.265  0.00  0.00    +0.000 A 
ATOM      6  C   UNL     1       6.246   4.253  14.301  0.00  0.00    +0.000 A 
ATOM      7  C   UNL     1       4.890   4.083  14.649  0.00  0.00    +0.000 A 
ATOM      8  C   UNL     1       4.473   4.267  15.973  0.00  0.00    +0.000 A 
ATOM      9  C   UNL     1       5.428   4.584  16.927  0.00  0.00    +0.000 A 
ATOM     10  N   UNL     1       5.286   4.797  18.306  0.00  0.00    +0.000 N 
ENDROOT
BRANCH  10  11
ATOM     11  C   UNL     1       4.058   4.688  18.994  0.00  0.00    +0.000 A 
ATOM     12  C   UNL     1       3.162   5.777  19.037  0.00  0.00    +0.000 A 
ATOM     13 CL   UNL     1       3.444   7.248  18.166  0.00  0.00    +0.000 Cl
ATOM     14  C   UNL     1       1.940   5.675  19.716  0.00  0.00    +0.000 A 
ATOM     15  C   UNL     1       1.589   4.492  20.362  0.00  0.00    +0.000 A 
ATOM     16  C   UNL     1       2.467   3.412  20.344  0.00  0.00    +0.000 A 
ATOM     17  C   UNL     1       3.696   3.510  19.679  0.00  0.00    +0.000 A 
ATOM     18 CL   UNL     1       4.764   2.152  19.834  0.00  0.00    +0.000 Cl
ENDBRANCH  10  11
BRANCH   6  19
ATOM     19  N   UNL     1       6.660   4.051  12.904  0.00  0.00    +0.000 N 
ATOM     20  O   UNL     1       7.577   4.761  12.467  0.00  0.00    +0.000 OA
ATOM     21  O   UNL     1       6.067   3.183  12.247  0.00  0.00    +0.000 OA
ENDBRANCH   6  19
TORSDOF 2
ENDMDL
MODEL 3
REMARK VINA RESULT:      -7.7      1.277      2.440
REMARK  Name = 
REMARK  2 active torsions:
REMARK  status: ('A' for Active; 'I' for Inactive)
REMARK    1  A    between atoms: C_6  and  N_7
REMARK    2  A    between atoms: N_13  and  C_14
REMARK                            x       y       z     vdW  Elec       q    Type
REMARK                         _______ _______ _______ _____ _____    ______ ____
ROOT
ATOM      1  O   UNL     1       5.951   4.504  20.049  0.00  0.00    +0.000 OA
ATOM      2  C   UNL     1       5.986   4.552  18.827  0.00  0.00    +0.000 C 
ATOM      3  C   UNL     1       7.226   4.905  18.000  0.00  0.00    +0.000 C 
ATOM      4  C   UNL     1       6.744   4.742  16.587  0.00  0.00    +0.000 A 
ATOM      5  C   UNL     1       7.445   4.915  15.403  0.00  0.00    +0.000 A 
ATOM      6  C   UNL     1       6.750   4.714  14.199  0.00  0.00    +0.000 A 
ATOM      7  C   UNL     1       5.382   4.372  14.197  0.00  0.00    +0.000 A 
ATOM      8  C   UNL     1       4.691   4.219  15.406  0.00  0.00    +0.000 A 
ATOM      9  C   UNL     1       5.394   4.378  16.591  0.00  0.00    +0.000 A 
ATOM     10  N   UNL     1       4.957   4.261  17.918  0.00  0.00    +0.000 N 
ENDROOT
BRANCH  10  11
ATOM     11  C   UNL     1       3.638   3.909  18.282  0.00  0.00    +0.000 A 
ATOM     12  C   UNL     1       2.678   4.909  18.545  0.00  0.00    +0.000 A 
ATOM     13 CL   UNL     1       3.006   6.596  18.326  0.00  0.00    +0.000 Cl
ATOM     14  C   UNL     1       1.366   4.568  18.903  0.00  0.00    +0.000 A 
ATOM     15  C   UNL     1       0.988   3.232  19.006  0.00  0.00    +0.000 A 
ATOM     16  C   UNL     1       1.926   2.231  18.766  0.00  0.00    +0.000 A 
ATOM     17  C   UNL     1       3.243   2.563  18.421  0.00  0.00    +0.000 A 
ATOM     18 CL   UNL     1       4.355   1.241  18.274  0.00  0.00    +0.000 Cl
ENDBRANCH  10  11
BRANCH   6  19
ATOM     19  N   UNL     1       7.454   4.865  12.917  0.00  0.00    +0.000 N 
ATOM     20  O   UNL     1       8.318   5.750  12.835  0.00  0.00    +0.000 OA
ATOM     21  O   UNL     1       7.142   4.100  11.993  0.00  0.00    +0.000 OA
ENDBRANCH   6  19
TORSDOF 2
ENDMDL
MODEL 4
REMARK VINA RESULT:      -7.7      1.285      1.490
REMARK  Name = 
REMARK  2 active torsions:
REMARK  status: ('A' for Active; 'I' for Inactive)
REMARK    1  A    between atoms: C_6  and  N_7
REMARK    2  A    between atoms: N_13  and  C_14
REMARK                            x       y       z     vdW  Elec       q    Type
REMARK                         _______ _______ _______ _____ _____    ______ ____
ROOT
ATOM      1  O   UNL     1       5.955   4.456  20.066  0.00  0.00    +0.000 OA
ATOM      2  C   UNL     1       5.987   4.513  18.844  0.00  0.00    +0.000 C 
ATOM      3  C   UNL     1       7.226   4.865  18.016  0.00  0.00    +0.000 C 
ATOM      4  C   UNL     1       6.740   4.714  16.604  0.00  0.00    +0.000 A 
ATOM      5  C   UNL     1       7.439   4.892  15.419  0.00  0.00    +0.000 A 
ATOM      6  C   UNL     1       6.739   4.703  14.216  0.00  0.00    +0.000 A 
ATOM      7  C   UNL     1       5.369   4.368  14.215  0.00  0.00    +0.000 A 
ATOM      8  C   UNL     1       4.681   4.210  15.425  0.00  0.00    +0.000 A 
ATOM      9  C   UNL     1       5.388   4.358  16.609  0.00  0.00    +0.000 A 
ATOM     10  N   UNL     1       4.954   4.233  17.937  0.00  0.00    +0.000 N 
ENDROOT
BRANCH  10  11
ATOM     11  C   UNL     1       3.634   3.885  18.302  0.00  0.00    +0.000 A 
ATOM     12  C   UNL     1       3.260   2.532  18.429  0.00  0.00    +0.000 A 
ATOM     13 CL   UNL     1       4.396   1.233  18.272  0.00  0.00    +0.000 Cl
ATOM     14  C   UNL     1       1.953   2.180  18.794  0.00  0.00    +0.000 A 
ATOM     15  C   UNL     1       0.999   3.164  19.036  0.00  0.00    +0.000 A 
ATOM     16  C   UNL     1       1.346   4.506  18.899  0.00  0.00    +0.000 A 
ATOM     17  C   UNL     1       2.646   4.866  18.523  0.00  0.00    +0.000 A 
ATOM     18 CL   UNL     1       2.928   6.556  18.256  0.00  0.00    +0.000 Cl
ENDBRANCH  10  11
BRANCH   6  19
ATOM     19  N   UNL     1       7.440   4.861  12.933  0.00  0.00    +0.000 N 
ATOM     20  O   UNL     1       8.289   5.760  12.847  0.00  0.00    +0.000 OA
ATOM     21  O   UNL     1       7.141   4.085  12.013  0.00  0.00    +0.000 OA
ENDBRANCH   6  19
TORSDOF 2
ENDMDL
MODEL 5
REMARK VINA RESULT:      -7.1      3.421      6.427
REMARK  Name = 
REMARK  2 active torsions:
REMARK  status: ('A' for Active; 'I' for Inactive)
REMARK    1  A    between atoms: C_6  and  N_7
REMARK    2  A    between atoms: N_13  and  C_14
REMARK                            x       y       z     vdW  Elec       q    Type
REMARK                         _______ _______ _______ _____ _____    ______ ____
ROOT
ATOM      1  O   UNL     1       4.142   2.620  20.135  0.00  0.00    +0.000 OA
ATOM      2  C   UNL     1       3.642   3.725  19.979  0.00  0.00    +0.000 C 
ATOM      3  C   UNL     1       2.570   4.337  20.886  0.00  0.00    +0.000 C 
ATOM      4  C   UNL     1       2.376   5.706  20.301  0.00  0.00    +0.000 A 
ATOM      5  C   UNL     1       1.531   6.722  20.722  0.00  0.00    +0.000 A 
ATOM      6  C   UNL     1       1.527   7.915  19.982  0.00  0.00    +0.000 A 
ATOM      7  C   UNL     1       2.336   8.064  18.836  0.00  0.00    +0.000 A 
ATOM      8  C   UNL     1       3.169   7.017  18.421  0.00  0.00    +0.000 A 
ATOM      9  C   UNL     1       3.199   5.858  19.180  0.00  0.00    +0.000 A 
ATOM     10  N   UNL     1       3.949   4.686  19.003  0.00  0.00    +0.000 N 
ENDROOT
BRANCH  10  11
ATOM     11  C   UNL     1       4.881   4.501  17.957  0.00  0.00    +0.000 A 
ATOM     12  C   UNL     1       4.492   3.876  16.754  0.00  0.00    +0.000 A 
ATOM     13 CL   UNL     1       2.854   3.412  16.434  0.00  0.00    +0.000 Cl
ATOM     14  C   UNL     1       5.410   3.692  15.712  0.00  0.00    +0.000 A 
ATOM     15  C   UNL     1       6.727   4.125  15.846  0.00  0.00    +0.000 A 
ATOM     16  C   UNL     1       7.133   4.730  17.033  0.00  0.00    +0.000 A 
ATOM     17  C   UNL     1       6.226   4.906  18.085  0.00  0.00    +0.000 A 
ATOM     18 CL   UNL     1       6.873   5.549  19.559  0.00  0.00    +0.000 Cl
ENDBRANCH  10  11
BRANCH   6  19
ATOM     19  N   UNL     1       0.663   9.029  20.401  0.00  0.00    +0.000 N 
ATOM     20  O   UNL     1       0.809  10.118  19.827  0.00  0.00    +0.000 OA
ATOM     21  O   UNL     1      -0.161   8.813  21.302  0.00  0.00    +0.000 OA
ENDBRANCH   6  19
TORSDOF 2
ENDMDL
MODEL 6
REMARK VINA RESULT:      -7.0      3.401      6.450
REMARK  Name = 
REMARK  2 active torsions:
REMARK  status: ('A' for Active; 'I' for Inactive)
REMARK    1  A    between atoms: C_6  and  N_7
REMARK    2  A    between atoms: N_13  and  C_14
REMARK                            x       y       z     vdW  Elec       q    Type
REMARK                         _______ _______ _______ _____ _____    ______ ____
ROOT
ATOM      1  O   UNL     1       4.171   2.447  20.036  0.00  0.00    +0.000 OA
ATOM      2  C   UNL     1       3.668   3.558  19.938  0.00  0.00    +0.000 C 
ATOM      3  C   UNL     1       2.604   4.123  20.884  0.00  0.00    +0.000 C 
ATOM      4  C   UNL     1       2.402   5.518  20.366  0.00  0.00    +0.000 A 
ATOM      5  C   UNL     1       1.559   6.510  20.845  0.00  0.00    +0.000 A 
ATOM      6  C   UNL     1       1.545   7.737  20.162  0.00  0.00    +0.000 A 
ATOM      7  C   UNL     1       2.342   7.942  19.017  0.00  0.00    +0.000 A 
ATOM      8  C   UNL     1       3.173   6.919  18.543  0.00  0.00    +0.000 A 
ATOM      9  C   UNL     1       3.213   5.724  19.246  0.00  0.00    +0.000 A 
ATOM     10  N   UNL     1       3.963   4.564  19.006  0.00  0.00    +0.000 N 
ENDROOT
BRANCH  10  11
ATOM     11  C   UNL     1       4.885   4.432  17.943  0.00  0.00    +0.000 A 
ATOM     12  C   UNL     1       6.201   4.922  18.072  0.00  0.00    +0.000 A 
ATOM     13 CL   UNL     1       6.802   5.596  19.551  0.00  0.00    +0.000 Cl
ATOM     14  C   UNL     1       7.121   4.792  17.023  0.00  0.00    +0.000 A 
ATOM     15  C   UNL     1       6.750   4.174  15.832  0.00  0.00    +0.000 A 
ATOM     16  C   UNL     1       5.451   3.698  15.680  0.00  0.00    +0.000 A 
ATOM     17  C   UNL     1       4.520   3.835  16.718  0.00  0.00    +0.000 A 
ATOM     18 CL   UNL     1       2.900   3.325  16.371  0.00  0.00    +0.000 Cl
ENDBRANCH  10  11
BRANCH   6  19
ATOM     19  N   UNL     1       0.684   8.828  20.642  0.00  0.00    +0.000 N 
ATOM     20  O   UNL     1      -0.147   8.562  21.523  0.00  0.00    +0.000 OA
ATOM     21  O   UNL     1       0.838   9.950  20.137  0.00  0.00    +0.000 OA
ENDBRANCH   6  19
TORSDOF 2
ENDMDL
MODEL 7
REMARK VINA RESULT:      -6.7      2.107      2.428
REMARK  Name = 
REMARK  2 active torsions:
REMARK  status: ('A' for Active; 'I' for Inactive)
REMARK    1  A    between atoms: C_6  and  N_7
REMARK    2  A    between atoms: N_13  and  C_14
REMARK                            x       y       z     vdW  Elec       q    Type
REMARK                         _______ _______ _______ _____ _____    ______ ____
ROOT
ATOM      1  O   UNL     1       2.812   7.131  18.926  0.00  0.00    +0.000 OA
ATOM      2  C   UNL     1       3.473   6.567  18.066  0.00  0.00    +0.000 C 
ATOM      3  C   UNL     1       4.318   7.278  17.004  0.00  0.00    +0.000 C 
ATOM      4  C   UNL     1       4.967   6.138  16.273  0.00  0.00    +0.000 A 
ATOM      5  C   UNL     1       5.858   6.180  15.211  0.00  0.00    +0.000 A 
ATOM      6  C   UNL     1       6.310   4.956  14.692  0.00  0.00    +0.000 A 
ATOM      7  C   UNL     1       5.853   3.729  15.217  0.00  0.00    +0.000 A 
ATOM      8  C   UNL     1       4.940   3.713  16.279  0.00  0.00    +0.000 A 
ATOM      9  C   UNL     1       4.530   4.925  16.814  0.00  0.00    +0.000 A 
ATOM     10  N   UNL     1       3.654   5.188  17.878  0.00  0.00    +0.000 N 
ENDROOT
BRANCH  10  11
ATOM     11  C   UNL     1       3.026   4.182  18.644  0.00  0.00    +0.000 A 
ATOM     12  C   UNL     1       3.739   3.502  19.653  0.00  0.00    +0.000 A 
ATOM     13 CL   UNL     1       5.359   3.927  20.097  0.00  0.00    +0.000 Cl
ATOM     14  C   UNL     1       3.121   2.504  20.420  0.00  0.00    +0.000 A 
ATOM     15  C   UNL     1       1.789   2.166  20.197  0.00  0.00    +0.000 A 
ATOM     16  C   UNL     1       1.074   2.815  19.194  0.00  0.00    +0.000 A 
ATOM     17  C   UNL     1       1.687   3.805  18.414  0.00  0.00    +0.000 A 
ATOM     18 CL   UNL     1       0.743   4.451  17.111  0.00  0.00    +0.000 Cl
ENDBRANCH  10  11
BRANCH   6  19
ATOM     19  N   UNL     1       7.271   4.947  13.579  0.00  0.00    +0.000 N 
ATOM     20  O   UNL     1       7.022   4.216  12.609  0.00  0.00    +0.000 OA
ATOM     21  O   UNL     1       8.273   5.670  13.676  0.00  0.00    +0.000 OA
ENDBRANCH   6  19
TORSDOF 2
ENDMDL
MODEL 8
REMARK VINA RESULT:      -6.6      2.080      2.842
REMARK  Name = 
REMARK  2 active torsions:
REMARK  status: ('A' for Active; 'I' for Inactive)
REMARK    1  A    between atoms: C_6  and  N_7
REMARK    2  A    between atoms: N_13  and  C_14
REMARK                            x       y       z     vdW  Elec       q    Type
REMARK                         _______ _______ _______ _____ _____    ______ ____
ROOT
ATOM      1  O   UNL     1       2.876   7.092  18.975  0.00  0.00    +0.000 OA
ATOM      2  C   UNL     1       3.525   6.535  18.101  0.00  0.00    +0.000 C 
ATOM      3  C   UNL     1       4.376   7.254  17.050  0.00  0.00    +0.000 C 
ATOM      4  C   UNL     1       5.004   6.119  16.293  0.00  0.00    +0.000 A 
ATOM      5  C   UNL     1       5.892   6.168  15.228  0.00  0.00    +0.000 A 
ATOM      6  C   UNL     1       6.321   4.948  14.682  0.00  0.00    +0.000 A 
ATOM      7  C   UNL     1       5.846   3.718  15.184  0.00  0.00    +0.000 A 
ATOM      8  C   UNL     1       4.937   3.695  16.249  0.00  0.00    +0.000 A 
ATOM      9  C   UNL     1       4.549   4.902  16.811  0.00  0.00    +0.000 A 
ATOM     10  N   UNL     1       3.682   5.158  17.883  0.00  0.00    +0.000 N 
ENDROOT
BRANCH  10  11
ATOM     11  C   UNL     1       3.041   4.146  18.632  0.00  0.00    +0.000 A 
ATOM     12  C   UNL     1       1.686   3.833  18.397  0.00  0.00    +0.000 A 
ATOM     13 CL   UNL     1       0.768   4.565  17.123  0.00  0.00    +0.000 Cl
ATOM     14  C   UNL     1       1.043   2.829  19.134  0.00  0.00    +0.000 A 
ATOM     15  C   UNL     1       1.734   2.120  20.113  0.00  0.00    +0.000 A 
ATOM     16  C   UNL     1       3.068   2.426  20.370  0.00  0.00    +0.000 A 
ATOM     17  C   UNL     1       3.715   3.438  19.648  0.00  0.00    +0.000 A 
ATOM     18 CL   UNL     1       5.332   3.820  20.141  0.00  0.00    +0.000 Cl
ENDBRANCH  10  11
BRANCH   6  19
ATOM     19  N   UNL     1       7.278   4.946  13.565  0.00  0.00    +0.000 N 
ATOM     20  O   UNL     1       8.256   5.702  13.644  0.00  0.00    +0.000 OA
ATOM     21  O   UNL     1       7.049   4.188  12.611  0.00  0.00    +0.000 OA
ENDBRANCH   6  19
TORSDOF 2
ENDMDL
MODEL 9
REMARK VINA RESULT:      -6.6      3.387      6.336
REMARK  Name = 
REMARK  2 active torsions:
REMARK  status: ('A' for Active; 'I' for Inactive)
REMARK    1  A    between atoms: C_6  and  N_7
REMARK    2  A    between atoms: N_13  and  C_14
REMARK                            x       y       z     vdW  Elec       q    Type
REMARK                         _______ _______ _______ _____ _____    ______ ____
ROOT
ATOM      1  O   UNL     1       4.485   3.369  19.802  0.00  0.00    +0.000 OA
ATOM      2  C   UNL     1       3.955   4.440  19.541  0.00  0.00    +0.000 C 
ATOM      3  C   UNL     1       2.953   5.165  20.445  0.00  0.00    +0.000 C 
ATOM      4  C   UNL     1       2.687   6.439  19.696  0.00  0.00    +0.000 A 
ATOM      5  C   UNL     1       1.863   7.498  20.047  0.00  0.00    +0.000 A 
ATOM      6  C   UNL     1       1.775   8.578  19.153  0.00  0.00    +0.000 A 
ATOM      7  C   UNL     1       2.481   8.572  17.932  0.00  0.00    +0.000 A 
ATOM      8  C   UNL     1       3.294   7.483  17.593  0.00  0.00    +0.000 A 
ATOM      9  C   UNL     1       3.408   6.439  18.499  0.00  0.00    +0.000 A 
ATOM     10  N   UNL     1       4.161   5.258  18.419  0.00  0.00    +0.000 N 
ENDROOT
BRANCH  10  11
ATOM     11  C   UNL     1       5.004   4.936  17.332  0.00  0.00    +0.000 A 
ATOM     12  C   UNL     1       6.268   5.547  17.202  0.00  0.00    +0.000 A 
ATOM     13 CL   UNL     1       6.913   6.617  18.402  0.00  0.00    +0.000 Cl
ATOM     14  C   UNL     1       7.110   5.231  16.127  0.00  0.00    +0.000 A 
ATOM     15  C   UNL     1       6.712   4.304  15.167  0.00  0.00    +0.000 A 
ATOM     16  C   UNL     1       5.460   3.703  15.271  0.00  0.00    +0.000 A 
ATOM     17  C   UNL     1       4.606   4.023  16.334  0.00  0.00    +0.000 A 
ATOM     18 CL   UNL     1       3.025   3.314  16.290  0.00  0.00    +0.000 Cl
ENDBRANCH  10  11
BRANCH   6  19
ATOM     19  N   UNL     1       0.930   9.735  19.488  0.00  0.00    +0.000 N 
ATOM     20  O   UNL     1       1.253  10.837  19.023  0.00  0.00    +0.000 OA
ATOM     21  O   UNL     1      -0.054   9.538  20.216  0.00  0.00    +0.000 OA
ENDBRANCH   6  19
TORSDOF 2
ENDMDL
