MODEL 1
REMARK VINA RESULT:      -8.4      0.000      0.000
REMARK  Name = 
REMARK  6 active torsions:
REMARK  status: ('A' for Active; 'I' for Inactive)
REMARK    1  A    between atoms: C_1  and  C_2
REMARK    2  A    between atoms: C_8  and  C_10
REMARK    3  A    between atoms: C_10  and  S_11
REMARK    4  A    between atoms: S_11  and  C_12
REMARK    5  A    between atoms: N_22  and  C_23
REMARK    6  A    between atoms: C_23  and  C_24
REMARK                            x       y       z     vdW  Elec       q    Type
REMARK                         _______ _______ _______ _____ _____    ______ ____
ROOT
ATOM      1  C   UNL     1       0.702  10.893  18.614  0.00  0.00    +0.000 A 
ATOM      2  N   UNL     1      -0.238  10.447  17.842  0.00  0.00    +0.000 NA
ATOM      3  C   UNL     1      -1.543  10.922  18.050  0.00  0.00    +0.000 A 
ATOM      4  C   UNL     1      -2.536  10.721  17.088  0.00  0.00    +0.000 A 
ATOM      5  C   UNL     1      -3.794  11.230  17.353  0.00  0.00    +0.000 A 
ATOM      6  C   UNL     1      -4.118  11.785  18.576  0.00  0.00    +0.000 A 
ATOM      7  C   UNL     1      -3.186  11.968  19.553  0.00  0.00    +0.000 A 
ATOM      8  C   UNL     1      -1.875  11.618  19.219  0.00  0.00    +0.000 A 
ATOM      9  C   UNL     1      -0.778  12.219  19.972  0.00  0.00    +0.000 A 
ATOM     10  O   UNL     1      -1.050  13.061  20.827  0.00  0.00    +0.000 OA
ATOM     11  N   UNL     1       0.506  11.849  19.604  0.00  0.00    +0.000 N 
ATOM     12  O   UNL     1      -5.388  12.269  18.611  0.00  0.00    +0.000 OA
ATOM     13  C   UNL     1      -5.637  12.317  17.195  0.00  0.00    +0.000 C 
ATOM     14  O   UNL     1      -4.827  11.358  16.473  0.00  0.00    +0.000 OA
ENDROOT
BRANCH   1  15
ATOM     15  S   UNL     1       2.316  10.222  18.425  0.00  0.00    +0.000 S 
BRANCH  15  16
ATOM     16  C   UNL     1       1.993   8.464  18.037  0.00  0.00    +0.000 C 
BRANCH  16  24
ATOM     17  C   UNL     1       3.980   4.939  17.745  0.00  0.00    +0.000 C 
ATOM     18  C   UNL     1       2.572   5.527  17.903  0.00  0.00    +0.000 C 
ATOM     19  C   UNL     1       1.492   4.435  17.803  0.00  0.00    +0.000 C 
ATOM     20  C   UNL     1       1.488   3.503  19.018  0.00  0.00    +0.000 C 
ATOM     21  C   UNL     1       1.407   4.296  20.322  0.00  0.00    +0.000 C 
ATOM     22  C   UNL     1       2.452   5.411  20.382  0.00  0.00    +0.000 C 
ATOM     23  N   UNL     1       2.413   6.251  19.178  0.00  0.00    +0.000 N 
ATOM     24  C   UNL     1       1.992   7.585  19.304  0.00  0.00    +0.000 C 
ATOM     25  O   UNL     1       1.651   8.029  20.403  0.00  0.00    +0.000 OA
ENDBRANCH  16  24
ENDBRANCH  15  16
ENDBRANCH   1  15
BRANCH  11  26
ATOM     26  C   UNL     1       1.563  12.655  20.229  0.00  0.00    +0.000 C 
BRANCH  26  27
ATOM     27  C   UNL     1       1.945  13.857  19.379  0.00  0.00    +0.000 A 
ATOM     28  C   UNL     1       3.132  13.879  18.595  0.00  0.00    +0.000 A 
ATOM     29  C   UNL     1       3.469  15.007  17.827  0.00  0.00    +0.000 A 
ATOM     30  C   UNL     1       2.615  16.087  17.865  0.00  0.00    +0.000 A 
ATOM     31  C   UNL     1       1.472  16.073  18.626  0.00  0.00    +0.000 A 
ATOM     32  C   UNL     1       1.111  14.984  19.385  0.00  0.00    +0.000 A 
ATOM     33  O   UNL     1       0.756  17.222  18.519  0.00  0.00    +0.000 OA
ATOM     34  C   UNL     1       1.498  17.893  17.482  0.00  0.00    +0.000 C 
ATOM     35  O   UNL     1       2.751  17.248  17.168  0.00  0.00    +0.000 OA
ENDBRANCH  26  27
ENDBRANCH  11  26
TORSDOF 5
ENDMDL
MODEL 2
REMARK VINA RESULT:      -8.1      2.141      5.904
REMARK  Name = 
REMARK  6 active torsions:
REMARK  status: ('A' for Active; 'I' for Inactive)
REMARK    1  A    between atoms: C_1  and  C_2
REMARK    2  A    between atoms: C_8  and  C_10
REMARK    3  A    between atoms: C_10  and  S_11
REMARK    4  A    between atoms: S_11  and  C_12
REMARK    5  A    between atoms: N_22  and  C_23
REMARK    6  A    between atoms: C_23  and  C_24
REMARK                            x       y       z     vdW  Elec       q    Type
REMARK                         _______ _______ _______ _____ _____    ______ ____
ROOT
ATOM      1  C   UNL     1       1.362  11.458  19.099  0.00  0.00    +0.000 A 
ATOM      2  N   UNL     1       2.195  12.035  18.292  0.00  0.00    +0.000 NA
ATOM      3  C   UNL     1       2.730  13.276  18.675  0.00  0.00    +0.000 A 
ATOM      4  C   UNL     1       3.839  13.809  18.012  0.00  0.00    +0.000 A 
ATOM      5  C   UNL     1       4.322  15.027  18.453  0.00  0.00    +0.000 A 
ATOM      6  C   UNL     1       3.661  15.776  19.407  0.00  0.00    +0.000 A 
ATOM      7  C   UNL     1       2.557  15.307  20.053  0.00  0.00    +0.000 A 
ATOM      8  C   UNL     1       2.174  14.001  19.736  0.00  0.00    +0.000 A 
ATOM      9  C   UNL     1       1.356  13.261  20.693  0.00  0.00    +0.000 A 
ATOM     10  O   UNL     1       1.094  13.794  21.770  0.00  0.00    +0.000 OA
ATOM     11  N   UNL     1       1.003  11.967  20.341  0.00  0.00    +0.000 N 
ATOM     12  O   UNL     1       4.329  16.914  19.734  0.00  0.00    +0.000 OA
ATOM     13  C   UNL     1       5.618  16.568  19.197  0.00  0.00    +0.000 C 
ATOM     14  O   UNL     1       5.510  15.606  18.119  0.00  0.00    +0.000 OA
ENDROOT
BRANCH   1  15
ATOM     15  S   UNL     1       0.610   9.957  18.576  0.00  0.00    +0.000 S 
BRANCH  15  16
ATOM     16  C   UNL     1       2.005   8.772  18.573  0.00  0.00    +0.000 C 
BRANCH  16  24
ATOM     17  C   UNL     1       4.105   5.338  18.074  0.00  0.00    +0.000 C 
ATOM     18  C   UNL     1       2.674   5.883  18.144  0.00  0.00    +0.000 C 
ATOM     19  C   UNL     1       1.640   4.799  17.790  0.00  0.00    +0.000 C 
ATOM     20  C   UNL     1       1.529   3.722  18.873  0.00  0.00    +0.000 C 
ATOM     21  C   UNL     1       1.284   4.343  20.247  0.00  0.00    +0.000 C 
ATOM     22  C   UNL     1       2.286   5.455  20.561  0.00  0.00    +0.000 C 
ATOM     23  N   UNL     1       2.356   6.440  19.472  0.00  0.00    +0.000 N 
ATOM     24  C   UNL     1       1.888   7.742  19.715  0.00  0.00    +0.000 C 
ATOM     25  O   UNL     1       1.417   8.040  20.815  0.00  0.00    +0.000 OA
ENDBRANCH  16  24
ENDBRANCH  15  16
ENDBRANCH   1  15
BRANCH  11  26
ATOM     26  C   UNL     1       0.390  11.198  21.431  0.00  0.00    +0.000 C 
BRANCH  26  27
ATOM     27  C   UNL     1      -1.016  11.682  21.753  0.00  0.00    +0.000 A 
ATOM     28  C   UNL     1      -1.525  11.687  23.082  0.00  0.00    +0.000 A 
ATOM     29  C   UNL     1      -2.832  12.128  23.352  0.00  0.00    +0.000 A 
ATOM     30  C   UNL     1      -3.599  12.548  22.289  0.00  0.00    +0.000 A 
ATOM     31  C   UNL     1      -3.115  12.538  21.005  0.00  0.00    +0.000 A 
ATOM     32  C   UNL     1      -1.840  12.117  20.706  0.00  0.00    +0.000 A 
ATOM     33  O   UNL     1      -4.016  13.002  20.100  0.00  0.00    +0.000 OA
ATOM     34  C   UNL     1      -5.060  13.453  20.984  0.00  0.00    +0.000 C 
ATOM     35  O   UNL     1      -4.867  13.039  22.354  0.00  0.00    +0.000 OA
ENDBRANCH  26  27
ENDBRANCH  11  26
TORSDOF 5
ENDMDL
MODEL 3
REMARK VINA RESULT:      -8.1      2.272      6.021
REMARK  Name = 
REMARK  6 active torsions:
REMARK  status: ('A' for Active; 'I' for Inactive)
REMARK    1  A    between atoms: C_1  and  C_2
REMARK    2  A    between atoms: C_8  and  C_10
REMARK    3  A    between atoms: C_10  and  S_11
REMARK    4  A    between atoms: S_11  and  C_12
REMARK    5  A    between atoms: N_22  and  C_23
REMARK    6  A    between atoms: C_23  and  C_24
REMARK                            x       y       z     vdW  Elec       q    Type
REMARK                         _______ _______ _______ _____ _____    ______ ____
ROOT
ATOM      1  C   UNL     1       1.257  11.539  19.093  0.00  0.00    +0.000 A 
ATOM      2  N   UNL     1       2.123  12.076  18.294  0.00  0.00    +0.000 NA
ATOM      3  C   UNL     1       2.621  13.348  18.621  0.00  0.00    +0.000 A 
ATOM      4  C   UNL     1       3.756  13.854  17.982  0.00  0.00    +0.000 A 
ATOM      5  C   UNL     1       4.200  15.106  18.366  0.00  0.00    +0.000 A 
ATOM      6  C   UNL     1       3.480  15.906  19.232  0.00  0.00    +0.000 A 
ATOM      7  C   UNL     1       2.350  15.462  19.850  0.00  0.00    +0.000 A 
ATOM      8  C   UNL     1       2.001  14.132  19.602  0.00  0.00    +0.000 A 
ATOM      9  C   UNL     1       1.144  13.442  20.562  0.00  0.00    +0.000 A 
ATOM     10  O   UNL     1       0.818  14.040  21.587  0.00  0.00    +0.000 OA
ATOM     11  N   UNL     1       0.827  12.123  20.279  0.00  0.00    +0.000 N 
ATOM     12  O   UNL     1       4.116  17.073  19.517  0.00  0.00    +0.000 OA
ATOM     13  C   UNL     1       5.434  16.714  19.071  0.00  0.00    +0.000 C 
ATOM     14  O   UNL     1       5.396  15.682  18.056  0.00  0.00    +0.000 OA
ENDROOT
BRANCH   1  15
ATOM     15  S   UNL     1       0.553   9.995  18.633  0.00  0.00    +0.000 S 
BRANCH  15  16
ATOM     16  C   UNL     1       1.983   8.854  18.684  0.00  0.00    +0.000 C 
BRANCH  16  24
ATOM     17  C   UNL     1       4.144   5.455  18.210  0.00  0.00    +0.000 C 
ATOM     18  C   UNL     1       2.704   5.980  18.243  0.00  0.00    +0.000 C 
ATOM     19  C   UNL     1       1.696   4.886  17.847  0.00  0.00    +0.000 C 
ATOM     20  C   UNL     1       1.567   3.795  18.914  0.00  0.00    +0.000 C 
ATOM     21  C   UNL     1       1.273   4.397  20.287  0.00  0.00    +0.000 C 
ATOM     22  C   UNL     1       2.250   5.519  20.643  0.00  0.00    +0.000 C 
ATOM     23  N   UNL     1       2.339   6.517  19.568  0.00  0.00    +0.000 N 
ATOM     24  C   UNL     1       1.846   7.809  19.810  0.00  0.00    +0.000 C 
ATOM     25  O   UNL     1       1.339   8.089  20.899  0.00  0.00    +0.000 OA
ENDBRANCH  16  24
ENDBRANCH  15  16
ENDBRANCH   1  15
BRANCH  11  26
ATOM     26  C   UNL     1       0.167  11.416  21.384  0.00  0.00    +0.000 C 
BRANCH  26  27
ATOM     27  C   UNL     1      -1.266  11.885  21.589  0.00  0.00    +0.000 A 
ATOM     28  C   UNL     1      -2.090  12.285  20.501  0.00  0.00    +0.000 A 
ATOM     29  C   UNL     1      -3.407  12.726  20.718  0.00  0.00    +0.000 A 
ATOM     30  C   UNL     1      -3.867  12.759  22.015  0.00  0.00    +0.000 A 
ATOM     31  C   UNL     1      -3.072  12.381  23.069  0.00  0.00    +0.000 A 
ATOM     32  C   UNL     1      -1.781  11.941  22.891  0.00  0.00    +0.000 A 
ATOM     33  O   UNL     1      -3.709  12.470  24.266  0.00  0.00    +0.000 OA
ATOM     34  C   UNL     1      -5.041  12.795  23.825  0.00  0.00    +0.000 C 
ATOM     35  O   UNL     1      -5.115  13.120  22.420  0.00  0.00    +0.000 OA
ENDBRANCH  26  27
ENDBRANCH  11  26
TORSDOF 5
ENDMDL
MODEL 4
REMARK VINA RESULT:      -8.0      1.207      5.826
REMARK  Name = 
REMARK  6 active torsions:
REMARK  status: ('A' for Active; 'I' for Inactive)
REMARK    1  A    between atoms: C_1  and  C_2
REMARK    2  A    between atoms: C_8  and  C_10
REMARK    3  A    between atoms: C_10  and  S_11
REMARK    4  A    between atoms: S_11  and  C_12
REMARK    5  A    between atoms: N_22  and  C_23
REMARK    6  A    between atoms: C_23  and  C_24
REMARK                            x       y       z     vdW  Elec       q    Type
REMARK                         _______ _______ _______ _____ _____    ______ ____
ROOT
ATOM      1  C   UNL     1       1.018  11.267  18.522  0.00  0.00    +0.000 A 
ATOM      2  N   UNL     1       2.180  11.731  18.185  0.00  0.00    +0.000 NA
ATOM      3  C   UNL     1       2.422  13.101  18.375  0.00  0.00    +0.000 A 
ATOM      4  C   UNL     1       3.723  13.609  18.316  0.00  0.00    +0.000 A 
ATOM      5  C   UNL     1       3.888  14.965  18.529  0.00  0.00    +0.000 A 
ATOM      6  C   UNL     1       2.815  15.826  18.644  0.00  0.00    +0.000 A 
ATOM      7  C   UNL     1       1.530  15.374  18.672  0.00  0.00    +0.000 A 
ATOM      8  C   UNL     1       1.370  13.987  18.639  0.00  0.00    +0.000 A 
ATOM      9  C   UNL     1       0.129  13.413  19.152  0.00  0.00    +0.000 A 
ATOM     10  O   UNL     1      -0.699  14.171  19.654  0.00  0.00    +0.000 OA
ATOM     11  N   UNL     1       0.015  12.032  19.105  0.00  0.00    +0.000 N 
ATOM     12  O   UNL     1       3.196  17.106  18.899  0.00  0.00    +0.000 OA
ATOM     13  C   UNL     1       4.546  16.848  19.322  0.00  0.00    +0.000 C 
ATOM     14  O   UNL     1       5.063  15.621  18.751  0.00  0.00    +0.000 OA
ENDROOT
BRANCH   1  15
ATOM     15  S   UNL     1       0.674   9.575  18.189  0.00  0.00    +0.000 S 
BRANCH  15  16
ATOM     16  C   UNL     1       2.218   8.730  18.690  0.00  0.00    +0.000 C 
BRANCH  16  24
ATOM     17  C   UNL     1       4.165   5.193  18.301  0.00  0.00    +0.000 C 
ATOM     18  C   UNL     1       2.763   5.812  18.282  0.00  0.00    +0.000 C 
ATOM     19  C   UNL     1       1.699   4.785  17.854  0.00  0.00    +0.000 C 
ATOM     20  C   UNL     1       1.462   3.711  18.919  0.00  0.00    +0.000 C 
ATOM     21  C   UNL     1       1.160   4.338  20.279  0.00  0.00    +0.000 C 
ATOM     22  C   UNL     1       2.196   5.395  20.666  0.00  0.00    +0.000 C 
ATOM     23  N   UNL     1       2.389   6.379  19.592  0.00  0.00    +0.000 N 
ATOM     24  C   UNL     1       1.973   7.702  19.813  0.00  0.00    +0.000 C 
ATOM     25  O   UNL     1       1.448   8.020  20.883  0.00  0.00    +0.000 OA
ENDBRANCH  16  24
ENDBRANCH  15  16
ENDBRANCH   1  15
BRANCH  11  26
ATOM     26  C   UNL     1      -1.139  11.502  19.842  0.00  0.00    +0.000 C 
BRANCH  26  27
ATOM     27  C   UNL     1      -2.429  11.611  19.043  0.00  0.00    +0.000 A 
ATOM     28  C   UNL     1      -2.515  11.179  17.690  0.00  0.00    +0.000 A 
ATOM     29  C   UNL     1      -3.715  11.301  16.969  0.00  0.00    +0.000 A 
ATOM     30  C   UNL     1      -4.798  11.855  17.615  0.00  0.00    +0.000 A 
ATOM     31  C   UNL     1      -4.717  12.281  18.918  0.00  0.00    +0.000 A 
ATOM     32  C   UNL     1      -3.559  12.172  19.653  0.00  0.00    +0.000 A 
ATOM     33  O   UNL     1      -5.891  12.784  19.380  0.00  0.00    +0.000 OA
ATOM     34  C   UNL     1      -6.757  12.478  18.271  0.00  0.00    +0.000 C 
ATOM     35  O   UNL     1      -6.046  12.024  17.099  0.00  0.00    +0.000 OA
ENDBRANCH  26  27
ENDBRANCH  11  26
TORSDOF 5
ENDMDL
MODEL 5
REMARK VINA RESULT:      -8.0      0.651      1.142
REMARK  Name = 
REMARK  6 active torsions:
REMARK  status: ('A' for Active; 'I' for Inactive)
REMARK    1  A    between atoms: C_1  and  C_2
REMARK    2  A    between atoms: C_8  and  C_10
REMARK    3  A    between atoms: C_10  and  S_11
REMARK    4  A    between atoms: S_11  and  C_12
REMARK    5  A    between atoms: N_22  and  C_23
REMARK    6  A    between atoms: C_23  and  C_24
REMARK                            x       y       z     vdW  Elec       q    Type
REMARK                         _______ _______ _______ _____ _____    ______ ____
ROOT
ATOM      1  C   UNL     1       0.685  10.730  18.626  0.00  0.00    +0.000 A 
ATOM      2  N   UNL     1      -0.219  10.371  17.772  0.00  0.00    +0.000 NA
ATOM      3  C   UNL     1      -1.533  10.824  17.973  0.00  0.00    +0.000 A 
ATOM      4  C   UNL     1      -2.484  10.727  16.954  0.00  0.00    +0.000 A 
ATOM      5  C   UNL     1      -3.753  11.208  17.217  0.00  0.00    +0.000 A 
ATOM      6  C   UNL     1      -4.131  11.631  18.476  0.00  0.00    +0.000 A 
ATOM      7  C   UNL     1      -3.242  11.708  19.506  0.00  0.00    +0.000 A 
ATOM      8  C   UNL     1      -1.917  11.393  19.193  0.00  0.00    +0.000 A 
ATOM      9  C   UNL     1      -0.855  11.909  20.052  0.00  0.00    +0.000 A 
ATOM     10  O   UNL     1      -1.165  12.656  20.978  0.00  0.00    +0.000 OA
ATOM     11  N   UNL     1       0.445  11.577  19.702  0.00  0.00    +0.000 N 
ATOM     12  O   UNL     1      -5.402  12.112  18.508  0.00  0.00    +0.000 OA
ATOM     13  C   UNL     1      -5.591  12.309  17.096  0.00  0.00    +0.000 C 
ATOM     14  O   UNL     1      -4.749  11.430  16.312  0.00  0.00    +0.000 OA
ENDROOT
BRANCH   1  15
ATOM     15  S   UNL     1       2.308  10.080  18.437  0.00  0.00    +0.000 S 
BRANCH  15  16
ATOM     16  C   UNL     1       2.008   8.315  18.062  0.00  0.00    +0.000 C 
BRANCH  16  24
ATOM     17  C   UNL     1       3.939   4.763  17.731  0.00  0.00    +0.000 C 
ATOM     18  C   UNL     1       2.545   5.370  17.927  0.00  0.00    +0.000 C 
ATOM     19  C   UNL     1       1.448   4.292  17.866  0.00  0.00    +0.000 C 
ATOM     20  C   UNL     1       1.469   3.367  19.087  0.00  0.00    +0.000 C 
ATOM     21  C   UNL     1       1.437   4.168  20.388  0.00  0.00    +0.000 C 
ATOM     22  C   UNL     1       2.497   5.269  20.410  0.00  0.00    +0.000 C 
ATOM     23  N   UNL     1       2.433   6.104  19.202  0.00  0.00    +0.000 N 
ATOM     24  C   UNL     1       2.033   7.443  19.334  0.00  0.00    +0.000 C 
ATOM     25  O   UNL     1       1.731   7.898  20.439  0.00  0.00    +0.000 OA
ENDBRANCH  16  24
ENDBRANCH  15  16
ENDBRANCH   1  15
BRANCH  11  26
ATOM     26  C   UNL     1       1.472  12.311  20.453  0.00  0.00    +0.000 C 
BRANCH  26  27
ATOM     27  C   UNL     1       1.713  13.701  19.886  0.00  0.00    +0.000 A 
ATOM     28  C   UNL     1       1.173  14.868  20.496  0.00  0.00    +0.000 A 
ATOM     29  C   UNL     1       1.400  16.141  19.946  0.00  0.00    +0.000 A 
ATOM     30  C   UNL     1       2.157  16.218  18.798  0.00  0.00    +0.000 A 
ATOM     31  C   UNL     1       2.672  15.094  18.201  0.00  0.00    +0.000 A 
ATOM     32  C   UNL     1       2.473  13.834  18.716  0.00  0.00    +0.000 A 
ATOM     33  O   UNL     1       3.400  15.377  17.089  0.00  0.00    +0.000 OA
ATOM     34  C   UNL     1       3.413  16.815  17.149  0.00  0.00    +0.000 C 
ATOM     35  O   UNL     1       2.511  17.355  18.140  0.00  0.00    +0.000 OA
ENDBRANCH  26  27
ENDBRANCH  11  26
TORSDOF 5
ENDMDL
MODEL 6
REMARK VINA RESULT:      -7.9      0.857      1.001
REMARK  Name = 
REMARK  6 active torsions:
REMARK  status: ('A' for Active; 'I' for Inactive)
REMARK    1  A    between atoms: C_1  and  C_2
REMARK    2  A    between atoms: C_8  and  C_10
REMARK    3  A    between atoms: C_10  and  S_11
REMARK    4  A    between atoms: S_11  and  C_12
REMARK    5  A    between atoms: N_22  and  C_23
REMARK    6  A    between atoms: C_23  and  C_24
REMARK                            x       y       z     vdW  Elec       q    Type
REMARK                         _______ _______ _______ _____ _____    ______ ____
ROOT
ATOM      1  C   UNL     1       0.612  11.471  18.885  0.00  0.00    +0.000 A 
ATOM      2  N   UNL     1      -0.504  11.084  18.354  0.00  0.00    +0.000 NA
ATOM      3  C   UNL     1      -1.700  11.582  18.897  0.00  0.00    +0.000 A 
ATOM      4  C   UNL     1      -2.906  11.449  18.204  0.00  0.00    +0.000 A 
ATOM      5  C   UNL     1      -4.041  11.977  18.792  0.00  0.00    +0.000 A 
ATOM      6  C   UNL     1      -4.034  12.483  20.077  0.00  0.00    +0.000 A 
ATOM      7  C   UNL     1      -2.884  12.599  20.798  0.00  0.00    +0.000 A 
ATOM      8  C   UNL     1      -1.709  12.233  20.137  0.00  0.00    +0.000 A 
ATOM      9  C   UNL     1      -0.440  12.772  20.616  0.00  0.00    +0.000 A 
ATOM     10  O   UNL     1      -0.463  13.581  21.542  0.00  0.00    +0.000 OA
ATOM     11  N   UNL     1       0.700  12.387  19.927  0.00  0.00    +0.000 N 
ATOM     12  O   UNL     1      -5.238  12.997  20.443  0.00  0.00    +0.000 OA
ATOM     13  C   UNL     1      -5.827  13.115  19.137  0.00  0.00    +0.000 C 
ATOM     14  O   UNL     1      -5.255  12.170  18.201  0.00  0.00    +0.000 OA
ENDROOT
BRANCH   1  15
ATOM     15  S   UNL     1       2.105  10.770  18.277  0.00  0.00    +0.000 S 
BRANCH  15  16
ATOM     16  C   UNL     1       1.655   9.020  17.988  0.00  0.00    +0.000 C 
BRANCH  16  24
ATOM     17  C   UNL     1       4.214   5.873  17.925  0.00  0.00    +0.000 C 
ATOM     18  C   UNL     1       2.722   6.220  17.986  0.00  0.00    +0.000 C 
ATOM     19  C   UNL     1       1.845   4.961  17.867  0.00  0.00    +0.000 C 
ATOM     20  C   UNL     1       1.926   4.072  19.112  0.00  0.00    +0.000 C 
ATOM     21  C   UNL     1       1.638   4.872  20.381  0.00  0.00    +0.000 C 
ATOM     22  C   UNL     1       2.477   6.148  20.458  0.00  0.00    +0.000 C 
ATOM     23  N   UNL     1       2.370   6.939  19.225  0.00  0.00    +0.000 N 
ATOM     24  C   UNL     1       1.726   8.186  19.283  0.00  0.00    +0.000 C 
ATOM     25  O   UNL     1       1.252   8.595  20.346  0.00  0.00    +0.000 OA
ENDBRANCH  16  24
ENDBRANCH  15  16
ENDBRANCH   1  15
BRANCH  11  26
ATOM     26  C   UNL     1       1.906  13.138  20.300  0.00  0.00    +0.000 C 
BRANCH  26  27
ATOM     27  C   UNL     1       2.188  14.283  19.340  0.00  0.00    +0.000 A 
ATOM     28  C   UNL     1       3.342  14.303  18.509  0.00  0.00    +0.000 A 
ATOM     29  C   UNL     1       3.587  15.379  17.638  0.00  0.00    +0.000 A 
ATOM     30  C   UNL     1       2.674  16.410  17.622  0.00  0.00    +0.000 A 
ATOM     31  C   UNL     1       1.563  16.399  18.427  0.00  0.00    +0.000 A 
ATOM     32  C   UNL     1       1.292  15.360  19.287  0.00  0.00    +0.000 A 
ATOM     33  O   UNL     1       0.779  17.495  18.256  0.00  0.00    +0.000 OA
ATOM     34  C   UNL     1       1.443  18.115  17.139  0.00  0.00    +0.000 C 
ATOM     35  O   UNL     1       2.719  17.514  16.827  0.00  0.00    +0.000 OA
ENDBRANCH  26  27
ENDBRANCH  11  26
TORSDOF 5
ENDMDL
MODEL 7
REMARK VINA RESULT:      -7.9      3.279      8.425
REMARK  Name = 
REMARK  6 active torsions:
REMARK  status: ('A' for Active; 'I' for Inactive)
REMARK    1  A    between atoms: C_1  and  C_2
REMARK    2  A    between atoms: C_8  and  C_10
REMARK    3  A    between atoms: C_10  and  S_11
REMARK    4  A    between atoms: S_11  and  C_12
REMARK    5  A    between atoms: N_22  and  C_23
REMARK    6  A    between atoms: C_23  and  C_24
REMARK                            x       y       z     vdW  Elec       q    Type
REMARK                         _______ _______ _______ _____ _____    ______ ____
ROOT
ATOM      1  C   UNL     1       0.167  12.274  21.086  0.00  0.00    +0.000 A 
ATOM      2  N   UNL     1       0.530  13.514  21.174  0.00  0.00    +0.000 NA
ATOM      3  C   UNL     1       1.357  14.033  20.164  0.00  0.00    +0.000 A 
ATOM      4  C   UNL     1       1.543  15.412  20.034  0.00  0.00    +0.000 A 
ATOM      5  C   UNL     1       2.357  15.851  19.007  0.00  0.00    +0.000 A 
ATOM      6  C   UNL     1       3.089  14.979  18.226  0.00  0.00    +0.000 A 
ATOM      7  C   UNL     1       2.962  13.627  18.345  0.00  0.00    +0.000 A 
ATOM      8  C   UNL     1       2.004  13.183  19.259  0.00  0.00    +0.000 A 
ATOM      9  C   UNL     1       1.457  11.838  19.101  0.00  0.00    +0.000 A 
ATOM     10  O   UNL     1       1.814  11.174  18.129  0.00  0.00    +0.000 OA
ATOM     11  N   UNL     1       0.506  11.439  20.027  0.00  0.00    +0.000 N 
ATOM     12  O   UNL     1       3.783  15.612  17.243  0.00  0.00    +0.000 OA
ATOM     13  C   UNL     1       3.084  16.868  17.262  0.00  0.00    +0.000 C 
ATOM     14  O   UNL     1       2.486  17.131  18.555  0.00  0.00    +0.000 OA
ENDROOT
BRANCH   1  15
ATOM     15  S   UNL     1      -0.780  11.593  22.401  0.00  0.00    +0.000 S 
BRANCH  15  16
ATOM     16  C   UNL     1      -1.588  13.061  23.135  0.00  0.00    +0.000 C 
BRANCH  16  24
ATOM     17  C   UNL     1      -3.924  15.473  20.859  0.00  0.00    +0.000 C 
ATOM     18  C   UNL     1      -3.531  15.189  22.313  0.00  0.00    +0.000 C 
ATOM     19  C   UNL     1      -4.118  16.241  23.271  0.00  0.00    +0.000 C 
ATOM     20  C   UNL     1      -5.638  16.118  23.414  0.00  0.00    +0.000 C 
ATOM     21  C   UNL     1      -6.044  14.692  23.785  0.00  0.00    +0.000 C 
ATOM     22  C   UNL     1      -5.410  13.655  22.858  0.00  0.00    +0.000 C 
ATOM     23  N   UNL     1      -3.956  13.846  22.750  0.00  0.00    +0.000 N 
ATOM     24  C   UNL     1      -3.110  12.864  23.291  0.00  0.00    +0.000 C 
ATOM     25  O   UNL     1      -3.583  11.874  23.853  0.00  0.00    +0.000 OA
ENDBRANCH  16  24
ENDBRANCH  15  16
ENDBRANCH   1  15
BRANCH  11  26
ATOM     26  C   UNL     1      -0.173  10.183  19.684  0.00  0.00    +0.000 C 
BRANCH  26  27
ATOM     27  C   UNL     1      -1.319  10.400  18.706  0.00  0.00    +0.000 A 
ATOM     28  C   UNL     1      -1.330   9.803  17.415  0.00  0.00    +0.000 A 
ATOM     29  C   UNL     1      -2.394  10.028  16.525  0.00  0.00    +0.000 A 
ATOM     30  C   UNL     1      -3.418  10.847  16.945  0.00  0.00    +0.000 A 
ATOM     31  C   UNL     1      -3.408  11.431  18.187  0.00  0.00    +0.000 A 
ATOM     32  C   UNL     1      -2.384  11.228  19.083  0.00  0.00    +0.000 A 
ATOM     33  O   UNL     1      -4.510  12.190  18.420  0.00  0.00    +0.000 OA
ATOM     34  C   UNL     1      -5.285  11.886  17.245  0.00  0.00    +0.000 C 
ATOM     35  O   UNL     1      -4.543  11.155  16.244  0.00  0.00    +0.000 OA
ENDBRANCH  26  27
ENDBRANCH  11  26
TORSDOF 5
ENDMDL
MODEL 8
REMARK VINA RESULT:      -7.9      1.868      8.265
REMARK  Name = 
REMARK  6 active torsions:
REMARK  status: ('A' for Active; 'I' for Inactive)
REMARK    1  A    between atoms: C_1  and  C_2
REMARK    2  A    between atoms: C_8  and  C_10
REMARK    3  A    between atoms: C_10  and  S_11
REMARK    4  A    between atoms: S_11  and  C_12
REMARK    5  A    between atoms: N_22  and  C_23
REMARK    6  A    between atoms: C_23  and  C_24
REMARK                            x       y       z     vdW  Elec       q    Type
REMARK                         _______ _______ _______ _____ _____    ______ ____
ROOT
ATOM      1  C   UNL     1       1.378  10.745  18.699  0.00  0.00    +0.000 A 
ATOM      2  N   UNL     1       2.207   9.942  18.110  0.00  0.00    +0.000 NA
ATOM      3  C   UNL     1       2.282   8.618  18.572  0.00  0.00    +0.000 A 
ATOM      4  C   UNL     1       2.920   7.634  17.812  0.00  0.00    +0.000 A 
ATOM      5  C   UNL     1       2.942   6.349  18.321  0.00  0.00    +0.000 A 
ATOM      6  C   UNL     1       2.494   6.056  19.594  0.00  0.00    +0.000 A 
ATOM      7  C   UNL     1       1.897   6.995  20.380  0.00  0.00    +0.000 A 
ATOM      8  C   UNL     1       1.711   8.251  19.797  0.00  0.00    +0.000 A 
ATOM      9  C   UNL     1       0.678   9.129  20.340  0.00  0.00    +0.000 A 
ATOM     10  O   UNL     1      -0.032   8.700  21.248  0.00  0.00    +0.000 OA
ATOM     11  N   UNL     1       0.525  10.363  19.728  0.00  0.00    +0.000 N 
ATOM     12  O   UNL     1       2.557   4.728  19.879  0.00  0.00    +0.000 OA
ATOM     13  C   UNL     1       2.695   4.228  18.538  0.00  0.00    +0.000 C 
ATOM     14  O   UNL     1       3.290   5.210  17.656  0.00  0.00    +0.000 OA
ENDROOT
BRANCH   1  15
ATOM     15  S   UNL     1       1.356  12.429  18.194  0.00  0.00    +0.000 S 
BRANCH  15  16
ATOM     16  C   UNL     1       2.283  13.275  19.526  0.00  0.00    +0.000 C 
BRANCH  16  24
ATOM     17  C   UNL     1       0.190  16.398  21.049  0.00  0.00    +0.000 C 
ATOM     18  C   UNL     1       0.491  15.667  19.735  0.00  0.00    +0.000 C 
ATOM     19  C   UNL     1      -0.375  16.203  18.581  0.00  0.00    +0.000 C 
ATOM     20  C   UNL     1       0.029  17.618  18.155  0.00  0.00    +0.000 C 
ATOM     21  C   UNL     1       1.525  17.698  17.855  0.00  0.00    +0.000 C 
ATOM     22  C   UNL     1       2.369  17.113  18.987  0.00  0.00    +0.000 C 
ATOM     23  N   UNL     1       1.914  15.766  19.359  0.00  0.00    +0.000 N 
ATOM     24  C   UNL     1       2.760  14.676  19.095  0.00  0.00    +0.000 C 
ATOM     25  O   UNL     1       3.853  14.853  18.552  0.00  0.00    +0.000 OA
ENDBRANCH  16  24
ENDBRANCH  15  16
ENDBRANCH   1  15
BRANCH  11  26
ATOM     26  C   UNL     1      -0.672  11.098  20.157  0.00  0.00    +0.000 C 
BRANCH  26  27
ATOM     27  C   UNL     1      -1.743  11.130  19.078  0.00  0.00    +0.000 A 
ATOM     28  C   UNL     1      -2.925  11.910  19.213  0.00  0.00    +0.000 A 
ATOM     29  C   UNL     1      -3.907  11.914  18.207  0.00  0.00    +0.000 A 
ATOM     30  C   UNL     1      -3.685  11.135  17.092  0.00  0.00    +0.000 A 
ATOM     31  C   UNL     1      -2.549  10.375  16.962  0.00  0.00    +0.000 A 
ATOM     32  C   UNL     1      -1.568  10.352  17.925  0.00  0.00    +0.000 A 
ATOM     33  O   UNL     1      -2.508   9.690  15.789  0.00  0.00    +0.000 OA
ATOM     34  C   UNL     1      -3.670  10.232  15.133  0.00  0.00    +0.000 C 
ATOM     35  O   UNL     1      -4.496  11.035  16.004  0.00  0.00    +0.000 OA
ENDBRANCH  26  27
ENDBRANCH  11  26
TORSDOF 5
ENDMDL
MODEL 9
REMARK VINA RESULT:      -7.9      1.726      8.141
REMARK  Name = 
REMARK  6 active torsions:
REMARK  status: ('A' for Active; 'I' for Inactive)
REMARK    1  A    between atoms: C_1  and  C_2
REMARK    2  A    between atoms: C_8  and  C_10
REMARK    3  A    between atoms: C_10  and  S_11
REMARK    4  A    between atoms: S_11  and  C_12
REMARK    5  A    between atoms: N_22  and  C_23
REMARK    6  A    between atoms: C_23  and  C_24
REMARK                            x       y       z     vdW  Elec       q    Type
REMARK                         _______ _______ _______ _____ _____    ______ ____
ROOT
ATOM      1  C   UNL     1       1.532  10.712  18.584  0.00  0.00    +0.000 A 
ATOM      2  N   UNL     1       2.243   9.782  18.029  0.00  0.00    +0.000 NA
ATOM      3  C   UNL     1       2.212   8.499  18.599  0.00  0.00    +0.000 A 
ATOM      4  C   UNL     1       2.705   7.396  17.898  0.00  0.00    +0.000 A 
ATOM      5  C   UNL     1       2.627   6.161  18.515  0.00  0.00    +0.000 A 
ATOM      6  C   UNL     1       2.223   6.020  19.828  0.00  0.00    +0.000 A 
ATOM      7  C   UNL     1       1.767   7.077  20.557  0.00  0.00    +0.000 A 
ATOM      8  C   UNL     1       1.675   8.294  19.876  0.00  0.00    +0.000 A 
ATOM      9  C   UNL     1       0.767   9.315  20.389  0.00  0.00    +0.000 A 
ATOM     10  O   UNL     1       0.068   9.038  21.363  0.00  0.00    +0.000 OA
ATOM     11  N   UNL     1       0.703  10.505  19.681  0.00  0.00    +0.000 N 
ATOM     12  O   UNL     1       2.169   4.721  20.223  0.00  0.00    +0.000 OA
ATOM     13  C   UNL     1       2.183   4.102  18.925  0.00  0.00    +0.000 C 
ATOM     14  O   UNL     1       2.823   4.942  17.935  0.00  0.00    +0.000 OA
ENDROOT
BRANCH   1  15
ATOM     15  S   UNL     1       1.650  12.342  17.937  0.00  0.00    +0.000 S 
BRANCH  15  16
ATOM     16  C   UNL     1       2.557  13.244  19.245  0.00  0.00    +0.000 C 
BRANCH  16  24
ATOM     17  C   UNL     1       0.434  16.202  21.034  0.00  0.00    +0.000 C 
ATOM     18  C   UNL     1       0.657  15.520  19.679  0.00  0.00    +0.000 C 
ATOM     19  C   UNL     1      -0.338  16.030  18.621  0.00  0.00    +0.000 C 
ATOM     20  C   UNL     1      -0.056  17.475  18.201  0.00  0.00    +0.000 C 
ATOM     21  C   UNL     1       1.400  17.652  17.772  0.00  0.00    +0.000 C 
ATOM     22  C   UNL     1       2.375  17.092  18.809  0.00  0.00    +0.000 C 
ATOM     23  N   UNL     1       2.033  15.712  19.181  0.00  0.00    +0.000 N 
ATOM     24  C   UNL     1       2.913  14.681  18.814  0.00  0.00    +0.000 C 
ATOM     25  O   UNL     1       3.941  14.935  18.182  0.00  0.00    +0.000 OA
ENDBRANCH  16  24
ENDBRANCH  15  16
ENDBRANCH   1  15
BRANCH  11  26
ATOM     26  C   UNL     1      -0.389  11.393  20.101  0.00  0.00    +0.000 C 
BRANCH  26  27
ATOM     27  C   UNL     1      -1.628  11.228  19.233  0.00  0.00    +0.000 A 
ATOM     28  C   UNL     1      -1.673  10.303  18.153  0.00  0.00    +0.000 A 
ATOM     29  C   UNL     1      -2.825  10.178  17.358  0.00  0.00    +0.000 A 
ATOM     30  C   UNL     1      -3.902  10.981  17.659  0.00  0.00    +0.000 A 
ATOM     31  C   UNL     1      -3.860  11.880  18.696  0.00  0.00    +0.000 A 
ATOM     32  C   UNL     1      -2.750  12.025  19.495  0.00  0.00    +0.000 A 
ATOM     33  O   UNL     1      -5.022  12.568  18.842  0.00  0.00    +0.000 OA
ATOM     34  C   UNL     1      -5.849  11.885  17.881  0.00  0.00    +0.000 C 
ATOM     35  O   UNL     1      -5.109  10.981  17.031  0.00  0.00    +0.000 OA
ENDBRANCH  26  27
ENDBRANCH  11  26
TORSDOF 5
ENDMDL
