MODEL 1
REMARK VINA RESULT:      -7.2      0.000      0.000
REMARK  Name = 
REMARK  2 active torsions:
REMARK  status: ('A' for Active; 'I' for Inactive)
REMARK    1  A    between atoms: C_2  and  C_3
REMARK    2  A    between atoms: C_3  and  C_4
REMARK                            x       y       z     vdW  Elec       q    Type
REMARK                         _______ _______ _______ _____ _____    ______ ____
ROOT
ATOM      1  C   UNL     1       3.760   4.440  17.307  0.00  0.00    +0.000 C 
ATOM      2  C   UNL     1       4.068   5.748  17.277  0.00  0.00    +0.000 C 
ATOM      3  C   UNL     1       3.315   6.736  18.139  0.00  0.00    +0.000 C 
ATOM      4  C   UNL     1       2.753   6.110  19.424  0.00  0.00    +0.000 C 
ATOM      5  C   UNL     1       2.162   4.744  19.193  0.00  0.00    +0.000 A 
ATOM      6  C   UNL     1       1.156   4.242  20.033  0.00  0.00    +0.000 A 
ATOM      7  C   UNL     1       0.643   2.960  19.826  0.00  0.00    +0.000 A 
ATOM      8  C   UNL     1       1.135   2.166  18.790  0.00  0.00    +0.000 A 
ATOM      9  C   UNL     1       2.158   2.651  17.968  0.00  0.00    +0.000 A 
ATOM     10  C   UNL     1       2.677   3.936  18.163  0.00  0.00    +0.000 A 
ENDROOT
BRANCH   2  11
ATOM     11  C   UNL     1       5.116   6.316  16.342  0.00  0.00    +0.000 C 
BRANCH  11  12
ATOM     12  C   UNL     1       6.388   6.653  17.095  0.00  0.00    +0.000 C 
ATOM     13  N   UNL     1       6.877   7.870  17.114  0.00  0.00    +0.000 NA
ATOM     14  C   UNL     1       8.086   7.749  17.983  0.00  0.00    +0.000 C 
ATOM     15  C   UNL     1       7.929   6.426  18.736  0.00  0.00    +0.000 C 
ATOM     16  N   UNL     1       7.078   5.706  17.818  0.00  0.00    +0.000 N 
ATOM     17  H   UNL     1       6.534   4.936  18.192  0.00  0.00    +0.000 HD
ENDBRANCH  11  12
ENDBRANCH   2  11
TORSDOF 2
ENDMDL
MODEL 2
REMARK VINA RESULT:      -7.2      0.766      1.975
REMARK  Name = 
REMARK  2 active torsions:
REMARK  status: ('A' for Active; 'I' for Inactive)
REMARK    1  A    between atoms: C_2  and  C_3
REMARK    2  A    between atoms: C_3  and  C_4
REMARK                            x       y       z     vdW  Elec       q    Type
REMARK                         _______ _______ _______ _____ _____    ______ ____
ROOT
ATOM      1  C   UNL     1       3.554   5.444  17.840  0.00  0.00    +0.000 C 
ATOM      2  C   UNL     1       4.325   4.799  16.947  0.00  0.00    +0.000 C 
ATOM      3  C   UNL     1       4.258   3.293  16.821  0.00  0.00    +0.000 C 
ATOM      4  C   UNL     1       2.891   2.714  17.214  0.00  0.00    +0.000 C 
ATOM      5  C   UNL     1       2.316   3.369  18.443  0.00  0.00    +0.000 A 
ATOM      6  C   UNL     1       1.411   2.685  19.268  0.00  0.00    +0.000 A 
ATOM      7  C   UNL     1       0.861   3.318  20.383  0.00  0.00    +0.000 A 
ATOM      8  C   UNL     1       1.199   4.639  20.679  0.00  0.00    +0.000 A 
ATOM      9  C   UNL     1       2.079   5.335  19.843  0.00  0.00    +0.000 A 
ATOM     10  C   UNL     1       2.640   4.709  18.724  0.00  0.00    +0.000 A 
ENDROOT
BRANCH   2  11
ATOM     11  C   UNL     1       5.342   5.514  16.083  0.00  0.00    +0.000 C 
BRANCH  11  12
ATOM     12  C   UNL     1       6.452   6.106  16.929  0.00  0.00    +0.000 C 
ATOM     13  N   UNL     1       6.716   7.390  16.921  0.00  0.00    +0.000 NA
ATOM     14  C   UNL     1       7.833   7.526  17.904  0.00  0.00    +0.000 C 
ATOM     15  C   UNL     1       7.833   6.229  18.716  0.00  0.00    +0.000 C 
ATOM     16  N   UNL     1       7.220   5.329  17.768  0.00  0.00    +0.000 N 
ATOM     17  H   UNL     1       6.784   4.490  18.135  0.00  0.00    +0.000 HD
ENDBRANCH  11  12
ENDBRANCH   2  11
TORSDOF 2
ENDMDL
MODEL 3
REMARK VINA RESULT:      -7.1      0.726      2.156
REMARK  Name = 
REMARK  2 active torsions:
REMARK  status: ('A' for Active; 'I' for Inactive)
REMARK    1  A    between atoms: C_2  and  C_3
REMARK    2  A    between atoms: C_3  and  C_4
REMARK                            x       y       z     vdW  Elec       q    Type
REMARK                         _______ _______ _______ _____ _____    ______ ____
ROOT
ATOM      1  C   UNL     1       3.613   5.702  17.889  0.00  0.00    +0.000 C 
ATOM      2  C   UNL     1       4.365   5.096  16.953  0.00  0.00    +0.000 C 
ATOM      3  C   UNL     1       4.235   3.610  16.707  0.00  0.00    +0.000 C 
ATOM      4  C   UNL     1       2.841   3.061  17.044  0.00  0.00    +0.000 C 
ATOM      5  C   UNL     1       2.282   3.641  18.318  0.00  0.00    +0.000 A 
ATOM      6  C   UNL     1       1.341   2.933  19.080  0.00  0.00    +0.000 A 
ATOM      7  C   UNL     1       0.807   3.499  20.239  0.00  0.00    +0.000 A 
ATOM      8  C   UNL     1       1.198   4.777  20.640  0.00  0.00    +0.000 A 
ATOM      9  C   UNL     1       2.115   5.499  19.868  0.00  0.00    +0.000 A 
ATOM     10  C   UNL     1       2.660   4.939  18.706  0.00  0.00    +0.000 A 
ENDROOT
BRANCH   2  11
ATOM     11  C   UNL     1       5.420   5.832  16.154  0.00  0.00    +0.000 C 
BRANCH  11  12
ATOM     12  C   UNL     1       6.438   6.482  17.071  0.00  0.00    +0.000 C 
ATOM     13  N   UNL     1       7.178   5.776  17.891  0.00  0.00    +0.000 NA
ATOM     14  C   UNL     1       8.041   6.799  18.556  0.00  0.00    +0.000 C 
ATOM     15  C   UNL     1       7.943   8.054  17.686  0.00  0.00    +0.000 C 
ATOM     16  N   UNL     1       6.656   7.841  17.067  0.00  0.00    +0.000 N 
ATOM     17  H   UNL     1       6.470   8.328  16.197  0.00  0.00    +0.000 HD
ENDBRANCH  11  12
ENDBRANCH   2  11
TORSDOF 2
ENDMDL
MODEL 4
REMARK VINA RESULT:      -7.1      1.531      1.976
REMARK  Name = 
REMARK  2 active torsions:
REMARK  status: ('A' for Active; 'I' for Inactive)
REMARK    1  A    between atoms: C_2  and  C_3
REMARK    2  A    between atoms: C_3  and  C_4
REMARK                            x       y       z     vdW  Elec       q    Type
REMARK                         _______ _______ _______ _____ _____    ______ ____
ROOT
ATOM      1  C   UNL     1       4.537   3.579  18.820  0.00  0.00    +0.000 C 
ATOM      2  C   UNL     1       4.458   3.854  17.506  0.00  0.00    +0.000 C 
ATOM      3  C   UNL     1       3.114   3.931  16.817  0.00  0.00    +0.000 C 
ATOM      4  C   UNL     1       1.976   4.353  17.759  0.00  0.00    +0.000 C 
ATOM      5  C   UNL     1       2.066   3.691  19.110  0.00  0.00    +0.000 A 
ATOM      6  C   UNL     1       0.920   3.491  19.892  0.00  0.00    +0.000 A 
ATOM      7  C   UNL     1       1.025   2.908  21.157  0.00  0.00    +0.000 A 
ATOM      8  C   UNL     1       2.273   2.530  21.653  0.00  0.00    +0.000 A 
ATOM      9  C   UNL     1       3.423   2.754  20.888  0.00  0.00    +0.000 A 
ATOM     10  C   UNL     1       3.328   3.334  19.618  0.00  0.00    +0.000 A 
ENDROOT
BRANCH   2  11
ATOM     11  C   UNL     1       5.684   4.024  16.634  0.00  0.00    +0.000 C 
BRANCH  11  12
ATOM     12  C   UNL     1       6.577   5.129  17.165  0.00  0.00    +0.000 C 
ATOM     13  N   UNL     1       6.491   6.359  16.720  0.00  0.00    +0.000 NA
ATOM     14  C   UNL     1       7.509   7.097  17.528  0.00  0.00    +0.000 C 
ATOM     15  C   UNL     1       7.834   6.190  18.717  0.00  0.00    +0.000 C 
ATOM     16  N   UNL     1       7.503   4.900  18.158  0.00  0.00    +0.000 N 
ATOM     17  H   UNL     1       7.297   4.149  18.807  0.00  0.00    +0.000 HD
ENDBRANCH  11  12
ENDBRANCH   2  11
TORSDOF 2
ENDMDL
MODEL 5
REMARK VINA RESULT:      -7.1      2.696      3.348
REMARK  Name = 
REMARK  2 active torsions:
REMARK  status: ('A' for Active; 'I' for Inactive)
REMARK    1  A    between atoms: C_2  and  C_3
REMARK    2  A    between atoms: C_3  and  C_4
REMARK                            x       y       z     vdW  Elec       q    Type
REMARK                         _______ _______ _______ _____ _____    ______ ____
ROOT
ATOM      1  C   UNL     1       5.178   3.620  17.042  0.00  0.00    +0.000 C 
ATOM      2  C   UNL     1       5.716   4.728  16.502  0.00  0.00    +0.000 C 
ATOM      3  C   UNL     1       4.907   6.002  16.396  0.00  0.00    +0.000 C 
ATOM      4  C   UNL     1       3.827   6.124  17.481  0.00  0.00    +0.000 C 
ATOM      5  C   UNL     1       3.110   4.823  17.733  0.00  0.00    +0.000 A 
ATOM      6  C   UNL     1       1.800   4.807  18.235  0.00  0.00    +0.000 A 
ATOM      7  C   UNL     1       1.162   3.593  18.497  0.00  0.00    +0.000 A 
ATOM      8  C   UNL     1       1.827   2.388  18.271  0.00  0.00    +0.000 A 
ATOM      9  C   UNL     1       3.144   2.399  17.797  0.00  0.00    +0.000 A 
ATOM     10  C   UNL     1       3.791   3.610  17.527  0.00  0.00    +0.000 A 
ENDROOT
BRANCH   2  11
ATOM     11  C   UNL     1       7.110   4.752  15.911  0.00  0.00    +0.000 C 
BRANCH  11  12
ATOM     12  C   UNL     1       7.057   4.669  14.397  0.00  0.00    +0.000 C 
ATOM     13  N   UNL     1       7.792   5.446  13.638  0.00  0.00    +0.000 NA
ATOM     14  C   UNL     1       7.452   5.005  12.251  0.00  0.00    +0.000 C 
ATOM     15  C   UNL     1       6.772   3.642  12.403  0.00  0.00    +0.000 C 
ATOM     16  N   UNL     1       6.257   3.757  13.747  0.00  0.00    +0.000 N 
ATOM     17  H   UNL     1       6.053   2.897  14.243  0.00  0.00    +0.000 HD
ENDBRANCH  11  12
ENDBRANCH   2  11
TORSDOF 2
ENDMDL
MODEL 6
REMARK VINA RESULT:      -7.1      2.126      2.808
REMARK  Name = 
REMARK  2 active torsions:
REMARK  status: ('A' for Active; 'I' for Inactive)
REMARK    1  A    between atoms: C_2  and  C_3
REMARK    2  A    between atoms: C_3  and  C_4
REMARK                            x       y       z     vdW  Elec       q    Type
REMARK                         _______ _______ _______ _____ _____    ______ ____
ROOT
ATOM      1  C   UNL     1       5.015   3.733  19.119  0.00  0.00    +0.000 C 
ATOM      2  C   UNL     1       5.471   4.735  18.347  0.00  0.00    +0.000 C 
ATOM      3  C   UNL     1       4.574   5.900  17.990  0.00  0.00    +0.000 C 
ATOM      4  C   UNL     1       3.494   6.176  19.046  0.00  0.00    +0.000 C 
ATOM      5  C   UNL     1       2.871   4.913  19.583  0.00  0.00    +0.000 A 
ATOM      6  C   UNL     1       1.568   4.917  20.103  0.00  0.00    +0.000 A 
ATOM      7  C   UNL     1       1.018   3.746  20.628  0.00  0.00    +0.000 A 
ATOM      8  C   UNL     1       1.765   2.568  20.648  0.00  0.00    +0.000 A 
ATOM      9  C   UNL     1       3.075   2.566  20.156  0.00  0.00    +0.000 A 
ATOM     10  C   UNL     1       3.634   3.733  19.624  0.00  0.00    +0.000 A 
ENDROOT
BRANCH   2  11
ATOM     11  C   UNL     1       6.856   4.726  17.736  0.00  0.00    +0.000 C 
BRANCH  11  12
ATOM     12  C   UNL     1       6.786   4.500  16.238  0.00  0.00    +0.000 C 
ATOM     13  N   UNL     1       5.936   3.655  15.706  0.00  0.00    +0.000 NA
ATOM     14  C   UNL     1       6.189   3.779  14.239  0.00  0.00    +0.000 C 
ATOM     15  C   UNL     1       6.976   5.079  14.060  0.00  0.00    +0.000 C 
ATOM     16  N   UNL     1       7.593   5.191  15.361  0.00  0.00    +0.000 N 
ATOM     17  H   UNL     1       7.900   6.111  15.655  0.00  0.00    +0.000 HD
ENDBRANCH  11  12
ENDBRANCH   2  11
TORSDOF 2
ENDMDL
MODEL 7
REMARK VINA RESULT:      -7.0      1.435      1.865
REMARK  Name = 
REMARK  2 active torsions:
REMARK  status: ('A' for Active; 'I' for Inactive)
REMARK    1  A    between atoms: C_2  and  C_3
REMARK    2  A    between atoms: C_3  and  C_4
REMARK                            x       y       z     vdW  Elec       q    Type
REMARK                         _______ _______ _______ _____ _____    ______ ____
ROOT
ATOM      1  C   UNL     1       3.457   4.901  17.577  0.00  0.00    +0.000 C 
ATOM      2  C   UNL     1       3.646   6.225  17.715  0.00  0.00    +0.000 C 
ATOM      3  C   UNL     1       2.834   7.016  18.716  0.00  0.00    +0.000 C 
ATOM      4  C   UNL     1       2.372   6.178  19.917  0.00  0.00    +0.000 C 
ATOM      5  C   UNL     1       1.900   4.804  19.518  0.00  0.00    +0.000 A 
ATOM      6  C   UNL     1       0.970   4.105  20.302  0.00  0.00    +0.000 A 
ATOM      7  C   UNL     1       0.569   2.818  19.937  0.00  0.00    +0.000 A 
ATOM      8  C   UNL     1       1.098   2.217  18.795  0.00  0.00    +0.000 A 
ATOM      9  C   UNL     1       2.046   2.899  18.024  0.00  0.00    +0.000 A 
ATOM     10  C   UNL     1       2.452   4.190  18.380  0.00  0.00    +0.000 A 
ENDROOT
BRANCH   2  11
ATOM     11  C   UNL     1       4.607   7.006  16.844  0.00  0.00    +0.000 C 
BRANCH  11  12
ATOM     12  C   UNL     1       5.659   6.093  16.244  0.00  0.00    +0.000 C 
ATOM     13  N   UNL     1       6.629   5.589  16.967  0.00  0.00    +0.000 NA
ATOM     14  C   UNL     1       7.388   4.743  15.996  0.00  0.00    +0.000 C 
ATOM     15  C   UNL     1       6.457   4.548  14.797  0.00  0.00    +0.000 C 
ATOM     16  N   UNL     1       5.630   5.726  14.917  0.00  0.00    +0.000 N 
ATOM     17  H   UNL     1       4.720   5.704  14.472  0.00  0.00    +0.000 HD
ENDBRANCH  11  12
ENDBRANCH   2  11
TORSDOF 2
ENDMDL
MODEL 8
REMARK VINA RESULT:      -6.9      2.164      2.909
REMARK  Name = 
REMARK  2 active torsions:
REMARK  status: ('A' for Active; 'I' for Inactive)
REMARK    1  A    between atoms: C_2  and  C_3
REMARK    2  A    between atoms: C_3  and  C_4
REMARK                            x       y       z     vdW  Elec       q    Type
REMARK                         _______ _______ _______ _____ _____    ______ ____
ROOT
ATOM      1  C   UNL     1       3.168   5.115  17.755  0.00  0.00    +0.000 C 
ATOM      2  C   UNL     1       4.484   5.354  17.619  0.00  0.00    +0.000 C 
ATOM      3  C   UNL     1       5.471   4.819  18.632  0.00  0.00    +0.000 C 
ATOM      4  C   UNL     1       4.993   3.531  19.320  0.00  0.00    +0.000 C 
ATOM      5  C   UNL     1       3.530   3.575  19.679  0.00  0.00    +0.000 A 
ATOM      6  C   UNL     1       3.026   2.808  20.739  0.00  0.00    +0.000 A 
ATOM      7  C   UNL     1       1.662   2.832  21.037  0.00  0.00    +0.000 A 
ATOM      8  C   UNL     1       0.791   3.612  20.275  0.00  0.00    +0.000 A 
ATOM      9  C   UNL     1       1.286   4.357  19.198  0.00  0.00    +0.000 A 
ATOM     10  C   UNL     1       2.652   4.342  18.894  0.00  0.00    +0.000 A 
ENDROOT
BRANCH   2  11
ATOM     11  C   UNL     1       5.044   6.220  16.510  0.00  0.00    +0.000 C 
BRANCH  11  12
ATOM     12  C   UNL     1       5.788   5.381  15.490  0.00  0.00    +0.000 C 
ATOM     13  N   UNL     1       5.191   4.437  14.805  0.00  0.00    +0.000 NA
ATOM     14  C   UNL     1       6.271   3.909  13.918  0.00  0.00    +0.000 C 
ATOM     15  C   UNL     1       7.379   4.965  13.937  0.00  0.00    +0.000 C 
ATOM     16  N   UNL     1       7.122   5.587  15.214  0.00  0.00    +0.000 N 
ATOM     17  H   UNL     1       7.474   6.527  15.355  0.00  0.00    +0.000 HD
ENDBRANCH  11  12
ENDBRANCH   2  11
TORSDOF 2
ENDMDL
MODEL 9
REMARK VINA RESULT:      -6.9      0.262      1.003
REMARK  Name = 
REMARK  2 active torsions:
REMARK  status: ('A' for Active; 'I' for Inactive)
REMARK    1  A    between atoms: C_2  and  C_3
REMARK    2  A    between atoms: C_3  and  C_4
REMARK                            x       y       z     vdW  Elec       q    Type
REMARK                         _______ _______ _______ _____ _____    ______ ____
ROOT
ATOM      1  C   UNL     1       3.871   4.313  17.330  0.00  0.00    +0.000 C 
ATOM      2  C   UNL     1       4.156   5.626  17.265  0.00  0.00    +0.000 C 
ATOM      3  C   UNL     1       3.331   6.631  18.038  0.00  0.00    +0.000 C 
ATOM      4  C   UNL     1       2.703   6.045  19.311  0.00  0.00    +0.000 C 
ATOM      5  C   UNL     1       2.154   4.657  19.101  0.00  0.00    +0.000 A 
ATOM      6  C   UNL     1       1.108   4.168  19.898  0.00  0.00    +0.000 A 
ATOM      7  C   UNL     1       0.634   2.868  19.713  0.00  0.00    +0.000 A 
ATOM      8  C   UNL     1       1.204   2.044  18.743  0.00  0.00    +0.000 A 
ATOM      9  C   UNL     1       2.266   2.518  17.965  0.00  0.00    +0.000 A 
ATOM     10  C   UNL     1       2.747   3.821  18.139  0.00  0.00    +0.000 A 
ENDROOT
BRANCH   2  11
ATOM     11  C   UNL     1       5.248   6.178  16.374  0.00  0.00    +0.000 C 
BRANCH  11  12
ATOM     12  C   UNL     1       6.385   6.749  17.200  0.00  0.00    +0.000 C 
ATOM     13  N   UNL     1       7.128   5.990  17.968  0.00  0.00    +0.000 NA
ATOM     14  C   UNL     1       8.120   6.944  18.550  0.00  0.00    +0.000 C 
ATOM     15  C   UNL     1       8.055   8.198  17.676  0.00  0.00    +0.000 C 
ATOM     16  N   UNL     1       6.710   8.086  17.162  0.00  0.00    +0.000 N 
ATOM     17  H   UNL     1       6.495   8.582  16.304  0.00  0.00    +0.000 HD
ENDBRANCH  11  12
ENDBRANCH   2  11
TORSDOF 2
ENDMDL
