MODEL 1
REMARK VINA RESULT:      -6.3      0.000      0.000
REMARK  Name = 
REMARK  6 active torsions:
REMARK  status: ('A' for Active; 'I' for Inactive)
REMARK    1  A    between atoms: C_1  and  C_2
REMARK    2  A    between atoms: C_2  and  C_3
REMARK    3  A    between atoms: N_5  and  C_6
REMARK    4  A    between atoms: C_6  and  C_7
REMARK    5  A    between atoms: C_7  and  S_8
REMARK    6  A    between atoms: S_8  and  N_9
REMARK                            x       y       z     vdW  Elec       q    Type
REMARK                         _______ _______ _______ _____ _____    ______ ____
ROOT
ATOM      1  C   UNL     1       4.155   3.960  19.371  0.00  0.00    +0.000 C 
ATOM      2  O   UNL     1       4.912   2.993  19.471  0.00  0.00    +0.000 OA
ATOM      3  N   UNL     1       4.634   5.231  19.117  0.00  0.00    +0.000 N 
ATOM      4  H   UNL     1       3.974   5.995  19.043  0.00  0.00    +0.000 HD
ENDROOT
BRANCH   1   6
ATOM      5  C   UNL     1       1.904   4.397  18.227  0.00  0.00    +0.000 C 
ATOM      6  C   UNL     1       2.585   3.873  19.497  0.00  0.00    +0.000 C 
ATOM      7  C   UNL     1       2.053   2.467  19.927  0.00  0.00    +0.000 C 
ATOM      8  C   UNL     1       1.064   3.160  20.876  0.00  0.00    +0.000 C 
ATOM      9  C   UNL     1       1.951   4.413  20.820  0.00  0.00    +0.000 C 
ENDBRANCH   1   6
BRANCH   3  10
ATOM     10  C   UNL     1       6.058   5.523  19.011  0.00  0.00    +0.000 C 
BRANCH  10  11
ATOM     11  C   UNL     1       6.386   6.080  17.645  0.00  0.00    +0.000 C 
BRANCH  11  12
ATOM     12  S   UNL     1       7.186   4.849  16.636  0.00  0.00    +0.000 S 
ATOM     13  O   UNL     1       7.410   5.384  15.314  0.00  0.00    +0.000 OA
ATOM     14  O   UNL     1       8.209   4.170  17.391  0.00  0.00    +0.000 OA
BRANCH  12  15
ATOM     15  N   UNL     1       5.936   3.740  16.465  0.00  0.00    +0.000 NA
ATOM     16  H   UNL     1       5.937   3.338  15.528  0.00  0.00    +0.000 HD
ATOM     17  H   UNL     1       5.975   3.042  17.215  0.00  0.00    +0.000 HD
ENDBRANCH  12  15
ENDBRANCH  11  12
ENDBRANCH  10  11
ENDBRANCH   3  10
TORSDOF 5
ENDMDL
MODEL 2
REMARK VINA RESULT:      -6.2      1.005      1.178
REMARK  Name = 
REMARK  6 active torsions:
REMARK  status: ('A' for Active; 'I' for Inactive)
REMARK    1  A    between atoms: C_1  and  C_2
REMARK    2  A    between atoms: C_2  and  C_3
REMARK    3  A    between atoms: N_5  and  C_6
REMARK    4  A    between atoms: C_6  and  C_7
REMARK    5  A    between atoms: C_7  and  S_8
REMARK    6  A    between atoms: S_8  and  N_9
REMARK                            x       y       z     vdW  Elec       q    Type
REMARK                         _______ _______ _______ _____ _____    ______ ____
ROOT
ATOM      1  C   UNL     1       4.216   4.156  19.196  0.00  0.00    +0.000 C 
ATOM      2  O   UNL     1       5.039   3.286  19.483  0.00  0.00    +0.000 OA
ATOM      3  N   UNL     1       4.607   5.402  18.745  0.00  0.00    +0.000 N 
ATOM      4  H   UNL     1       3.894   6.085  18.520  0.00  0.00    +0.000 HD
ENDROOT
BRANCH   1   6
ATOM      5  C   UNL     1       2.011   4.057  17.894  0.00  0.00    +0.000 C 
ATOM      6  C   UNL     1       2.654   3.959  19.283  0.00  0.00    +0.000 C 
ATOM      7  C   UNL     1       2.210   2.678  20.062  0.00  0.00    +0.000 C 
ATOM      8  C   UNL     1       1.114   3.506  20.748  0.00  0.00    +0.000 C 
ATOM      9  C   UNL     1       1.899   4.774  20.384  0.00  0.00    +0.000 C 
ENDBRANCH   1   6
BRANCH   3  10
ATOM     10  C   UNL     1       6.008   5.790  18.637  0.00  0.00    +0.000 C 
BRANCH  10  11
ATOM     11  C   UNL     1       6.325   6.248  17.233  0.00  0.00    +0.000 C 
BRANCH  11  12
ATOM     12  S   UNL     1       6.872   4.881  16.230  0.00  0.00    +0.000 S 
ATOM     13  O   UNL     1       5.809   3.910  16.121  0.00  0.00    +0.000 OA
ATOM     14  O   UNL     1       7.616   5.360  15.092  0.00  0.00    +0.000 OA
BRANCH  12  15
ATOM     15  N   UNL     1       8.007   4.189  17.256  0.00  0.00    +0.000 NA
ATOM     16  H   UNL     1       7.613   4.046  18.186  0.00  0.00    +0.000 HD
ATOM     17  H   UNL     1       8.395   3.339  16.836  0.00  0.00    +0.000 HD
ENDBRANCH  12  15
ENDBRANCH  11  12
ENDBRANCH  10  11
ENDBRANCH   3  10
TORSDOF 5
ENDMDL
MODEL 3
REMARK VINA RESULT:      -6.1      0.992      1.271
REMARK  Name = 
REMARK  6 active torsions:
REMARK  status: ('A' for Active; 'I' for Inactive)
REMARK    1  A    between atoms: C_1  and  C_2
REMARK    2  A    between atoms: C_2  and  C_3
REMARK    3  A    between atoms: N_5  and  C_6
REMARK    4  A    between atoms: C_6  and  C_7
REMARK    5  A    between atoms: C_7  and  S_8
REMARK    6  A    between atoms: S_8  and  N_9
REMARK                            x       y       z     vdW  Elec       q    Type
REMARK                         _______ _______ _______ _____ _____    ______ ____
ROOT
ATOM      1  C   UNL     1       4.311   3.927  18.892  0.00  0.00    +0.000 C 
ATOM      2  O   UNL     1       5.352   3.586  19.456  0.00  0.00    +0.000 OA
ATOM      3  N   UNL     1       4.248   5.069  18.117  0.00  0.00    +0.000 N 
ATOM      4  H   UNL     1       3.370   5.309  17.673  0.00  0.00    +0.000 HD
ENDROOT
BRANCH   1   6
ATOM      5  C   UNL     1       3.073   1.793  18.199  0.00  0.00    +0.000 C 
ATOM      6  C   UNL     1       2.960   3.117  18.964  0.00  0.00    +0.000 C 
ATOM      7  C   UNL     1       2.400   2.929  20.412  0.00  0.00    +0.000 C 
ATOM      8  C   UNL     1       0.993   3.241  19.881  0.00  0.00    +0.000 C 
ATOM      9  C   UNL     1       1.645   3.908  18.661  0.00  0.00    +0.000 C 
ENDBRANCH   1   6
BRANCH   3  10
ATOM     10  C   UNL     1       5.381   5.973  17.964  0.00  0.00    +0.000 C 
BRANCH  10  11
ATOM     11  C   UNL     1       5.771   6.092  16.509  0.00  0.00    +0.000 C 
BRANCH  11  12
ATOM     12  S   UNL     1       6.997   4.873  16.081  0.00  0.00    +0.000 S 
ATOM     13  O   UNL     1       7.570   5.198  14.797  0.00  0.00    +0.000 OA
ATOM     14  O   UNL     1       7.796   4.540  17.234  0.00  0.00    +0.000 OA
BRANCH  12  15
ATOM     15  N   UNL     1       6.014   3.539  15.809  0.00  0.00    +0.000 NA
ATOM     16  H   UNL     1       5.249   3.512  16.483  0.00  0.00    +0.000 HD
ATOM     17  H   UNL     1       5.707   3.517  14.832  0.00  0.00    +0.000 HD
ENDBRANCH  12  15
ENDBRANCH  11  12
ENDBRANCH  10  11
ENDBRANCH   3  10
TORSDOF 5
ENDMDL
MODEL 4
REMARK VINA RESULT:      -6.1      3.118      5.342
REMARK  Name = 
REMARK  6 active torsions:
REMARK  status: ('A' for Active; 'I' for Inactive)
REMARK    1  A    between atoms: C_1  and  C_2
REMARK    2  A    between atoms: C_2  and  C_3
REMARK    3  A    between atoms: N_5  and  C_6
REMARK    4  A    between atoms: C_6  and  C_7
REMARK    5  A    between atoms: C_7  and  S_8
REMARK    6  A    between atoms: S_8  and  N_9
REMARK                            x       y       z     vdW  Elec       q    Type
REMARK                         _______ _______ _______ _____ _____    ______ ____
ROOT
ATOM      1  C   UNL     1       5.322   4.808  18.829  0.00  0.00    +0.000 C 
ATOM      2  O   UNL     1       4.563   5.484  19.524  0.00  0.00    +0.000 OA
ATOM      3  N   UNL     1       5.252   3.428  18.810  0.00  0.00    +0.000 N 
ATOM      4  H   UNL     1       5.896   2.914  18.223  0.00  0.00    +0.000 HD
ENDROOT
BRANCH   1   6
ATOM      5  C   UNL     1       6.809   4.417  16.779  0.00  0.00    +0.000 C 
ATOM      6  C   UNL     1       6.428   5.412  17.881  0.00  0.00    +0.000 C 
ATOM      7  C   UNL     1       6.086   6.830  17.317  0.00  0.00    +0.000 C 
ATOM      8  C   UNL     1       7.537   7.258  17.584  0.00  0.00    +0.000 C 
ATOM      9  C   UNL     1       7.659   6.088  18.571  0.00  0.00    +0.000 C 
ENDBRANCH   1   6
BRANCH   3  10
ATOM     10  C   UNL     1       4.323   2.682  19.651  0.00  0.00    +0.000 C 
BRANCH  10  11
ATOM     11  C   UNL     1       3.373   1.870  18.801  0.00  0.00    +0.000 C 
BRANCH  11  12
ATOM     12  S   UNL     1       2.012   2.874  18.240  0.00  0.00    +0.000 S 
ATOM     13  O   UNL     1       2.391   3.564  17.030  0.00  0.00    +0.000 OA
ATOM     14  O   UNL     1       0.770   2.156  18.376  0.00  0.00    +0.000 OA
BRANCH  12  15
ATOM     15  N   UNL     1       1.991   4.050  19.438  0.00  0.00    +0.000 NA
ATOM     16  H   UNL     1       1.071   4.100  19.877  0.00  0.00    +0.000 HD
ATOM     17  H   UNL     1       2.758   3.898  20.100  0.00  0.00    +0.000 HD
ENDBRANCH  12  15
ENDBRANCH  11  12
ENDBRANCH  10  11
ENDBRANCH   3  10
TORSDOF 5
ENDMDL
MODEL 5
REMARK VINA RESULT:      -6.1      0.881      1.529
REMARK  Name = 
REMARK  6 active torsions:
REMARK  status: ('A' for Active; 'I' for Inactive)
REMARK    1  A    between atoms: C_1  and  C_2
REMARK    2  A    between atoms: C_2  and  C_3
REMARK    3  A    between atoms: N_5  and  C_6
REMARK    4  A    between atoms: C_6  and  C_7
REMARK    5  A    between atoms: C_7  and  S_8
REMARK    6  A    between atoms: S_8  and  N_9
REMARK                            x       y       z     vdW  Elec       q    Type
REMARK                         _______ _______ _______ _____ _____    ______ ____
ROOT
ATOM      1  C   UNL     1       4.052   3.593  19.641  0.00  0.00    +0.000 C 
ATOM      2  O   UNL     1       5.004   2.821  19.521  0.00  0.00    +0.000 OA
ATOM      3  N   UNL     1       4.203   4.958  19.497  0.00  0.00    +0.000 N 
ATOM      4  H   UNL     1       3.391   5.554  19.604  0.00  0.00    +0.000 HD
ENDROOT
BRANCH   1   6
ATOM      5  C   UNL     1       2.356   2.953  21.453  0.00  0.00    +0.000 C 
ATOM      6  C   UNL     1       2.574   3.134  19.946  0.00  0.00    +0.000 C 
ATOM      7  C   UNL     1       1.475   4.028  19.284  0.00  0.00    +0.000 C 
ATOM      8  C   UNL     1       0.702   2.755  18.908  0.00  0.00    +0.000 C 
ATOM      9  C   UNL     1       2.005   1.961  19.083  0.00  0.00    +0.000 C 
ENDBRANCH   1   6
BRANCH   3  10
ATOM     10  C   UNL     1       5.500   5.580  19.256  0.00  0.00    +0.000 C 
BRANCH  10  11
ATOM     11  C   UNL     1       5.662   5.917  17.792  0.00  0.00    +0.000 C 
BRANCH  11  12
ATOM     12  S   UNL     1       6.952   4.934  17.055  0.00  0.00    +0.000 S 
ATOM     13  O   UNL     1       7.435   5.590  15.864  0.00  0.00    +0.000 OA
ATOM     14  O   UNL     1       7.829   4.414  18.074  0.00  0.00    +0.000 OA
BRANCH  12  15
ATOM     15  N   UNL     1       6.057   3.620  16.513  0.00  0.00    +0.000 NA
ATOM     16  H   UNL     1       5.338   3.921  15.856  0.00  0.00    +0.000 HD
ATOM     17  H   UNL     1       6.679   2.895  16.143  0.00  0.00    +0.000 HD
ENDBRANCH  12  15
ENDBRANCH  11  12
ENDBRANCH  10  11
ENDBRANCH   3  10
TORSDOF 5
ENDMDL
MODEL 6
REMARK VINA RESULT:      -6.1      1.463      1.849
REMARK  Name = 
REMARK  6 active torsions:
REMARK  status: ('A' for Active; 'I' for Inactive)
REMARK    1  A    between atoms: C_1  and  C_2
REMARK    2  A    between atoms: C_2  and  C_3
REMARK    3  A    between atoms: N_5  and  C_6
REMARK    4  A    between atoms: C_6  and  C_7
REMARK    5  A    between atoms: C_7  and  S_8
REMARK    6  A    between atoms: S_8  and  N_9
REMARK                            x       y       z     vdW  Elec       q    Type
REMARK                         _______ _______ _______ _____ _____    ______ ____
ROOT
ATOM      1  C   UNL     1       3.801   4.503  19.332  0.00  0.00    +0.000 C 
ATOM      2  O   UNL     1       3.408   5.572  19.800  0.00  0.00    +0.000 OA
ATOM      3  N   UNL     1       5.132   4.290  19.032  0.00  0.00    +0.000 N 
ATOM      4  H   UNL     1       5.409   3.394  18.649  0.00  0.00    +0.000 HD
ENDROOT
BRANCH   1   6
ATOM      5  C   UNL     1       3.678   2.076  18.518  0.00  0.00    +0.000 C 
ATOM      6  C   UNL     1       2.866   3.266  19.043  0.00  0.00    +0.000 C 
ATOM      7  C   UNL     1       1.931   2.876  20.234  0.00  0.00    +0.000 C 
ATOM      8  C   UNL     1       0.783   2.675  19.233  0.00  0.00    +0.000 C 
ATOM      9  C   UNL     1       1.559   3.542  18.231  0.00  0.00    +0.000 C 
ENDBRANCH   1   6
BRANCH   3  10
ATOM     10  C   UNL     1       6.144   5.327  19.189  0.00  0.00    +0.000 C 
BRANCH  10  11
ATOM     11  C   UNL     1       6.305   6.110  17.906  0.00  0.00    +0.000 C 
BRANCH  11  12
ATOM     12  S   UNL     1       6.837   5.048  16.579  0.00  0.00    +0.000 S 
ATOM     13  O   UNL     1       5.779   4.121  16.252  0.00  0.00    +0.000 OA
ATOM     14  O   UNL     1       7.548   5.808  15.582  0.00  0.00    +0.000 OA
BRANCH  12  15
ATOM     15  N   UNL     1       8.003   4.135  17.372  0.00  0.00    +0.000 NA
ATOM     16  H   UNL     1       7.861   4.168  18.382  0.00  0.00    +0.000 HD
ATOM     17  H   UNL     1       8.033   3.186  16.989  0.00  0.00    +0.000 HD
ENDBRANCH  12  15
ENDBRANCH  11  12
ENDBRANCH  10  11
ENDBRANCH   3  10
TORSDOF 5
ENDMDL
MODEL 7
REMARK VINA RESULT:      -6.0      1.315      1.469
REMARK  Name = 
REMARK  6 active torsions:
REMARK  status: ('A' for Active; 'I' for Inactive)
REMARK    1  A    between atoms: C_1  and  C_2
REMARK    2  A    between atoms: C_2  and  C_3
REMARK    3  A    between atoms: N_5  and  C_6
REMARK    4  A    between atoms: C_6  and  C_7
REMARK    5  A    between atoms: C_7  and  S_8
REMARK    6  A    between atoms: S_8  and  N_9
REMARK                            x       y       z     vdW  Elec       q    Type
REMARK                         _______ _______ _______ _____ _____    ______ ____
ROOT
ATOM      1  C   UNL     1       4.016   3.828  19.278  0.00  0.00    +0.000 C 
ATOM      2  O   UNL     1       5.165   3.483  19.558  0.00  0.00    +0.000 OA
ATOM      3  N   UNL     1       3.764   4.936  18.493  0.00  0.00    +0.000 N 
ATOM      4  H   UNL     1       2.803   5.181  18.289  0.00  0.00    +0.000 HD
ENDROOT
BRANCH   1   6
ATOM      5  C   UNL     1       2.374   1.926  18.779  0.00  0.00    +0.000 C 
ATOM      6  C   UNL     1       2.722   3.060  19.750  0.00  0.00    +0.000 C 
ATOM      7  C   UNL     1       2.764   2.585  21.239  0.00  0.00    +0.000 C 
ATOM      8  C   UNL     1       1.307   3.042  21.399  0.00  0.00    +0.000 C 
ATOM      9  C   UNL     1       1.493   3.934  20.163  0.00  0.00    +0.000 C 
ENDBRANCH   1   6
BRANCH   3  10
ATOM     10  C   UNL     1       4.828   5.801  17.997  0.00  0.00    +0.000 C 
BRANCH  10  11
ATOM     11  C   UNL     1       5.261   5.369  16.615  0.00  0.00    +0.000 C 
BRANCH  11  12
ATOM     12  S   UNL     1       7.037   5.359  16.483  0.00  0.00    +0.000 S 
ATOM     13  O   UNL     1       7.428   4.602  15.318  0.00  0.00    +0.000 OA
ATOM     14  O   UNL     1       7.570   6.664  16.785  0.00  0.00    +0.000 OA
BRANCH  12  15
ATOM     15  N   UNL     1       7.431   4.392  17.799  0.00  0.00    +0.000 NA
ATOM     16  H   UNL     1       7.046   4.781  18.660  0.00  0.00    +0.000 HD
ATOM     17  H   UNL     1       7.154   3.422  17.623  0.00  0.00    +0.000 HD
ENDBRANCH  12  15
ENDBRANCH  11  12
ENDBRANCH  10  11
ENDBRANCH   3  10
TORSDOF 5
ENDMDL
MODEL 8
REMARK VINA RESULT:      -6.0      1.366      1.870
REMARK  Name = 
REMARK  6 active torsions:
REMARK  status: ('A' for Active; 'I' for Inactive)
REMARK    1  A    between atoms: C_1  and  C_2
REMARK    2  A    between atoms: C_2  and  C_3
REMARK    3  A    between atoms: N_5  and  C_6
REMARK    4  A    between atoms: C_6  and  C_7
REMARK    5  A    between atoms: C_7  and  S_8
REMARK    6  A    between atoms: S_8  and  N_9
REMARK                            x       y       z     vdW  Elec       q    Type
REMARK                         _______ _______ _______ _____ _____    ______ ____
ROOT
ATOM      1  C   UNL     1       3.989   3.895  19.255  0.00  0.00    +0.000 C 
ATOM      2  O   UNL     1       5.127   3.513  19.529  0.00  0.00    +0.000 OA
ATOM      3  N   UNL     1       3.769   5.028  18.496  0.00  0.00    +0.000 N 
ATOM      4  H   UNL     1       2.815   5.303  18.295  0.00  0.00    +0.000 HD
ENDROOT
BRANCH   1   6
ATOM      5  C   UNL     1       2.717   2.815  21.200  0.00  0.00    +0.000 C 
ATOM      6  C   UNL     1       2.673   3.150  19.704  0.00  0.00    +0.000 C 
ATOM      7  C   UNL     1       1.352   3.876  19.290  0.00  0.00    +0.000 C 
ATOM      8  C   UNL     1       0.760   2.517  18.890  0.00  0.00    +0.000 C 
ATOM      9  C   UNL     1       2.190   1.964  18.807  0.00  0.00    +0.000 C 
ENDBRANCH   1   6
BRANCH   3  10
ATOM     10  C   UNL     1       4.856   5.875  18.023  0.00  0.00    +0.000 C 
BRANCH  10  11
ATOM     11  C   UNL     1       5.274   5.473  16.627  0.00  0.00    +0.000 C 
BRANCH  11  12
ATOM     12  S   UNL     1       7.048   5.387  16.498  0.00  0.00    +0.000 S 
ATOM     13  O   UNL     1       7.408   4.615  15.333  0.00  0.00    +0.000 OA
ATOM     14  O   UNL     1       7.636   6.667  16.802  0.00  0.00    +0.000 OA
BRANCH  12  15
ATOM     15  N   UNL     1       7.398   4.403  17.813  0.00  0.00    +0.000 NA
ATOM     16  H   UNL     1       7.112   3.441  17.630  0.00  0.00    +0.000 HD
ATOM     17  H   UNL     1       8.384   4.499  18.077  0.00  0.00    +0.000 HD
ENDBRANCH  12  15
ENDBRANCH  11  12
ENDBRANCH  10  11
ENDBRANCH   3  10
TORSDOF 5
ENDMDL
MODEL 9
REMARK VINA RESULT:      -6.0      1.330      1.492
REMARK  Name = 
REMARK  6 active torsions:
REMARK  status: ('A' for Active; 'I' for Inactive)
REMARK    1  A    between atoms: C_1  and  C_2
REMARK    2  A    between atoms: C_2  and  C_3
REMARK    3  A    between atoms: N_5  and  C_6
REMARK    4  A    between atoms: C_6  and  C_7
REMARK    5  A    between atoms: C_7  and  S_8
REMARK    6  A    between atoms: S_8  and  N_9
REMARK                            x       y       z     vdW  Elec       q    Type
REMARK                         _______ _______ _______ _____ _____    ______ ____
ROOT
ATOM      1  C   UNL     1       2.826   3.952  18.072  0.00  0.00    +0.000 C 
ATOM      2  O   UNL     1       2.863   3.405  16.969  0.00  0.00    +0.000 OA
ATOM      3  N   UNL     1       3.518   5.120  18.325  0.00  0.00    +0.000 N 
ATOM      4  H   UNL     1       3.457   5.534  19.247  0.00  0.00    +0.000 HD
ENDROOT
BRANCH   1   6
ATOM      5  C   UNL     1       0.869   2.481  18.830  0.00  0.00    +0.000 C 
ATOM      6  C   UNL     1       1.991   3.415  19.298  0.00  0.00    +0.000 C 
ATOM      7  C   UNL     1       2.857   2.790  20.440  0.00  0.00    +0.000 C 
ATOM      8  C   UNL     1       1.975   3.512  21.469  0.00  0.00    +0.000 C 
ATOM      9  C   UNL     1       1.530   4.471  20.355  0.00  0.00    +0.000 C 
ENDBRANCH   1   6
BRANCH   3  10
ATOM     10  C   UNL     1       4.380   5.748  17.331  0.00  0.00    +0.000 C 
BRANCH  10  11
ATOM     11  C   UNL     1       5.821   5.719  17.785  0.00  0.00    +0.000 C 
BRANCH  11  12
ATOM     12  S   UNL     1       6.841   4.866  16.599  0.00  0.00    +0.000 S 
ATOM     13  O   UNL     1       6.887   5.625  15.372  0.00  0.00    +0.000 OA
ATOM     14  O   UNL     1       8.020   4.339  17.239  0.00  0.00    +0.000 OA
BRANCH  12  15
ATOM     15  N   UNL     1       5.871   3.536  16.268  0.00  0.00    +0.000 NA
ATOM     16  H   UNL     1       5.689   3.463  15.267  0.00  0.00    +0.000 HD
ATOM     17  H   UNL     1       6.276   2.689  16.678  0.00  0.00    +0.000 HD
ENDBRANCH  12  15
ENDBRANCH  11  12
ENDBRANCH  10  11
ENDBRANCH   3  10
TORSDOF 5
ENDMDL
