MODEL 1
REMARK VINA RESULT:      -6.3      0.000      0.000
REMARK  Name = 
REMARK  9 active torsions:
REMARK  status: ('A' for Active; 'I' for Inactive)
REMARK    1  A    between atoms: C_1  and  S_2
REMARK    2  A    between atoms: S_2  and  O_5
REMARK    3  A    between atoms: O_5  and  C_6
REMARK    4  A    between atoms: C_6  and  C_7
REMARK    5  A    between atoms: C_7  and  C_8
REMARK    6  A    between atoms: C_9  and  O_10
REMARK    7  A    between atoms: O_10  and  S_11
REMARK    8  A    between atoms: S_11  and  C_12
REMARK    9  A    between atoms: C_23  and  C_24
REMARK                            x       y       z     vdW  Elec       q    Type
REMARK                         _______ _______ _______ _____ _____    ______ ____
ROOT
ATOM      1  C   UNL     1      -2.220  12.168  21.188  0.00  0.00    +0.000 A 
ATOM      2  C   UNL     1      -1.691  12.298  22.475  0.00  0.00    +0.000 A 
ATOM      3  N   UNL     1      -0.800  11.453  23.008  0.00  0.00    +0.000 NA
ATOM      4  C   UNL     1      -0.205  10.565  22.220  0.00  0.00    +0.000 A 
ATOM      5  C   UNL     1       0.721   9.725  22.827  0.00  0.00    +0.000 A 
ATOM      6  C   UNL     1       1.424   8.765  22.105  0.00  0.00    +0.000 A 
ATOM      7  C   UNL     1       1.251   8.703  20.734  0.00  0.00    +0.000 A 
ATOM      8 CL   UNL     1       2.095   7.518  19.817  0.00  0.00    +0.000 Cl
ATOM      9  C   UNL     1       0.360   9.571  20.102  0.00  0.00    +0.000 A 
ATOM     10  C   UNL     1      -0.471  10.459  20.838  0.00  0.00    +0.000 A 
ATOM     11  C   UNL     1      -1.570  11.234  20.308  0.00  0.00    +0.000 A 
ENDROOT
BRANCH  11  12
ATOM     12  C   UNL     1      -2.026  11.056  18.873  0.00  0.00    +0.000 A 
ATOM     13  C   UNL     1      -2.845   9.954  18.530  0.00  0.00    +0.000 A 
ATOM     14  C   UNL     1      -3.204   9.663  17.206  0.00  0.00    +0.000 A 
ATOM     15  C   UNL     1      -2.885  10.551  16.191  0.00  0.00    +0.000 A 
ATOM     16  C   UNL     1      -2.147  11.689  16.493  0.00  0.00    +0.000 A 
ATOM     17  C   UNL     1      -1.658  11.901  17.794  0.00  0.00    +0.000 A 
ATOM     18 CL   UNL     1      -0.509  13.194  17.938  0.00  0.00    +0.000 Cl
ENDBRANCH  11  12
BRANCH   1  19
ATOM     19  C   UNL     1      -3.384  13.033  20.726  0.00  0.00    +0.000 C 
BRANCH  19  20
ATOM     20  C   UNL     1      -4.826  12.654  21.076  0.00  0.00    +0.000 C 
BRANCH  20  21
ATOM     21  O   UNL     1      -5.387  12.011  19.931  0.00  0.00    +0.000 OA
BRANCH  21  23
ATOM     22  C   UNL     1      -6.740  10.011  19.075  0.00  0.00    +0.000 C 
ATOM     23  S   UNL     1      -6.925  11.498  20.035  0.00  0.00    +0.000 S 
ATOM     24  O   UNL     1      -7.775  12.421  19.315  0.00  0.00    +0.000 OA
ATOM     25  O   UNL     1      -7.192  11.128  21.413  0.00  0.00    +0.000 OA
ENDBRANCH  21  23
ENDBRANCH  20  21
ENDBRANCH  19  20
ENDBRANCH   1  19
BRANCH   2  26
ATOM     26  O   UNL     1      -2.116  13.318  23.287  0.00  0.00    +0.000 OA
BRANCH  26  27
ATOM     27  S   UNL     1      -1.198  14.661  23.478  0.00  0.00    +0.000 S 
ATOM     28  C   UNL     1      -2.403  15.880  22.983  0.00  0.00    +0.000 C 
ATOM     29  O   UNL     1      -0.829  14.862  24.866  0.00  0.00    +0.000 OA
ATOM     30  O   UNL     1      -0.167  14.637  22.457  0.00  0.00    +0.000 OA
ENDBRANCH  26  27
ENDBRANCH   2  26
TORSDOF 7
ENDMDL
MODEL 2
REMARK VINA RESULT:      -6.2      1.028      1.435
REMARK  Name = 
REMARK  9 active torsions:
REMARK  status: ('A' for Active; 'I' for Inactive)
REMARK    1  A    between atoms: C_1  and  S_2
REMARK    2  A    between atoms: S_2  and  O_5
REMARK    3  A    between atoms: O_5  and  C_6
REMARK    4  A    between atoms: C_6  and  C_7
REMARK    5  A    between atoms: C_7  and  C_8
REMARK    6  A    between atoms: C_9  and  O_10
REMARK    7  A    between atoms: O_10  and  S_11
REMARK    8  A    between atoms: S_11  and  C_12
REMARK    9  A    between atoms: C_23  and  C_24
REMARK                            x       y       z     vdW  Elec       q    Type
REMARK                         _______ _______ _______ _____ _____    ______ ____
ROOT
ATOM      1  C   UNL     1      -2.145  12.235  21.203  0.00  0.00    +0.000 A 
ATOM      2  C   UNL     1      -1.643  12.343  22.503  0.00  0.00    +0.000 A 
ATOM      3  N   UNL     1      -0.792  11.467  23.052  0.00  0.00    +0.000 NA
ATOM      4  C   UNL     1      -0.208  10.563  22.273  0.00  0.00    +0.000 A 
ATOM      5  C   UNL     1       0.675   9.691  22.898  0.00  0.00    +0.000 A 
ATOM      6  C   UNL     1       1.363   8.712  22.188  0.00  0.00    +0.000 A 
ATOM      7  C   UNL     1       1.221   8.661  20.813  0.00  0.00    +0.000 A 
ATOM      8 CL   UNL     1       2.047   7.453  19.910  0.00  0.00    +0.000 Cl
ATOM      9  C   UNL     1       0.374   9.560  20.165  0.00  0.00    +0.000 A 
ATOM     10  C   UNL     1      -0.445  10.472  20.886  0.00  0.00    +0.000 A 
ATOM     11  C   UNL     1      -1.505  11.285  20.334  0.00  0.00    +0.000 A 
ENDROOT
BRANCH  11  12
ATOM     12  C   UNL     1      -1.933  11.127  18.887  0.00  0.00    +0.000 A 
ATOM     13  C   UNL     1      -2.725  10.017  18.508  0.00  0.00    +0.000 A 
ATOM     14  C   UNL     1      -3.055   9.747  17.172  0.00  0.00    +0.000 A 
ATOM     15  C   UNL     1      -2.736  10.661  16.182  0.00  0.00    +0.000 A 
ATOM     16  C   UNL     1      -2.025  11.807  16.519  0.00  0.00    +0.000 A 
ATOM     17  C   UNL     1      -1.563  12.001  17.832  0.00  0.00    +0.000 A 
ATOM     18 CL   UNL     1      -0.442  13.312  18.023  0.00  0.00    +0.000 Cl
ENDBRANCH  11  12
BRANCH   1  19
ATOM     19  C   UNL     1      -3.269  13.139  20.718  0.00  0.00    +0.000 C 
BRANCH  19  20
ATOM     20  C   UNL     1      -4.698  12.605  20.581  0.00  0.00    +0.000 C 
BRANCH  20  21
ATOM     21  O   UNL     1      -5.165  12.299  21.896  0.00  0.00    +0.000 OA
BRANCH  21  23
ATOM     22  C   UNL     1      -6.455  13.247  23.896  0.00  0.00    +0.000 C 
ATOM     23  S   UNL     1      -6.714  12.643  22.242  0.00  0.00    +0.000 S 
ATOM     24  O   UNL     1      -7.465  11.408  22.304  0.00  0.00    +0.000 OA
ATOM     25  O   UNL     1      -7.135  13.753  21.406  0.00  0.00    +0.000 OA
ENDBRANCH  21  23
ENDBRANCH  20  21
ENDBRANCH  19  20
ENDBRANCH   1  19
BRANCH   2  26
ATOM     26  O   UNL     1      -2.053  13.372  23.309  0.00  0.00    +0.000 OA
BRANCH  26  27
ATOM     27  S   UNL     1      -1.083  14.670  23.554  0.00  0.00    +0.000 S 
ATOM     28  C   UNL     1      -2.116  15.919  22.809  0.00  0.00    +0.000 C 
ATOM     29  O   UNL     1      -0.908  14.946  24.966  0.00  0.00    +0.000 OA
ATOM     30  O   UNL     1       0.082  14.512  22.703  0.00  0.00    +0.000 OA
ENDBRANCH  26  27
ENDBRANCH   2  26
TORSDOF 7
ENDMDL
MODEL 3
REMARK VINA RESULT:      -6.2      2.854      5.572
REMARK  Name = 
REMARK  9 active torsions:
REMARK  status: ('A' for Active; 'I' for Inactive)
REMARK    1  A    between atoms: C_1  and  S_2
REMARK    2  A    between atoms: S_2  and  O_5
REMARK    3  A    between atoms: O_5  and  C_6
REMARK    4  A    between atoms: C_6  and  C_7
REMARK    5  A    between atoms: C_7  and  C_8
REMARK    6  A    between atoms: C_9  and  O_10
REMARK    7  A    between atoms: O_10  and  S_11
REMARK    8  A    between atoms: S_11  and  C_12
REMARK    9  A    between atoms: C_23  and  C_24
REMARK                            x       y       z     vdW  Elec       q    Type
REMARK                         _______ _______ _______ _____ _____    ______ ____
ROOT
ATOM      1  C   UNL     1      -2.255  12.740  20.383  0.00  0.00    +0.000 A 
ATOM      2  C   UNL     1      -3.617  12.542  20.622  0.00  0.00    +0.000 A 
ATOM      3  N   UNL     1      -4.500  12.185  19.680  0.00  0.00    +0.000 NA
ATOM      4  C   UNL     1      -4.049  11.777  18.499  0.00  0.00    +0.000 A 
ATOM      5  C   UNL     1      -5.011  11.406  17.568  0.00  0.00    +0.000 A 
ATOM      6  C   UNL     1      -4.666  10.945  16.301  0.00  0.00    +0.000 A 
ATOM      7  C   UNL     1      -3.328  10.778  15.994  0.00  0.00    +0.000 A 
ATOM      8 CL   UNL     1      -2.870  10.223  14.433  0.00  0.00    +0.000 Cl
ATOM      9  C   UNL     1      -2.350  11.101  16.936  0.00  0.00    +0.000 A 
ATOM     10  C   UNL     1      -2.677  11.707  18.179  0.00  0.00    +0.000 A 
ATOM     11  C   UNL     1      -1.741  12.276  19.122  0.00  0.00    +0.000 A 
ENDROOT
BRANCH  11  12
ATOM     12  C   UNL     1      -0.267  12.389  18.783  0.00  0.00    +0.000 A 
ATOM     13  C   UNL     1       0.541  11.228  18.775  0.00  0.00    +0.000 A 
ATOM     14  C   UNL     1       1.930  11.276  18.588  0.00  0.00    +0.000 A 
ATOM     15  C   UNL     1       2.542  12.471  18.247  0.00  0.00    +0.000 A 
ATOM     16  C   UNL     1       1.775  13.627  18.166  0.00  0.00    +0.000 A 
ATOM     17  C   UNL     1       0.410  13.605  18.504  0.00  0.00    +0.000 A 
ATOM     18 CL   UNL     1      -0.330  15.168  18.647  0.00  0.00    +0.000 Cl
ENDBRANCH  11  12
BRANCH   1  19
ATOM     19  C   UNL     1      -1.352  13.351  21.444  0.00  0.00    +0.000 C 
BRANCH  19  20
ATOM     20  C   UNL     1      -0.369  12.478  22.232  0.00  0.00    +0.000 C 
BRANCH  20  21
ATOM     21  O   UNL     1      -0.830  11.129  22.137  0.00  0.00    +0.000 OA
BRANCH  21  23
ATOM     22  C   UNL     1      -0.569   8.633  21.623  0.00  0.00    +0.000 C 
ATOM     23  S   UNL     1       0.217   9.950  22.527  0.00  0.00    +0.000 S 
ATOM     24  O   UNL     1       0.107   9.678  23.944  0.00  0.00    +0.000 OA
ATOM     25  O   UNL     1       1.493  10.243  21.901  0.00  0.00    +0.000 OA
ENDBRANCH  21  23
ENDBRANCH  20  21
ENDBRANCH  19  20
ENDBRANCH   1  19
BRANCH   2  26
ATOM     26  O   UNL     1      -4.127  12.754  21.877  0.00  0.00    +0.000 OA
BRANCH  26  27
ATOM     27  S   UNL     1      -5.728  13.035  22.084  0.00  0.00    +0.000 S 
ATOM     28  C   UNL     1      -5.736  13.234  23.857  0.00  0.00    +0.000 C 
ATOM     29  O   UNL     1      -6.141  14.268  21.443  0.00  0.00    +0.000 OA
ATOM     30  O   UNL     1      -6.431  11.800  21.788  0.00  0.00    +0.000 OA
ENDBRANCH  26  27
ENDBRANCH   2  26
TORSDOF 7
ENDMDL
MODEL 4
REMARK VINA RESULT:      -6.0      2.919      5.470
REMARK  Name = 
REMARK  9 active torsions:
REMARK  status: ('A' for Active; 'I' for Inactive)
REMARK    1  A    between atoms: C_1  and  S_2
REMARK    2  A    between atoms: S_2  and  O_5
REMARK    3  A    between atoms: O_5  and  C_6
REMARK    4  A    between atoms: C_6  and  C_7
REMARK    5  A    between atoms: C_7  and  C_8
REMARK    6  A    between atoms: C_9  and  O_10
REMARK    7  A    between atoms: O_10  and  S_11
REMARK    8  A    between atoms: S_11  and  C_12
REMARK    9  A    between atoms: C_23  and  C_24
REMARK                            x       y       z     vdW  Elec       q    Type
REMARK                         _______ _______ _______ _____ _____    ______ ____
ROOT
ATOM      1  C   UNL     1      -2.168  12.580  20.563  0.00  0.00    +0.000 A 
ATOM      2  C   UNL     1      -3.537  12.441  20.810  0.00  0.00    +0.000 A 
ATOM      3  N   UNL     1      -4.449  12.194  19.861  0.00  0.00    +0.000 NA
ATOM      4  C   UNL     1      -4.035  11.840  18.649  0.00  0.00    +0.000 A 
ATOM      5  C   UNL     1      -5.026  11.582  17.711  0.00  0.00    +0.000 A 
ATOM      6  C   UNL     1      -4.722  11.186  16.412  0.00  0.00    +0.000 A 
ATOM      7  C   UNL     1      -3.398  10.967  16.075  0.00  0.00    +0.000 A 
ATOM      8 CL   UNL     1      -2.989  10.490  14.474  0.00  0.00    +0.000 Cl
ATOM      9  C   UNL     1      -2.393  11.175  17.020  0.00  0.00    +0.000 A 
ATOM     10  C   UNL     1      -2.672  11.717  18.305  0.00  0.00    +0.000 A 
ATOM     11  C   UNL     1      -1.695  12.172  19.268  0.00  0.00    +0.000 A 
ENDROOT
BRANCH  11  12
ATOM     12  C   UNL     1      -0.221  12.227  18.914  0.00  0.00    +0.000 A 
ATOM     13  C   UNL     1       0.382  13.473  18.620  0.00  0.00    +0.000 A 
ATOM     14  C   UNL     1       1.706  13.583  18.171  0.00  0.00    +0.000 A 
ATOM     15  C   UNL     1       2.524  12.466  18.147  0.00  0.00    +0.000 A 
ATOM     16  C   UNL     1       1.996  11.230  18.503  0.00  0.00    +0.000 A 
ATOM     17  C   UNL     1       0.629  11.097  18.805  0.00  0.00    +0.000 A 
ATOM     18 CL   UNL     1       0.068   9.460  18.928  0.00  0.00    +0.000 Cl
ENDBRANCH  11  12
BRANCH   1  19
ATOM     19  C   UNL     1      -1.221  13.072  21.648  0.00  0.00    +0.000 C 
BRANCH  19  20
ATOM     20  C   UNL     1      -0.763  12.134  22.770  0.00  0.00    +0.000 C 
BRANCH  20  21
ATOM     21  O   UNL     1       0.164  11.210  22.200  0.00  0.00    +0.000 OA
BRANCH  21  23
ATOM     22  C   UNL     1       1.670   9.144  22.033  0.00  0.00    +0.000 C 
ATOM     23  S   UNL     1       0.125   9.678  22.739  0.00  0.00    +0.000 S 
ATOM     24  O   UNL     1      -0.959   8.979  22.082  0.00  0.00    +0.000 OA
ATOM     25  O   UNL     1       0.259   9.697  24.184  0.00  0.00    +0.000 OA
ENDBRANCH  21  23
ENDBRANCH  20  21
ENDBRANCH  19  20
ENDBRANCH   1  19
BRANCH   2  26
ATOM     26  O   UNL     1      -4.020  12.599  22.083  0.00  0.00    +0.000 OA
BRANCH  26  27
ATOM     27  S   UNL     1      -4.630  14.040  22.565  0.00  0.00    +0.000 S 
ATOM     28  C   UNL     1      -6.357  13.594  22.624  0.00  0.00    +0.000 C 
ATOM     29  O   UNL     1      -4.165  14.401  23.890  0.00  0.00    +0.000 OA
ATOM     30  O   UNL     1      -4.466  14.975  21.467  0.00  0.00    +0.000 OA
ENDBRANCH  26  27
ENDBRANCH   2  26
TORSDOF 7
ENDMDL
MODEL 5
REMARK VINA RESULT:      -6.0      8.185     10.594
REMARK  Name = 
REMARK  9 active torsions:
REMARK  status: ('A' for Active; 'I' for Inactive)
REMARK    1  A    between atoms: C_1  and  S_2
REMARK    2  A    between atoms: S_2  and  O_5
REMARK    3  A    between atoms: O_5  and  C_6
REMARK    4  A    between atoms: C_6  and  C_7
REMARK    5  A    between atoms: C_7  and  C_8
REMARK    6  A    between atoms: C_9  and  O_10
REMARK    7  A    between atoms: O_10  and  S_11
REMARK    8  A    between atoms: S_11  and  C_12
REMARK    9  A    between atoms: C_23  and  C_24
REMARK                            x       y       z     vdW  Elec       q    Type
REMARK                         _______ _______ _______ _____ _____    ______ ____
ROOT
ATOM      1  C   UNL     1       3.986   5.946  17.927  0.00  0.00    +0.000 A 
ATOM      2  C   UNL     1       4.488   7.097  17.315  0.00  0.00    +0.000 A 
ATOM      3  N   UNL     1       3.876   8.288  17.341  0.00  0.00    +0.000 NA
ATOM      4  C   UNL     1       2.852   8.466  18.168  0.00  0.00    +0.000 A 
ATOM      5  C   UNL     1       2.267   9.725  18.162  0.00  0.00    +0.000 A 
ATOM      6  C   UNL     1       1.198  10.042  18.995  0.00  0.00    +0.000 A 
ATOM      7  C   UNL     1       0.762   9.099  19.908  0.00  0.00    +0.000 A 
ATOM      8 CL   UNL     1      -0.566   9.455  20.940  0.00  0.00    +0.000 Cl
ATOM      9  C   UNL     1       1.370   7.844  19.959  0.00  0.00    +0.000 A 
ATOM     10  C   UNL     1       2.365   7.453  19.022  0.00  0.00    +0.000 A 
ATOM     11  C   UNL     1       2.897   6.121  18.850  0.00  0.00    +0.000 A 
ENDROOT
BRANCH  11  12
ATOM     12  C   UNL     1       2.314   4.946  19.612  0.00  0.00    +0.000 A 
ATOM     13  C   UNL     1       2.686   4.732  20.960  0.00  0.00    +0.000 A 
ATOM     14  C   UNL     1       2.280   3.602  21.685  0.00  0.00    +0.000 A 
ATOM     15  C   UNL     1       1.360   2.722  21.137  0.00  0.00    +0.000 A 
ATOM     16  C   UNL     1       0.906   2.935  19.841  0.00  0.00    +0.000 A 
ATOM     17  C   UNL     1       1.430   3.982  19.062  0.00  0.00    +0.000 A 
ATOM     18 CL   UNL     1       0.993   3.929  17.384  0.00  0.00    +0.000 Cl
ENDBRANCH  11  12
BRANCH   1  19
ATOM     19  C   UNL     1       4.618   4.584  17.677  0.00  0.00    +0.000 C 
BRANCH  19  20
ATOM     20  C   UNL     1       4.386   3.845  16.355  0.00  0.00    +0.000 C 
BRANCH  20  21
ATOM     21  O   UNL     1       5.669   3.532  15.812  0.00  0.00    +0.000 OA
BRANCH  21  23
ATOM     22  C   UNL     1       5.965   3.214  13.287  0.00  0.00    +0.000 C 
ATOM     23  S   UNL     1       6.197   4.430  14.566  0.00  0.00    +0.000 S 
ATOM     24  O   UNL     1       7.614   4.674  14.732  0.00  0.00    +0.000 OA
ATOM     25  O   UNL     1       5.254   5.513  14.350  0.00  0.00    +0.000 OA
ENDBRANCH  21  23
ENDBRANCH  20  21
ENDBRANCH  19  20
ENDBRANCH   1  19
BRANCH   2  26
ATOM     26  O   UNL     1       5.657   7.036  16.601  0.00  0.00    +0.000 OA
BRANCH  26  27
ATOM     27  S   UNL     1       7.102   7.150  17.365  0.00  0.00    +0.000 S 
ATOM     28  C   UNL     1       7.110   8.909  17.661  0.00  0.00    +0.000 C 
ATOM     29  O   UNL     1       7.097   6.434  18.626  0.00  0.00    +0.000 OA
ATOM     30  O   UNL     1       8.137   6.875  16.387  0.00  0.00    +0.000 OA
ENDBRANCH  26  27
ENDBRANCH   2  26
TORSDOF 7
ENDMDL
MODEL 6
REMARK VINA RESULT:      -5.9      2.727      6.014
REMARK  Name = 
REMARK  9 active torsions:
REMARK  status: ('A' for Active; 'I' for Inactive)
REMARK    1  A    between atoms: C_1  and  S_2
REMARK    2  A    between atoms: S_2  and  O_5
REMARK    3  A    between atoms: O_5  and  C_6
REMARK    4  A    between atoms: C_6  and  C_7
REMARK    5  A    between atoms: C_7  and  C_8
REMARK    6  A    between atoms: C_9  and  O_10
REMARK    7  A    between atoms: O_10  and  S_11
REMARK    8  A    between atoms: S_11  and  C_12
REMARK    9  A    between atoms: C_23  and  C_24
REMARK                            x       y       z     vdW  Elec       q    Type
REMARK                         _______ _______ _______ _____ _____    ______ ____
ROOT
ATOM      1  C   UNL     1      -1.390  11.949  20.652  0.00  0.00    +0.000 A 
ATOM      2  C   UNL     1      -2.597  12.642  20.775  0.00  0.00    +0.000 A 
ATOM      3  N   UNL     1      -3.522  12.713  19.809  0.00  0.00    +0.000 NA
ATOM      4  C   UNL     1      -3.413  11.913  18.754  0.00  0.00    +0.000 A 
ATOM      5  C   UNL     1      -4.410  12.023  17.793  0.00  0.00    +0.000 A 
ATOM      6  C   UNL     1      -4.417  11.228  16.651  0.00  0.00    +0.000 A 
ATOM      7  C   UNL     1      -3.449  10.250  16.512  0.00  0.00    +0.000 A 
ATOM      8 CL   UNL     1      -3.423   9.262  15.106  0.00  0.00    +0.000 Cl
ATOM      9  C   UNL     1      -2.467  10.096  17.492  0.00  0.00    +0.000 A 
ATOM     10  C   UNL     1      -2.358  10.990  18.593  0.00  0.00    +0.000 A 
ATOM     11  C   UNL     1      -1.263  11.054  19.533  0.00  0.00    +0.000 A 
ENDROOT
BRANCH  11  12
ATOM     12  C   UNL     1      -0.018  10.211  19.336  0.00  0.00    +0.000 A 
ATOM     13  C   UNL     1       0.806  10.432  18.206  0.00  0.00    +0.000 A 
ATOM     14  C   UNL     1       1.902   9.614  17.900  0.00  0.00    +0.000 A 
ATOM     15  C   UNL     1       2.309   8.637  18.795  0.00  0.00    +0.000 A 
ATOM     16  C   UNL     1       1.575   8.435  19.958  0.00  0.00    +0.000 A 
ATOM     17  C   UNL     1       0.389   9.153  20.189  0.00  0.00    +0.000 A 
ATOM     18 CL   UNL     1      -0.564   8.575  21.520  0.00  0.00    +0.000 Cl
ENDBRANCH  11  12
BRANCH   1  19
ATOM     19  C   UNL     1      -0.295  12.087  21.699  0.00  0.00    +0.000 C 
BRANCH  19  20
ATOM     20  C   UNL     1       0.595  13.334  21.740  0.00  0.00    +0.000 C 
BRANCH  20  21
ATOM     21  O   UNL     1       1.839  12.988  21.129  0.00  0.00    +0.000 OA
BRANCH  21  23
ATOM     22  C   UNL     1       2.793  13.518  18.812  0.00  0.00    +0.000 C 
ATOM     23  S   UNL     1       2.706  14.187  20.459  0.00  0.00    +0.000 S 
ATOM     24  O   UNL     1       4.032  14.185  21.038  0.00  0.00    +0.000 OA
ATOM     25  O   UNL     1       1.886  15.384  20.429  0.00  0.00    +0.000 OA
ENDBRANCH  21  23
ENDBRANCH  20  21
ENDBRANCH  19  20
ENDBRANCH   1  19
BRANCH   2  26
ATOM     26  O   UNL     1      -2.871  13.336  21.925  0.00  0.00    +0.000 OA
BRANCH  26  27
ATOM     27  S   UNL     1      -3.845  12.688  23.072  0.00  0.00    +0.000 S 
ATOM     28  C   UNL     1      -3.874  14.065  24.206  0.00  0.00    +0.000 C 
ATOM     29  O   UNL     1      -5.178  12.436  22.561  0.00  0.00    +0.000 OA
ATOM     30  O   UNL     1      -3.108  11.617  23.717  0.00  0.00    +0.000 OA
ENDBRANCH  26  27
ENDBRANCH   2  26
TORSDOF 7
ENDMDL
MODEL 7
REMARK VINA RESULT:      -5.9      2.766      5.809
REMARK  Name = 
REMARK  9 active torsions:
REMARK  status: ('A' for Active; 'I' for Inactive)
REMARK    1  A    between atoms: C_1  and  S_2
REMARK    2  A    between atoms: S_2  and  O_5
REMARK    3  A    between atoms: O_5  and  C_6
REMARK    4  A    between atoms: C_6  and  C_7
REMARK    5  A    between atoms: C_7  and  C_8
REMARK    6  A    between atoms: C_9  and  O_10
REMARK    7  A    between atoms: O_10  and  S_11
REMARK    8  A    between atoms: S_11  and  C_12
REMARK    9  A    between atoms: C_23  and  C_24
REMARK                            x       y       z     vdW  Elec       q    Type
REMARK                         _______ _______ _______ _____ _____    ______ ____
ROOT
ATOM      1  C   UNL     1      -1.168  11.783  20.574  0.00  0.00    +0.000 A 
ATOM      2  C   UNL     1      -2.350  12.518  20.698  0.00  0.00    +0.000 A 
ATOM      3  N   UNL     1      -3.273  12.621  19.733  0.00  0.00    +0.000 NA
ATOM      4  C   UNL     1      -3.194  11.817  18.679  0.00  0.00    +0.000 A 
ATOM      5  C   UNL     1      -4.187  11.961  17.719  0.00  0.00    +0.000 A 
ATOM      6  C   UNL     1      -4.225  11.166  16.577  0.00  0.00    +0.000 A 
ATOM      7  C   UNL     1      -3.292  10.154  16.438  0.00  0.00    +0.000 A 
ATOM      8 CL   UNL     1      -3.303   9.164  15.033  0.00  0.00    +0.000 Cl
ATOM      9  C   UNL     1      -2.315   9.966  17.418  0.00  0.00    +0.000 A 
ATOM     10  C   UNL     1      -2.173  10.857  18.517  0.00  0.00    +0.000 A 
ATOM     11  C   UNL     1      -1.075  10.882  19.456  0.00  0.00    +0.000 A 
ENDROOT
BRANCH  11  12
ATOM     12  C   UNL     1       0.139   9.995  19.258  0.00  0.00    +0.000 A 
ATOM     13  C   UNL     1       0.939  10.151  18.101  0.00  0.00    +0.000 A 
ATOM     14  C   UNL     1       2.002   9.290  17.797  0.00  0.00    +0.000 A 
ATOM     15  C   UNL     1       2.403   8.333  18.716  0.00  0.00    +0.000 A 
ATOM     16  C   UNL     1       1.695   8.194  19.903  0.00  0.00    +0.000 A 
ATOM     17  C   UNL     1       0.536   8.956  20.138  0.00  0.00    +0.000 A 
ATOM     18 CL   UNL     1      -0.398   8.455  21.512  0.00  0.00    +0.000 Cl
ENDBRANCH  11  12
BRANCH   1  19
ATOM     19  C   UNL     1      -0.068  11.883  21.620  0.00  0.00    +0.000 C 
BRANCH  19  20
ATOM     20  C   UNL     1       1.219  12.662  21.328  0.00  0.00    +0.000 C 
BRANCH  20  21
ATOM     21  O   UNL     1       0.845  13.865  20.656  0.00  0.00    +0.000 OA
BRANCH  21  23
ATOM     22  C   UNL     1       1.092  15.960  19.203  0.00  0.00    +0.000 C 
ATOM     23  S   UNL     1       1.711  14.297  19.352  0.00  0.00    +0.000 S 
ATOM     24  O   UNL     1       1.261  13.524  18.215  0.00  0.00    +0.000 OA
ATOM     25  O   UNL     1       3.111  14.358  19.731  0.00  0.00    +0.000 OA
ENDBRANCH  21  23
ENDBRANCH  20  21
ENDBRANCH  19  20
ENDBRANCH   1  19
BRANCH   2  26
ATOM     26  O   UNL     1      -2.598  13.223  21.847  0.00  0.00    +0.000 OA
BRANCH  26  27
ATOM     27  S   UNL     1      -3.649  12.646  22.963  0.00  0.00    +0.000 S 
ATOM     28  C   UNL     1      -3.668  14.050  24.063  0.00  0.00    +0.000 C 
ATOM     29  O   UNL     1      -4.968  12.439  22.397  0.00  0.00    +0.000 OA
ATOM     30  O   UNL     1      -2.990  11.559  23.664  0.00  0.00    +0.000 OA
ENDBRANCH  26  27
ENDBRANCH   2  26
TORSDOF 7
ENDMDL
MODEL 8
REMARK VINA RESULT:      -5.8      2.931      5.530
REMARK  Name = 
REMARK  9 active torsions:
REMARK  status: ('A' for Active; 'I' for Inactive)
REMARK    1  A    between atoms: C_1  and  S_2
REMARK    2  A    between atoms: S_2  and  O_5
REMARK    3  A    between atoms: O_5  and  C_6
REMARK    4  A    between atoms: C_6  and  C_7
REMARK    5  A    between atoms: C_7  and  C_8
REMARK    6  A    between atoms: C_9  and  O_10
REMARK    7  A    between atoms: O_10  and  S_11
REMARK    8  A    between atoms: S_11  and  C_12
REMARK    9  A    between atoms: C_23  and  C_24
REMARK                            x       y       z     vdW  Elec       q    Type
REMARK                         _______ _______ _______ _____ _____    ______ ____
ROOT
ATOM      1  C   UNL     1      -2.389  12.694  20.595  0.00  0.00    +0.000 A 
ATOM      2  C   UNL     1      -3.747  12.450  20.819  0.00  0.00    +0.000 A 
ATOM      3  N   UNL     1      -4.619  12.124  19.856  0.00  0.00    +0.000 NA
ATOM      4  C   UNL     1      -4.156  11.792  18.656  0.00  0.00    +0.000 A 
ATOM      5  C   UNL     1      -5.107  11.449  17.703  0.00  0.00    +0.000 A 
ATOM      6  C   UNL     1      -4.748  11.067  16.414  0.00  0.00    +0.000 A 
ATOM      7  C   UNL     1      -3.406  10.949  16.102  0.00  0.00    +0.000 A 
ATOM      8 CL   UNL     1      -2.931  10.492  14.514  0.00  0.00    +0.000 Cl
ATOM      9  C   UNL     1      -2.438  11.244  17.063  0.00  0.00    +0.000 A 
ATOM     10  C   UNL     1      -2.782  11.774  18.337  0.00  0.00    +0.000 A 
ATOM     11  C   UNL     1      -1.862  12.313  19.312  0.00  0.00    +0.000 A 
ENDROOT
BRANCH  11  12
ATOM     12  C   UNL     1      -0.391  12.480  18.985  0.00  0.00    +0.000 A 
ATOM     13  C   UNL     1       0.140  13.778  18.789  0.00  0.00    +0.000 A 
ATOM     14  C   UNL     1       1.459  13.998  18.368  0.00  0.00    +0.000 A 
ATOM     15  C   UNL     1       2.343  12.936  18.275  0.00  0.00    +0.000 A 
ATOM     16  C   UNL     1       1.886  11.649  18.534  0.00  0.00    +0.000 A 
ATOM     17  C   UNL     1       0.527  11.413  18.807  0.00  0.00    +0.000 A 
ATOM     18 CL   UNL     1       0.064   9.741  18.804  0.00  0.00    +0.000 Cl
ENDBRANCH  11  12
BRANCH   1  19
ATOM     19  C   UNL     1      -1.504  13.268  21.691  0.00  0.00    +0.000 C 
BRANCH  19  20
ATOM     20  C   UNL     1      -0.836  12.348  22.718  0.00  0.00    +0.000 C 
BRANCH  20  21
ATOM     21  O   UNL     1      -1.000  11.006  22.257  0.00  0.00    +0.000 OA
BRANCH  21  23
ATOM     22  C   UNL     1      -0.545   8.526  21.809  0.00  0.00    +0.000 C 
ATOM     23  S   UNL     1       0.163   9.936  22.633  0.00  0.00    +0.000 S 
ATOM     24  O   UNL     1       0.142   9.706  24.061  0.00  0.00    +0.000 OA
ATOM     25  O   UNL     1       1.378  10.316  21.936  0.00  0.00    +0.000 OA
ENDBRANCH  21  23
ENDBRANCH  20  21
ENDBRANCH  19  20
ENDBRANCH   1  19
BRANCH   2  26
ATOM     26  O   UNL     1      -4.265  12.581  22.081  0.00  0.00    +0.000 OA
BRANCH  26  27
ATOM     27  S   UNL     1      -5.245  13.840  22.449  0.00  0.00    +0.000 S 
ATOM     28  C   UNL     1      -4.727  14.966  21.166  0.00  0.00    +0.000 C 
ATOM     29  O   UNL     1      -6.643  13.497  22.274  0.00  0.00    +0.000 OA
ATOM     30  O   UNL     1      -4.794  14.392  23.713  0.00  0.00    +0.000 OA
ENDBRANCH  26  27
ENDBRANCH   2  26
TORSDOF 7
ENDMDL
MODEL 9
REMARK VINA RESULT:      -5.8      3.479      7.463
REMARK  Name = 
REMARK  9 active torsions:
REMARK  status: ('A' for Active; 'I' for Inactive)
REMARK    1  A    between atoms: C_1  and  S_2
REMARK    2  A    between atoms: S_2  and  O_5
REMARK    3  A    between atoms: O_5  and  C_6
REMARK    4  A    between atoms: C_6  and  C_7
REMARK    5  A    between atoms: C_7  and  C_8
REMARK    6  A    between atoms: C_9  and  O_10
REMARK    7  A    between atoms: O_10  and  S_11
REMARK    8  A    between atoms: S_11  and  C_12
REMARK    9  A    between atoms: C_23  and  C_24
REMARK                            x       y       z     vdW  Elec       q    Type
REMARK                         _______ _______ _______ _____ _____    ______ ____
ROOT
ATOM      1  C   UNL     1      -2.869  12.584  19.604  0.00  0.00    +0.000 A 
ATOM      2  C   UNL     1      -3.671  11.913  18.676  0.00  0.00    +0.000 A 
ATOM      3  N   UNL     1      -4.911  11.477  18.934  0.00  0.00    +0.000 NA
ATOM      4  C   UNL     1      -5.517  11.882  20.045  0.00  0.00    +0.000 A 
ATOM      5  C   UNL     1      -6.806  11.408  20.251  0.00  0.00    +0.000 A 
ATOM      6  C   UNL     1      -7.552  11.774  21.367  0.00  0.00    +0.000 A 
ATOM      7  C   UNL     1      -7.022  12.696  22.251  0.00  0.00    +0.000 A 
ATOM      8 CL   UNL     1      -7.913  13.157  23.647  0.00  0.00    +0.000 Cl
ATOM      9  C   UNL     1      -5.746  13.218  22.033  0.00  0.00    +0.000 A 
ATOM     10  C   UNL     1      -4.913  12.750  20.980  0.00  0.00    +0.000 A 
ATOM     11  C   UNL     1      -3.513  13.059  20.799  0.00  0.00    +0.000 A 
ENDROOT
BRANCH  11  12
ATOM     12  C   UNL     1      -2.749  13.848  21.844  0.00  0.00    +0.000 A 
ATOM     13  C   UNL     1      -2.623  15.251  21.709  0.00  0.00    +0.000 A 
ATOM     14  C   UNL     1      -1.833  16.025  22.570  0.00  0.00    +0.000 A 
ATOM     15  C   UNL     1      -1.263  15.447  23.693  0.00  0.00    +0.000 A 
ATOM     16  C   UNL     1      -1.425  14.084  23.911  0.00  0.00    +0.000 A 
ATOM     17  C   UNL     1      -2.089  13.282  22.965  0.00  0.00    +0.000 A 
ATOM     18 CL   UNL     1      -1.942  11.573  23.228  0.00  0.00    +0.000 Cl
ENDBRANCH  11  12
BRANCH   1  19
ATOM     19  C   UNL     1      -1.400  12.858  19.318  0.00  0.00    +0.000 C 
BRANCH  19  20
ATOM     20  C   UNL     1      -0.310  11.937  19.875  0.00  0.00    +0.000 C 
BRANCH  20  21
ATOM     21  O   UNL     1       0.439  12.693  20.828  0.00  0.00    +0.000 OA
BRANCH  21  23
ATOM     22  C   UNL     1       2.082  12.455  18.877  0.00  0.00    +0.000 C 
ATOM     23  S   UNL     1       1.754  13.482  20.294  0.00  0.00    +0.000 S 
ATOM     24  O   UNL     1       2.823  13.312  21.255  0.00  0.00    +0.000 OA
ATOM     25  O   UNL     1       1.345  14.794  19.829  0.00  0.00    +0.000 OA
ENDBRANCH  21  23
ENDBRANCH  20  21
ENDBRANCH  19  20
ENDBRANCH   1  19
BRANCH   2  26
ATOM     26  O   UNL     1      -3.180  11.630  17.428  0.00  0.00    +0.000 OA
BRANCH  26  27
ATOM     27  S   UNL     1      -2.663  10.119  17.064  0.00  0.00    +0.000 S 
ATOM     28  C   UNL     1      -3.003  10.136  15.312  0.00  0.00    +0.000 C 
ATOM     29  O   UNL     1      -1.239   9.973  17.293  0.00  0.00    +0.000 OA
ATOM     30  O   UNL     1      -3.589   9.181  17.671  0.00  0.00    +0.000 OA
ENDBRANCH  26  27
ENDBRANCH   2  26
TORSDOF 7
ENDMDL
