MODEL 1
REMARK VINA RESULT:      -7.0      0.000      0.000
REMARK  Name = 
REMARK  4 active torsions:
REMARK  status: ('A' for Active; 'I' for Inactive)
REMARK    1  A    between atoms: C_1  and  C_2
REMARK    2  A    between atoms: C_2  and  C_3
REMARK    3  A    between atoms: C_2  and  N_9
REMARK    4  A    between atoms: N_9  and  C_10
REMARK                            x       y       z     vdW  Elec       q    Type
REMARK                         _______ _______ _______ _____ _____    ______ ____
ROOT
ATOM      1  N   UNL     1      -4.337  11.483  17.648  0.00  0.00    +0.000 N 
ATOM      2  C   UNL     1      -4.243  11.314  16.202  0.00  0.00    +0.000 C 
ATOM      3  C   UNL     1      -3.158  11.347  18.385  0.00  0.00    +0.000 A 
ATOM      4  C   UNL     1      -2.204  10.415  18.002  0.00  0.00    +0.000 A 
ATOM      5  C   UNL     1      -1.033  10.351  18.713  0.00  0.00    +0.000 A 
ATOM      6  N   UNL     1      -0.773  11.136  19.766  0.00  0.00    +0.000 NA
ATOM      7  C   UNL     1      -1.763  11.969  20.136  0.00  0.00    +0.000 A 
ATOM      8  N   UNL     1      -1.547  12.696  21.340  0.00  0.00    +0.000 N 
ATOM      9  C   UNL     1      -0.365  12.706  22.051  0.00  0.00    +0.000 A 
ATOM     10  N   UNL     1      -0.458  13.371  23.181  0.00  0.00    +0.000 NA
ATOM     11  C   UNL     1      -1.755  13.812  23.220  0.00  0.00    +0.000 A 
ATOM     12  C   UNL     1      -2.408  14.523  24.225  0.00  0.00    +0.000 A 
ATOM     13  C   UNL     1      -3.741  14.814  23.988  0.00  0.00    +0.000 A 
ATOM     14  N   UNL     1      -4.417  14.477  22.868  0.00  0.00    +0.000 NA
ATOM     15  C   UNL     1      -3.780  13.786  21.890  0.00  0.00    +0.000 A 
ATOM     16  C   UNL     1      -2.451  13.441  22.069  0.00  0.00    +0.000 A 
ATOM     17  N   UNL     1      -2.944  12.102  19.484  0.00  0.00    +0.000 NA
ENDROOT
BRANCH   1  19
ATOM     18  C   UNL     1      -6.375  12.854  17.149  0.00  0.00    +0.000 C 
ATOM     19  C   UNL     1      -5.490  12.198  18.219  0.00  0.00    +0.000 C 
BRANCH  19  20
ATOM     20  C   UNL     1      -6.276  11.279  19.161  0.00  0.00    +0.000 A 
ATOM     21  C   UNL     1      -6.471   9.909  18.915  0.00  0.00    +0.000 A 
ATOM     22  C   UNL     1      -7.289   9.139  19.747  0.00  0.00    +0.000 A 
ATOM     23  C   UNL     1      -7.915   9.721  20.845  0.00  0.00    +0.000 A 
ATOM     24  C   UNL     1      -7.695  11.066  21.134  0.00  0.00    +0.000 A 
ATOM     25  C   UNL     1      -6.874  11.836  20.305  0.00  0.00    +0.000 A 
ENDBRANCH  19  20
ENDBRANCH   1  19
TORSDOF 2
ENDMDL
MODEL 2
REMARK VINA RESULT:      -6.9      0.309      1.008
REMARK  Name = 
REMARK  4 active torsions:
REMARK  status: ('A' for Active; 'I' for Inactive)
REMARK    1  A    between atoms: C_1  and  C_2
REMARK    2  A    between atoms: C_2  and  C_3
REMARK    3  A    between atoms: C_2  and  N_9
REMARK    4  A    between atoms: N_9  and  C_10
REMARK                            x       y       z     vdW  Elec       q    Type
REMARK                         _______ _______ _______ _____ _____    ______ ____
ROOT
ATOM      1  N   UNL     1      -4.458  11.563  17.793  0.00  0.00    +0.000 N 
ATOM      2  C   UNL     1      -4.315  11.392  16.352  0.00  0.00    +0.000 C 
ATOM      3  C   UNL     1      -3.303  11.440  18.569  0.00  0.00    +0.000 A 
ATOM      4  C   UNL     1      -2.329  10.515  18.220  0.00  0.00    +0.000 A 
ATOM      5  C   UNL     1      -1.181  10.464  18.969  0.00  0.00    +0.000 A 
ATOM      6  N   UNL     1      -0.962  11.253  20.028  0.00  0.00    +0.000 NA
ATOM      7  C   UNL     1      -1.971  12.078  20.362  0.00  0.00    +0.000 A 
ATOM      8  N   UNL     1      -1.801  12.809  21.571  0.00  0.00    +0.000 N 
ATOM      9  C   UNL     1      -0.642  12.832  22.321  0.00  0.00    +0.000 A 
ATOM     10  N   UNL     1      -0.778  13.498  23.445  0.00  0.00    +0.000 NA
ATOM     11  C   UNL     1      -2.079  13.928  23.441  0.00  0.00    +0.000 A 
ATOM     12  C   UNL     1      -2.771  14.636  24.422  0.00  0.00    +0.000 A 
ATOM     13  C   UNL     1      -4.098  14.914  24.141  0.00  0.00    +0.000 A 
ATOM     14  N   UNL     1      -4.734  14.569  23.000  0.00  0.00    +0.000 NA
ATOM     15  C   UNL     1      -4.060  13.881  22.046  0.00  0.00    +0.000 A 
ATOM     16  C   UNL     1      -2.734  13.548  22.269  0.00  0.00    +0.000 A 
ATOM     17  N   UNL     1      -3.131  12.199  19.672  0.00  0.00    +0.000 NA
ENDROOT
BRANCH   1  19
ATOM     18  C   UNL     1      -6.453  12.973  17.232  0.00  0.00    +0.000 C 
ATOM     19  C   UNL     1      -5.635  12.270  18.325  0.00  0.00    +0.000 C 
BRANCH  19  20
ATOM     20  C   UNL     1      -6.481  11.327  19.188  0.00  0.00    +0.000 A 
ATOM     21  C   UNL     1      -7.205  11.755  20.314  0.00  0.00    +0.000 A 
ATOM     22  C   UNL     1      -7.871  10.837  21.132  0.00  0.00    +0.000 A 
ATOM     23  C   UNL     1      -7.836   9.479  20.830  0.00  0.00    +0.000 A 
ATOM     24  C   UNL     1      -7.166   9.040  19.691  0.00  0.00    +0.000 A 
ATOM     25  C   UNL     1      -6.503   9.958  18.870  0.00  0.00    +0.000 A 
ENDBRANCH  19  20
ENDBRANCH   1  19
TORSDOF 2
ENDMDL
MODEL 3
REMARK VINA RESULT:      -6.8      1.971      6.684
REMARK  Name = 
REMARK  4 active torsions:
REMARK  status: ('A' for Active; 'I' for Inactive)
REMARK    1  A    between atoms: C_1  and  C_2
REMARK    2  A    between atoms: C_2  and  C_3
REMARK    3  A    between atoms: C_2  and  N_9
REMARK    4  A    between atoms: N_9  and  C_10
REMARK                            x       y       z     vdW  Elec       q    Type
REMARK                         _______ _______ _______ _____ _____    ______ ____
ROOT
ATOM      1  N   UNL     1      -1.822  13.453  23.229  0.00  0.00    +0.000 N 
ATOM      2  C   UNL     1      -1.365  14.392  24.247  0.00  0.00    +0.000 C 
ATOM      3  C   UNL     1      -3.189  13.168  23.190  0.00  0.00    +0.000 A 
ATOM      4  C   UNL     1      -3.916  13.097  24.370  0.00  0.00    +0.000 A 
ATOM      5  C   UNL     1      -5.268  12.876  24.290  0.00  0.00    +0.000 A 
ATOM      6  N   UNL     1      -5.915  12.712  23.129  0.00  0.00    +0.000 NA
ATOM      7  C   UNL     1      -5.148  12.719  22.024  0.00  0.00    +0.000 A 
ATOM      8  N   UNL     1      -5.809  12.398  20.806  0.00  0.00    +0.000 N 
ATOM      9  C   UNL     1      -7.173  12.228  20.672  0.00  0.00    +0.000 A 
ATOM     10  N   UNL     1      -7.520  11.834  19.467  0.00  0.00    +0.000 NA
ATOM     11  C   UNL     1      -6.338  11.735  18.780  0.00  0.00    +0.000 A 
ATOM     12  C   UNL     1      -6.120  11.305  17.472  0.00  0.00    +0.000 A 
ATOM     13  C   UNL     1      -4.799  11.294  17.055  0.00  0.00    +0.000 A 
ATOM     14  N   UNL     1      -3.748  11.681  17.809  0.00  0.00    +0.000 NA
ATOM     15  C   UNL     1      -3.962  12.100  19.081  0.00  0.00    +0.000 A 
ATOM     16  C   UNL     1      -5.256  12.116  19.574  0.00  0.00    +0.000 A 
ATOM     17  N   UNL     1      -3.810  12.940  22.013  0.00  0.00    +0.000 NA
ENDROOT
BRANCH   1  19
ATOM     18  C   UNL     1       0.285  14.069  22.019  0.00  0.00    +0.000 C 
ATOM     19  C   UNL     1      -0.978  13.194  22.051  0.00  0.00    +0.000 C 
BRANCH  19  20
ATOM     20  C   UNL     1      -0.669  11.698  21.932  0.00  0.00    +0.000 A 
ATOM     21  C   UNL     1      -0.741  10.808  23.017  0.00  0.00    +0.000 A 
ATOM     22  C   UNL     1      -0.342   9.475  22.881  0.00  0.00    +0.000 A 
ATOM     23  C   UNL     1       0.122   9.006  21.656  0.00  0.00    +0.000 A 
ATOM     24  C   UNL     1       0.154   9.859  20.556  0.00  0.00    +0.000 A 
ATOM     25  C   UNL     1      -0.249  11.191  20.690  0.00  0.00    +0.000 A 
ENDBRANCH  19  20
ENDBRANCH   1  19
TORSDOF 2
ENDMDL
MODEL 4
REMARK VINA RESULT:      -6.7      1.923      6.787
REMARK  Name = 
REMARK  4 active torsions:
REMARK  status: ('A' for Active; 'I' for Inactive)
REMARK    1  A    between atoms: C_1  and  C_2
REMARK    2  A    between atoms: C_2  and  C_3
REMARK    3  A    between atoms: C_2  and  N_9
REMARK    4  A    between atoms: N_9  and  C_10
REMARK                            x       y       z     vdW  Elec       q    Type
REMARK                         _______ _______ _______ _____ _____    ______ ____
ROOT
ATOM      1  N   UNL     1      -1.881  13.427  22.621  0.00  0.00    +0.000 N 
ATOM      2  C   UNL     1      -1.741  14.437  23.664  0.00  0.00    +0.000 C 
ATOM      3  C   UNL     1      -3.177  13.133  22.186  0.00  0.00    +0.000 A 
ATOM      4  C   UNL     1      -4.229  13.138  23.091  0.00  0.00    +0.000 A 
ATOM      5  C   UNL     1      -5.495  12.904  22.619  0.00  0.00    +0.000 A 
ATOM      6  N   UNL     1      -5.762  12.658  21.330  0.00  0.00    +0.000 NA
ATOM      7  C   UNL     1      -4.695  12.594  20.513  0.00  0.00    +0.000 A 
ATOM      8  N   UNL     1      -4.960  12.188  19.175  0.00  0.00    +0.000 N 
ATOM      9  C   UNL     1      -6.221  12.001  18.645  0.00  0.00    +0.000 A 
ATOM     10  N   UNL     1      -6.192  11.525  17.421  0.00  0.00    +0.000 NA
ATOM     11  C   UNL     1      -4.859  11.386  17.133  0.00  0.00    +0.000 A 
ATOM     12  C   UNL     1      -4.260  10.870  15.985  0.00  0.00    +0.000 A 
ATOM     13  C   UNL     1      -2.876  10.838  15.990  0.00  0.00    +0.000 A 
ATOM     14  N   UNL     1      -2.098  11.282  17.002  0.00  0.00    +0.000 NA
ATOM     15  C   UNL     1      -2.681  11.784  18.118  0.00  0.00    +0.000 A 
ATOM     16  C   UNL     1      -4.063  11.827  18.191  0.00  0.00    +0.000 A 
ATOM     17  N   UNL     1      -3.414  12.822  20.895  0.00  0.00    +0.000 NA
ENDROOT
BRANCH   1  19
ATOM     18  C   UNL     1       0.470  14.035  22.000  0.00  0.00    +0.000 C 
ATOM     19  C   UNL     1      -0.723  13.095  21.774  0.00  0.00    +0.000 C 
BRANCH  19  20
ATOM     20  C   UNL     1      -0.354  11.616  21.931  0.00  0.00    +0.000 A 
ATOM     21  C   UNL     1      -0.757  10.833  23.027  0.00  0.00    +0.000 A 
ATOM     22  C   UNL     1      -0.301   9.520  23.179  0.00  0.00    +0.000 A 
ATOM     23  C   UNL     1       0.554   8.963  22.232  0.00  0.00    +0.000 A 
ATOM     24  C   UNL     1       0.925   9.706  21.113  0.00  0.00    +0.000 A 
ATOM     25  C   UNL     1       0.466  11.017  20.959  0.00  0.00    +0.000 A 
ENDBRANCH  19  20
ENDBRANCH   1  19
TORSDOF 2
ENDMDL
MODEL 5
REMARK VINA RESULT:      -6.6      7.338     10.981
REMARK  Name = 
REMARK  4 active torsions:
REMARK  status: ('A' for Active; 'I' for Inactive)
REMARK    1  A    between atoms: C_1  and  C_2
REMARK    2  A    between atoms: C_2  and  C_3
REMARK    3  A    between atoms: C_2  and  N_9
REMARK    4  A    between atoms: N_9  and  C_10
REMARK                            x       y       z     vdW  Elec       q    Type
REMARK                         _______ _______ _______ _____ _____    ______ ____
ROOT
ATOM      1  N   UNL     1       5.052   4.807  17.685  0.00  0.00    +0.000 N 
ATOM      2  C   UNL     1       6.169   3.901  17.932  0.00  0.00    +0.000 C 
ATOM      3  C   UNL     1       4.086   4.918  18.689  0.00  0.00    +0.000 A 
ATOM      4  C   UNL     1       3.736   3.805  19.439  0.00  0.00    +0.000 A 
ATOM      5  C   UNL     1       2.828   3.964  20.455  0.00  0.00    +0.000 A 
ATOM      6  N   UNL     1       2.255   5.138  20.748  0.00  0.00    +0.000 NA
ATOM      7  C   UNL     1       2.579   6.165  19.941  0.00  0.00    +0.000 A 
ATOM      8  N   UNL     1       1.861   7.374  20.156  0.00  0.00    +0.000 N 
ATOM      9  C   UNL     1       0.986   7.595  21.201  0.00  0.00    +0.000 A 
ATOM     10  N   UNL     1       0.374   8.755  21.115  0.00  0.00    +0.000 NA
ATOM     11  C   UNL     1       0.860   9.320  19.965  0.00  0.00    +0.000 A 
ATOM     12  C   UNL     1       0.508  10.530  19.368  0.00  0.00    +0.000 A 
ATOM     13  C   UNL     1       1.163  10.830  18.185  0.00  0.00    +0.000 A 
ATOM     14  N   UNL     1       2.106  10.054  17.607  0.00  0.00    +0.000 NA
ATOM     15  C   UNL     1       2.448   8.879  18.189  0.00  0.00    +0.000 A 
ATOM     16  C   UNL     1       1.817   8.503  19.363  0.00  0.00    +0.000 A 
ATOM     17  N   UNL     1       3.472   6.096  18.923  0.00  0.00    +0.000 NA
ENDROOT
BRANCH   1  19
ATOM     18  C   UNL     1       6.064   7.033  17.134  0.00  0.00    +0.000 C 
ATOM     19  C   UNL     1       5.187   5.861  16.667  0.00  0.00    +0.000 C 
BRANCH  19  20
ATOM     20  C   UNL     1       5.652   5.263  15.335  0.00  0.00    +0.000 A 
ATOM     21  C   UNL     1       4.861   4.396  14.562  0.00  0.00    +0.000 A 
ATOM     22  C   UNL     1       5.373   3.789  13.411  0.00  0.00    +0.000 A 
ATOM     23  C   UNL     1       6.679   4.049  13.007  0.00  0.00    +0.000 A 
ATOM     24  C   UNL     1       7.463   4.944  13.731  0.00  0.00    +0.000 A 
ATOM     25  C   UNL     1       6.949   5.554  14.880  0.00  0.00    +0.000 A 
ENDBRANCH  19  20
ENDBRANCH   1  19
TORSDOF 2
ENDMDL
MODEL 6
REMARK VINA RESULT:      -6.6      1.941      6.723
REMARK  Name = 
REMARK  4 active torsions:
REMARK  status: ('A' for Active; 'I' for Inactive)
REMARK    1  A    between atoms: C_1  and  C_2
REMARK    2  A    between atoms: C_2  and  C_3
REMARK    3  A    between atoms: C_2  and  N_9
REMARK    4  A    between atoms: N_9  and  C_10
REMARK                            x       y       z     vdW  Elec       q    Type
REMARK                         _______ _______ _______ _____ _____    ______ ____
ROOT
ATOM      1  N   UNL     1      -1.616  13.348  22.405  0.00  0.00    +0.000 N 
ATOM      2  C   UNL     1      -1.431  14.358  23.441  0.00  0.00    +0.000 C 
ATOM      3  C   UNL     1      -2.925  13.089  21.991  0.00  0.00    +0.000 A 
ATOM      4  C   UNL     1      -3.963  13.128  22.912  0.00  0.00    +0.000 A 
ATOM      5  C   UNL     1      -5.242  12.928  22.461  0.00  0.00    +0.000 A 
ATOM      6  N   UNL     1      -5.536  12.683  21.177  0.00  0.00    +0.000 NA
ATOM      7  C   UNL     1      -4.484  12.585  20.344  0.00  0.00    +0.000 A 
ATOM      8  N   UNL     1      -4.781  12.180  19.013  0.00  0.00    +0.000 N 
ATOM      9  C   UNL     1      -6.054  12.027  18.503  0.00  0.00    +0.000 A 
ATOM     10  N   UNL     1      -6.057  11.545  17.280  0.00  0.00    +0.000 NA
ATOM     11  C   UNL     1      -4.733  11.367  16.973  0.00  0.00    +0.000 A 
ATOM     12  C   UNL     1      -4.167  10.828  15.819  0.00  0.00    +0.000 A 
ATOM     13  C   UNL     1      -2.784  10.757  15.804  0.00  0.00    +0.000 A 
ATOM     14  N   UNL     1      -1.978  11.183  16.801  0.00  0.00    +0.000 NA
ATOM     15  C   UNL     1      -2.530  11.707  17.923  0.00  0.00    +0.000 A 
ATOM     16  C   UNL     1      -3.909  11.789  18.017  0.00  0.00    +0.000 A 
ATOM     17  N   UNL     1      -3.191  12.779  20.705  0.00  0.00    +0.000 NA
ENDROOT
BRANCH   1  19
ATOM     18  C   UNL     1       0.739  13.892  21.739  0.00  0.00    +0.000 C 
ATOM     19  C   UNL     1      -0.481  12.979  21.543  0.00  0.00    +0.000 C 
BRANCH  19  20
ATOM     20  C   UNL     1      -0.145  11.493  21.708  0.00  0.00    +0.000 A 
ATOM     21  C   UNL     1       0.537  10.744  20.733  0.00  0.00    +0.000 A 
ATOM     22  C   UNL     1       0.721   9.366  20.883  0.00  0.00    +0.000 A 
ATOM     23  C   UNL     1       0.240   8.717  22.015  0.00  0.00    +0.000 A 
ATOM     24  C   UNL     1      -0.394   9.449  23.016  0.00  0.00    +0.000 A 
ATOM     25  C   UNL     1      -0.575  10.827  22.868  0.00  0.00    +0.000 A 
ENDBRANCH  19  20
ENDBRANCH   1  19
TORSDOF 2
ENDMDL
MODEL 7
REMARK VINA RESULT:      -6.4      7.675     11.329
REMARK  Name = 
REMARK  4 active torsions:
REMARK  status: ('A' for Active; 'I' for Inactive)
REMARK    1  A    between atoms: C_1  and  C_2
REMARK    2  A    between atoms: C_2  and  C_3
REMARK    3  A    between atoms: C_2  and  N_9
REMARK    4  A    between atoms: N_9  and  C_10
REMARK                            x       y       z     vdW  Elec       q    Type
REMARK                         _______ _______ _______ _____ _____    ______ ____
ROOT
ATOM      1  N   UNL     1       5.265   4.543  17.302  0.00  0.00    +0.000 N 
ATOM      2  C   UNL     1       6.429   3.680  17.474  0.00  0.00    +0.000 C 
ATOM      3  C   UNL     1       4.366   4.624  18.369  0.00  0.00    +0.000 A 
ATOM      4  C   UNL     1       4.109   3.502  19.144  0.00  0.00    +0.000 A 
ATOM      5  C   UNL     1       3.268   3.632  20.220  0.00  0.00    +0.000 A 
ATOM      6  N   UNL     1       2.674   4.786  20.548  0.00  0.00    +0.000 NA
ATOM      7  C   UNL     1       2.904   5.821  19.719  0.00  0.00    +0.000 A 
ATOM      8  N   UNL     1       2.158   7.005  19.981  0.00  0.00    +0.000 N 
ATOM      9  C   UNL     1       1.350   7.198  21.083  0.00  0.00    +0.000 A 
ATOM     10  N   UNL     1       0.692   8.334  21.036  0.00  0.00    +0.000 NA
ATOM     11  C   UNL     1       1.076   8.912  19.855  0.00  0.00    +0.000 A 
ATOM     12  C   UNL     1       0.641  10.105  19.280  0.00  0.00    +0.000 A 
ATOM     13  C   UNL     1       1.202  10.423  18.055  0.00  0.00    +0.000 A 
ATOM     14  N   UNL     1       2.131   9.680  17.415  0.00  0.00    +0.000 NA
ATOM     15  C   UNL     1       2.555   8.520  17.975  0.00  0.00    +0.000 A 
ATOM     16  C   UNL     1       2.020   8.127  19.191  0.00  0.00    +0.000 A 
ATOM     17  N   UNL     1       3.727   5.780  18.643  0.00  0.00    +0.000 NA
ENDROOT
BRANCH   1  19
ATOM     18  C   UNL     1       5.983   6.882  16.755  0.00  0.00    +0.000 C 
ATOM     19  C   UNL     1       5.291   5.598  16.275  0.00  0.00    +0.000 C 
BRANCH  19  20
ATOM     20  C   UNL     1       5.881   5.057  14.968  0.00  0.00    +0.000 A 
ATOM     21  C   UNL     1       7.136   5.446  14.470  0.00  0.00    +0.000 A 
ATOM     22  C   UNL     1       7.581   5.008  13.219  0.00  0.00    +0.000 A 
ATOM     23  C   UNL     1       6.784   4.165  12.451  0.00  0.00    +0.000 A 
ATOM     24  C   UNL     1       5.559   3.728  12.948  0.00  0.00    +0.000 A 
ATOM     25  C   UNL     1       5.116   4.161  14.201  0.00  0.00    +0.000 A 
ENDBRANCH  19  20
ENDBRANCH   1  19
TORSDOF 2
ENDMDL
MODEL 8
REMARK VINA RESULT:      -6.4      2.005      5.350
REMARK  Name = 
REMARK  4 active torsions:
REMARK  status: ('A' for Active; 'I' for Inactive)
REMARK    1  A    between atoms: C_1  and  C_2
REMARK    2  A    between atoms: C_2  and  C_3
REMARK    3  A    between atoms: C_2  and  N_9
REMARK    4  A    between atoms: N_9  and  C_10
REMARK                            x       y       z     vdW  Elec       q    Type
REMARK                         _______ _______ _______ _____ _____    ______ ____
ROOT
ATOM      1  N   UNL     1      -6.096  14.332  20.373  0.00  0.00    +0.000 N 
ATOM      2  C   UNL     1      -7.160  15.298  20.122  0.00  0.00    +0.000 C 
ATOM      3  C   UNL     1      -5.985  13.258  19.486  0.00  0.00    +0.000 A 
ATOM      4  C   UNL     1      -7.128  12.689  18.942  0.00  0.00    +0.000 A 
ATOM      5  C   UNL     1      -6.980  11.677  18.029  0.00  0.00    +0.000 A 
ATOM      6  N   UNL     1      -5.786  11.204  17.647  0.00  0.00    +0.000 NA
ATOM      7  C   UNL     1      -4.718  11.745  18.261  0.00  0.00    +0.000 A 
ATOM      8  N   UNL     1      -3.462  11.143  17.968  0.00  0.00    +0.000 N 
ATOM      9  C   UNL     1      -3.261  10.166  17.014  0.00  0.00    +0.000 A 
ATOM     10  N   UNL     1      -2.031   9.705  17.012  0.00  0.00    +0.000 NA
ATOM     11  C   UNL     1      -1.396  10.400  18.007  0.00  0.00    +0.000 A 
ATOM     12  C   UNL     1      -0.087  10.269  18.470  0.00  0.00    +0.000 A 
ATOM     13  C   UNL     1       0.269  11.106  19.514  0.00  0.00    +0.000 A 
ATOM     14  N   UNL     1      -0.545  12.026  20.078  0.00  0.00    +0.000 NA
ATOM     15  C   UNL     1      -1.816  12.154  19.626  0.00  0.00    +0.000 A 
ATOM     16  C   UNL     1      -2.249  11.333  18.598  0.00  0.00    +0.000 A 
ATOM     17  N   UNL     1      -4.775  12.753  19.166  0.00  0.00    +0.000 NA
ENDROOT
BRANCH   1  19
ATOM     18  C   UNL     1      -4.971  16.204  21.604  0.00  0.00    +0.000 C 
ATOM     19  C   UNL     1      -4.950  14.719  21.214  0.00  0.00    +0.000 C 
BRANCH  19  20
ATOM     20  C   UNL     1      -4.838  13.787  22.425  0.00  0.00    +0.000 A 
ATOM     21  C   UNL     1      -5.925  13.474  23.260  0.00  0.00    +0.000 A 
ATOM     22  C   UNL     1      -5.746  12.708  24.416  0.00  0.00    +0.000 A 
ATOM     23  C   UNL     1      -4.482  12.231  24.749  0.00  0.00    +0.000 A 
ATOM     24  C   UNL     1      -3.401  12.488  23.909  0.00  0.00    +0.000 A 
ATOM     25  C   UNL     1      -3.580  13.250  22.751  0.00  0.00    +0.000 A 
ENDBRANCH  19  20
ENDBRANCH   1  19
TORSDOF 2
ENDMDL
MODEL 9
REMARK VINA RESULT:      -6.3      1.983      5.182
REMARK  Name = 
REMARK  4 active torsions:
REMARK  status: ('A' for Active; 'I' for Inactive)
REMARK    1  A    between atoms: C_1  and  C_2
REMARK    2  A    between atoms: C_2  and  C_3
REMARK    3  A    between atoms: C_2  and  N_9
REMARK    4  A    between atoms: N_9  and  C_10
REMARK                            x       y       z     vdW  Elec       q    Type
REMARK                         _______ _______ _______ _____ _____    ______ ____
ROOT
ATOM      1  N   UNL     1      -6.201  14.153  20.350  0.00  0.00    +0.000 N 
ATOM      2  C   UNL     1      -7.350  15.002  20.054  0.00  0.00    +0.000 C 
ATOM      3  C   UNL     1      -5.993  13.047  19.521  0.00  0.00    +0.000 A 
ATOM      4  C   UNL     1      -7.079  12.347  19.015  0.00  0.00    +0.000 A 
ATOM      5  C   UNL     1      -6.839  11.305  18.156  0.00  0.00    +0.000 A 
ATOM      6  N   UNL     1      -5.607  10.924  17.794  0.00  0.00    +0.000 NA
ATOM      7  C   UNL     1      -4.593  11.593  18.372  0.00  0.00    +0.000 A 
ATOM      8  N   UNL     1      -3.287  11.095  18.104  0.00  0.00    +0.000 N 
ATOM      9  C   UNL     1      -2.998  10.091  17.202  0.00  0.00    +0.000 A 
ATOM     10  N   UNL     1      -1.730   9.744  17.217  0.00  0.00    +0.000 NA
ATOM     11  C   UNL     1      -1.161  10.548  18.170  0.00  0.00    +0.000 A 
ATOM     12  C   UNL     1       0.154  10.562  18.632  0.00  0.00    +0.000 A 
ATOM     13  C   UNL     1       0.433  11.484  19.627  0.00  0.00    +0.000 A 
ATOM     14  N   UNL     1      -0.461  12.354  20.146  0.00  0.00    +0.000 NA
ATOM     15  C   UNL     1      -1.740  12.340  19.696  0.00  0.00    +0.000 A 
ATOM     16  C   UNL     1      -2.096  11.429  18.715  0.00  0.00    +0.000 A 
ATOM     17  N   UNL     1      -4.742  12.639  19.221  0.00  0.00    +0.000 NA
ENDROOT
BRANCH   1  19
ATOM     18  C   UNL     1      -5.226  16.194  21.429  0.00  0.00    +0.000 C 
ATOM     19  C   UNL     1      -5.095  14.687  21.162  0.00  0.00    +0.000 C 
BRANCH  19  20
ATOM     20  C   UNL     1      -4.930  13.867  22.446  0.00  0.00    +0.000 A 
ATOM     21  C   UNL     1      -3.699  13.331  22.864  0.00  0.00    +0.000 A 
ATOM     22  C   UNL     1      -3.622  12.497  23.983  0.00  0.00    +0.000 A 
ATOM     23  C   UNL     1      -4.769  12.197  24.711  0.00  0.00    +0.000 A 
ATOM     24  C   UNL     1      -5.989  12.758  24.343  0.00  0.00    +0.000 A 
ATOM     25  C   UNL     1      -6.066  13.595  23.226  0.00  0.00    +0.000 A 
ENDBRANCH  19  20
ENDBRANCH   1  19
TORSDOF 2
ENDMDL
