MODEL 1
REMARK VINA RESULT:      -8.2      0.000      0.000
REMARK  Name = 
REMARK  9 active torsions:
REMARK  status: ('A' for Active; 'I' for Inactive)
REMARK    1  A    between atoms: C_1  and  N_2
REMARK    2  A    between atoms: C_5  and  C_6
REMARK    3  A    between atoms: C_9  and  C_10
REMARK    4  A    between atoms: C_13  and  N_14
REMARK    5  A    between atoms: C_16  and  C_17
REMARK    6  A    between atoms: C_17  and  O_18
REMARK    7  A    between atoms: O_18  and  P_19
REMARK    8  A    between atoms: P_19  and  O_21
REMARK    9  A    between atoms: P_19  and  O_22
REMARK                            x       y       z     vdW  Elec       q    Type
REMARK                         _______ _______ _______ _____ _____    ______ ____
ROOT
ATOM      1  C   UNL     1       1.138   8.835  20.496  0.00  0.00    +0.000 A 
ATOM      2  C   UNL     1       1.337   7.622  21.170  0.00  0.00    +0.000 A 
ATOM      3  C   UNL     1       1.934   6.518  20.540  0.00  0.00    +0.000 A 
ATOM      4  C   UNL     1       2.372   6.588  19.216  0.00  0.00    +0.000 A 
ATOM      5  C   UNL     1       2.180   7.792  18.536  0.00  0.00    +0.000 A 
ATOM      6  C   UNL     1       1.573   8.882  19.165  0.00  0.00    +0.000 A 
ATOM      7  F   UNL     1       1.410   9.994  18.433  0.00  0.00    +0.000 F 
ENDROOT
BRANCH   1  11
ATOM      8  C   UNL     1      -0.590  12.231  22.407  0.00  0.00    +0.000 A 
ATOM      9  C   UNL     1      -1.057  10.964  22.746  0.00  0.00    +0.000 A 
ATOM     10  C   UNL     1      -0.501   9.848  22.118  0.00  0.00    +0.000 A 
ATOM     11  C   UNL     1       0.518   9.995  21.166  0.00  0.00    +0.000 A 
ATOM     12  C   UNL     1       0.918  11.310  20.912  0.00  0.00    +0.000 A 
ATOM     13  N   UNL     1       0.396  12.414  21.498  0.00  0.00    +0.000 NA
BRANCH   8  18
ATOM     14  C   UNL     1      -1.190  16.660  24.251  0.00  0.00    +0.000 C 
ATOM     15  N   UNL     1      -1.432  15.310  23.823  0.00  0.00    +0.000 N 
ATOM     16  N   UNL     1      -2.627  14.726  23.953  0.00  0.00    +0.000 NA
ATOM     17  N   UNL     1      -2.463  13.514  23.441  0.00  0.00    +0.000 NA
ATOM     18  C   UNL     1      -1.152  13.428  23.024  0.00  0.00    +0.000 A 
ATOM     19  N   UNL     1      -0.466  14.566  23.259  0.00  0.00    +0.000 NA
ENDBRANCH   8  18
ENDBRANCH   1  11
BRANCH   4  20
ATOM     20  N   UNL     1       3.002   5.492  18.580  0.00  0.00    +0.000 N 
ATOM     21  C   UNL     1       4.417   5.261  18.649  0.00  0.00    +0.000 C 
ATOM     22  C   UNL     1       4.571   3.882  18.052  0.00  0.00    +0.000 C 
ATOM     23  O   UNL     1       3.358   3.647  17.334  0.00  0.00    +0.000 OA
ATOM     24  C   UNL     1       2.421   4.551  17.738  0.00  0.00    +0.000 C 
ATOM     25  O   UNL     1       1.268   4.491  17.357  0.00  0.00    +0.000 OA
BRANCH  22  26
ATOM     26  C   UNL     1       5.739   3.777  17.094  0.00  0.00    +0.000 C 
BRANCH  26  27
ATOM     27  O   UNL     1       5.312   4.007  15.760  0.00  0.00    +0.000 OA
BRANCH  27  28
ATOM     28  P   UNL     1       6.561   4.786  14.850  0.00  0.00    +0.000 P 
ATOM     29  O   UNL     1       5.895   6.145  15.027  0.00  0.00    +0.000 OA
BRANCH  28  30
ATOM     30  O   UNL     1       7.555   4.619  16.125  0.00  0.00    +0.000 OA
ATOM     31  H   UNL     1       8.421   4.997  15.889  0.00  0.00    +0.000 HD
ENDBRANCH  28  30
BRANCH  28  32
ATOM     32  O   UNL     1       7.809   5.565  13.941  0.00  0.00    +0.000 OA
ATOM     33  H   UNL     1       8.458   5.887  14.596  0.00  0.00    +0.000 HD
ENDBRANCH  28  32
ENDBRANCH  27  28
ENDBRANCH  26  27
ENDBRANCH  22  26
ENDBRANCH   4  20
TORSDOF 8
ENDMDL
MODEL 2
REMARK VINA RESULT:      -8.2      0.752      1.067
REMARK  Name = 
REMARK  9 active torsions:
REMARK  status: ('A' for Active; 'I' for Inactive)
REMARK    1  A    between atoms: C_1  and  N_2
REMARK    2  A    between atoms: C_5  and  C_6
REMARK    3  A    between atoms: C_9  and  C_10
REMARK    4  A    between atoms: C_13  and  N_14
REMARK    5  A    between atoms: C_16  and  C_17
REMARK    6  A    between atoms: C_17  and  O_18
REMARK    7  A    between atoms: O_18  and  P_19
REMARK    8  A    between atoms: P_19  and  O_21
REMARK    9  A    between atoms: P_19  and  O_22
REMARK                            x       y       z     vdW  Elec       q    Type
REMARK                         _______ _______ _______ _____ _____    ______ ____
ROOT
ATOM      1  C   UNL     1       1.158   8.742  20.335  0.00  0.00    +0.000 A 
ATOM      2  C   UNL     1       1.345   7.501  20.961  0.00  0.00    +0.000 A 
ATOM      3  C   UNL     1       1.917   6.414  20.283  0.00  0.00    +0.000 A 
ATOM      4  C   UNL     1       2.342   6.527  18.957  0.00  0.00    +0.000 A 
ATOM      5  C   UNL     1       2.161   7.758  18.325  0.00  0.00    +0.000 A 
ATOM      6  C   UNL     1       1.578   8.833  19.002  0.00  0.00    +0.000 A 
ATOM      7  F   UNL     1       1.424   9.974  18.314  0.00  0.00    +0.000 F 
ENDROOT
BRANCH   1  11
ATOM      8  C   UNL     1      -0.500  12.091  22.387  0.00  0.00    +0.000 A 
ATOM      9  C   UNL     1      -0.902  10.812  22.762  0.00  0.00    +0.000 A 
ATOM     10  C   UNL     1      -0.369   9.711  22.089  0.00  0.00    +0.000 A 
ATOM     11  C   UNL     1       0.563   9.885  21.056  0.00  0.00    +0.000 A 
ATOM     12  C   UNL     1       0.903  11.210  20.771  0.00  0.00    +0.000 A 
ATOM     13  N   UNL     1       0.402  12.300  21.399  0.00  0.00    +0.000 NA
BRANCH   8  18
ATOM     14  C   UNL     1      -3.358  15.174  24.774  0.00  0.00    +0.000 C 
ATOM     15  N   UNL     1      -2.247  14.609  24.060  0.00  0.00    +0.000 N 
ATOM     16  N   UNL     1      -1.136  15.308  23.804  0.00  0.00    +0.000 NA
ATOM     17  N   UNL     1      -0.351  14.460  23.155  0.00  0.00    +0.000 NA
ATOM     18  C   UNL     1      -1.043  13.272  23.049  0.00  0.00    +0.000 A 
ATOM     19  N   UNL     1      -2.263  13.340  23.620  0.00  0.00    +0.000 NA
ENDBRANCH   8  18
ENDBRANCH   1  11
BRANCH   4  20
ATOM     20  N   UNL     1       2.947   5.446  18.273  0.00  0.00    +0.000 N 
ATOM     21  C   UNL     1       4.354   5.395  17.990  0.00  0.00    +0.000 C 
ATOM     22  C   UNL     1       4.554   3.984  17.491  0.00  0.00    +0.000 C 
ATOM     23  O   UNL     1       3.249   3.522  17.137  0.00  0.00    +0.000 OA
ATOM     24  C   UNL     1       2.320   4.350  17.694  0.00  0.00    +0.000 C 
ATOM     25  O   UNL     1       1.129   4.108  17.634  0.00  0.00    +0.000 OA
BRANCH  22  26
ATOM     26  C   UNL     1       5.452   3.906  16.274  0.00  0.00    +0.000 C 
BRANCH  26  27
ATOM     27  O   UNL     1       5.346   5.091  15.500  0.00  0.00    +0.000 OA
BRANCH  27  28
ATOM     28  P   UNL     1       6.726   5.269  14.472  0.00  0.00    +0.000 P 
ATOM     29  O   UNL     1       7.647   5.442  15.673  0.00  0.00    +0.000 OA
BRANCH  28  30
ATOM     30  O   UNL     1       6.681   3.671  14.183  0.00  0.00    +0.000 OA
ATOM     31  H   UNL     1       6.929   3.205  15.002  0.00  0.00    +0.000 HD
ENDBRANCH  28  30
BRANCH  28  32
ATOM     32  O   UNL     1       8.105   5.447  13.443  0.00  0.00    +0.000 OA
ATOM     33  H   UNL     1       8.806   5.840  13.999  0.00  0.00    +0.000 HD
ENDBRANCH  28  32
ENDBRANCH  27  28
ENDBRANCH  26  27
ENDBRANCH  22  26
ENDBRANCH   4  20
TORSDOF 8
ENDMDL
MODEL 3
REMARK VINA RESULT:      -8.1      1.644      2.012
REMARK  Name = 
REMARK  9 active torsions:
REMARK  status: ('A' for Active; 'I' for Inactive)
REMARK    1  A    between atoms: C_1  and  N_2
REMARK    2  A    between atoms: C_5  and  C_6
REMARK    3  A    between atoms: C_9  and  C_10
REMARK    4  A    between atoms: C_13  and  N_14
REMARK    5  A    between atoms: C_16  and  C_17
REMARK    6  A    between atoms: C_17  and  O_18
REMARK    7  A    between atoms: O_18  and  P_19
REMARK    8  A    between atoms: P_19  and  O_21
REMARK    9  A    between atoms: P_19  and  O_22
REMARK                            x       y       z     vdW  Elec       q    Type
REMARK                         _______ _______ _______ _____ _____    ______ ____
ROOT
ATOM      1  C   UNL     1       1.046   9.474  19.512  0.00  0.00    +0.000 A 
ATOM      2  C   UNL     1       1.535   9.268  18.214  0.00  0.00    +0.000 A 
ATOM      3  C   UNL     1       2.242   8.106  17.869  0.00  0.00    +0.000 A 
ATOM      4  C   UNL     1       2.474   7.093  18.802  0.00  0.00    +0.000 A 
ATOM      5  C   UNL     1       1.990   7.287  20.097  0.00  0.00    +0.000 A 
ATOM      6  C   UNL     1       1.299   8.452  20.438  0.00  0.00    +0.000 A 
ATOM      7  F   UNL     1       0.885   8.566  21.708  0.00  0.00    +0.000 F 
ENDROOT
BRANCH   1  11
ATOM      8  C   UNL     1      -1.065  13.015  20.595  0.00  0.00    +0.000 A 
ATOM      9  C   UNL     1      -1.719  12.055  19.828  0.00  0.00    +0.000 A 
ATOM     10  C   UNL     1      -1.032  10.897  19.463  0.00  0.00    +0.000 A 
ATOM     11  C   UNL     1       0.295  10.694  19.867  0.00  0.00    +0.000 A 
ATOM     12  C   UNL     1       0.850  11.716  20.643  0.00  0.00    +0.000 A 
ATOM     13  N   UNL     1       0.213  12.854  21.010  0.00  0.00    +0.000 NA
BRANCH   8  18
ATOM     14  C   UNL     1      -4.218  16.226  22.363  0.00  0.00    +0.000 C 
ATOM     15  N   UNL     1      -3.071  15.640  21.726  0.00  0.00    +0.000 N 
ATOM     16  N   UNL     1      -2.081  16.383  21.221  0.00  0.00    +0.000 NA
ATOM     17  N   UNL     1      -1.214  15.501  20.742  0.00  0.00    +0.000 NA
ATOM     18  C   UNL     1      -1.737  14.249  20.986  0.00  0.00    +0.000 A 
ATOM     19  N   UNL     1      -2.930  14.309  21.615  0.00  0.00    +0.000 NA
ENDBRANCH   8  18
ENDBRANCH   1  11
BRANCH   4  20
ATOM     20  N   UNL     1       3.159   5.904  18.458  0.00  0.00    +0.000 N 
ATOM     21  C   UNL     1       4.587   5.778  18.535  0.00  0.00    +0.000 C 
ATOM     22  C   UNL     1       4.816   4.301  18.321  0.00  0.00    +0.000 C 
ATOM     23  O   UNL     1       3.606   3.815  17.737  0.00  0.00    +0.000 OA
ATOM     24  C   UNL     1       2.623   4.741  17.919  0.00  0.00    +0.000 C 
ATOM     25  O   UNL     1       1.468   4.517  17.610  0.00  0.00    +0.000 OA
BRANCH  22  26
ATOM     26  C   UNL     1       5.969   4.009  17.384  0.00  0.00    +0.000 C 
BRANCH  26  27
ATOM     27  O   UNL     1       5.523   3.985  16.037  0.00  0.00    +0.000 OA
BRANCH  27  28
ATOM     28  P   UNL     1       6.681   4.746  15.001  0.00  0.00    +0.000 P 
ATOM     29  O   UNL     1       5.943   6.076  15.089  0.00  0.00    +0.000 OA
BRANCH  28  30
ATOM     30  O   UNL     1       7.738   4.753  16.235  0.00  0.00    +0.000 OA
ATOM     31  H   UNL     1       7.275   5.067  17.033  0.00  0.00    +0.000 HD
ENDBRANCH  28  30
BRANCH  28  32
ATOM     32  O   UNL     1       7.840   5.507  13.966  0.00  0.00    +0.000 OA
ATOM     33  H   UNL     1       8.695   5.454  14.436  0.00  0.00    +0.000 HD
ENDBRANCH  28  32
ENDBRANCH  27  28
ENDBRANCH  26  27
ENDBRANCH  22  26
ENDBRANCH   4  20
TORSDOF 8
ENDMDL
MODEL 4
REMARK VINA RESULT:      -7.9      1.866      2.151
REMARK  Name = 
REMARK  9 active torsions:
REMARK  status: ('A' for Active; 'I' for Inactive)
REMARK    1  A    between atoms: C_1  and  N_2
REMARK    2  A    between atoms: C_5  and  C_6
REMARK    3  A    between atoms: C_9  and  C_10
REMARK    4  A    between atoms: C_13  and  N_14
REMARK    5  A    between atoms: C_16  and  C_17
REMARK    6  A    between atoms: C_17  and  O_18
REMARK    7  A    between atoms: O_18  and  P_19
REMARK    8  A    between atoms: P_19  and  O_21
REMARK    9  A    between atoms: P_19  and  O_22
REMARK                            x       y       z     vdW  Elec       q    Type
REMARK                         _______ _______ _______ _____ _____    ______ ____
ROOT
ATOM      1  C   UNL     1       1.074   9.514  19.385  0.00  0.00    +0.000 A 
ATOM      2  C   UNL     1       1.641   9.291  18.122  0.00  0.00    +0.000 A 
ATOM      3  C   UNL     1       2.362   8.121  17.835  0.00  0.00    +0.000 A 
ATOM      4  C   UNL     1       2.532   7.119  18.794  0.00  0.00    +0.000 A 
ATOM      5  C   UNL     1       1.969   7.332  20.054  0.00  0.00    +0.000 A 
ATOM      6  C   UNL     1       1.264   8.504  20.337  0.00  0.00    +0.000 A 
ATOM      7  F   UNL     1       0.774   8.636  21.578  0.00  0.00    +0.000 F 
ENDROOT
BRANCH   1  11
ATOM      8  C   UNL     1      -1.075  13.086  20.280  0.00  0.00    +0.000 A 
ATOM      9  C   UNL     1      -1.758  12.024  19.693  0.00  0.00    +0.000 A 
ATOM     10  C   UNL     1      -1.059  10.855  19.390  0.00  0.00    +0.000 A 
ATOM     11  C   UNL     1       0.309  10.742  19.678  0.00  0.00    +0.000 A 
ATOM     12  C   UNL     1       0.890  11.863  20.277  0.00  0.00    +0.000 A 
ATOM     13  N   UNL     1       0.243  13.014  20.579  0.00  0.00    +0.000 NA
BRANCH   8  18
ATOM     14  C   UNL     1      -2.215  17.756  20.793  0.00  0.00    +0.000 C 
ATOM     15  N   UNL     1      -2.266  16.320  20.835  0.00  0.00    +0.000 N 
ATOM     16  N   UNL     1      -3.314  15.660  21.338  0.00  0.00    +0.000 NA
ATOM     17  N   UNL     1      -3.003  14.380  21.191  0.00  0.00    +0.000 NA
ATOM     18  C   UNL     1      -1.759  14.334  20.599  0.00  0.00    +0.000 A 
ATOM     19  N   UNL     1      -1.262  15.566  20.361  0.00  0.00    +0.000 NA
ENDBRANCH   8  18
ENDBRANCH   1  11
BRANCH   4  20
ATOM     20  N   UNL     1       3.231   5.923  18.508  0.00  0.00    +0.000 N 
ATOM     21  C   UNL     1       4.646   5.887  18.270  0.00  0.00    +0.000 C 
ATOM     22  C   UNL     1       4.957   4.409  18.264  0.00  0.00    +0.000 C 
ATOM     23  O   UNL     1       3.699   3.762  18.070  0.00  0.00    +0.000 OA
ATOM     24  C   UNL     1       2.699   4.654  18.316  0.00  0.00    +0.000 C 
ATOM     25  O   UNL     1       1.529   4.318  18.328  0.00  0.00    +0.000 OA
BRANCH  22  26
ATOM     26  C   UNL     1       5.898   4.006  17.147  0.00  0.00    +0.000 C 
BRANCH  26  27
ATOM     27  O   UNL     1       5.351   4.355  15.885  0.00  0.00    +0.000 OA
BRANCH  27  28
ATOM     28  P   UNL     1       6.593   4.930  14.825  0.00  0.00    +0.000 P 
ATOM     29  O   UNL     1       7.661   4.695  15.886  0.00  0.00    +0.000 OA
BRANCH  28  30
ATOM     30  O   UNL     1       6.490   3.538  13.995  0.00  0.00    +0.000 OA
ATOM     31  H   UNL     1       5.559   3.397  13.745  0.00  0.00    +0.000 HD
ENDBRANCH  28  30
BRANCH  28  32
ATOM     32  O   UNL     1       7.833   5.506  13.766  0.00  0.00    +0.000 OA
ATOM     33  H   UNL     1       7.439   6.250  13.271  0.00  0.00    +0.000 HD
ENDBRANCH  28  32
ENDBRANCH  27  28
ENDBRANCH  26  27
ENDBRANCH  22  26
ENDBRANCH   4  20
TORSDOF 8
ENDMDL
MODEL 5
REMARK VINA RESULT:      -7.9      2.036      2.716
REMARK  Name = 
REMARK  9 active torsions:
REMARK  status: ('A' for Active; 'I' for Inactive)
REMARK    1  A    between atoms: C_1  and  N_2
REMARK    2  A    between atoms: C_5  and  C_6
REMARK    3  A    between atoms: C_9  and  C_10
REMARK    4  A    between atoms: C_13  and  N_14
REMARK    5  A    between atoms: C_16  and  C_17
REMARK    6  A    between atoms: C_17  and  O_18
REMARK    7  A    between atoms: O_18  and  P_19
REMARK    8  A    between atoms: P_19  and  O_21
REMARK    9  A    between atoms: P_19  and  O_22
REMARK                            x       y       z     vdW  Elec       q    Type
REMARK                         _______ _______ _______ _____ _____    ______ ____
ROOT
ATOM      1  C   UNL     1       1.856   8.175  19.494  0.00  0.00    +0.000 A 
ATOM      2  C   UNL     1       2.412   8.545  18.261  0.00  0.00    +0.000 A 
ATOM      3  C   UNL     1       3.234   7.670  17.533  0.00  0.00    +0.000 A 
ATOM      4  C   UNL     1       3.519   6.385  17.998  0.00  0.00    +0.000 A 
ATOM      5  C   UNL     1       2.969   6.006  19.224  0.00  0.00    +0.000 A 
ATOM      6  C   UNL     1       2.163   6.887  19.951  0.00  0.00    +0.000 A 
ATOM      7  F   UNL     1       1.691   6.450  21.128  0.00  0.00    +0.000 F 
ENDROOT
BRANCH   1  11
ATOM      8  C   UNL     1      -0.669  10.877  21.614  0.00  0.00    +0.000 A 
ATOM      9  C   UNL     1       0.154  10.022  22.341  0.00  0.00    +0.000 A 
ATOM     10  C   UNL     1       0.977   9.129  21.654  0.00  0.00    +0.000 A 
ATOM     11  C   UNL     1       0.986   9.096  20.252  0.00  0.00    +0.000 A 
ATOM     12  C   UNL     1       0.129  10.005  19.625  0.00  0.00    +0.000 A 
ATOM     13  N   UNL     1      -0.686  10.879  20.261  0.00  0.00    +0.000 NA
BRANCH   8  18
ATOM     14  C   UNL     1      -3.918  12.878  24.583  0.00  0.00    +0.000 C 
ATOM     15  N   UNL     1      -2.948  12.691  23.540  0.00  0.00    +0.000 N 
ATOM     16  N   UNL     1      -2.557  13.692  22.744  0.00  0.00    +0.000 NA
ATOM     17  N   UNL     1      -1.662  13.143  21.935  0.00  0.00    +0.000 NA
ATOM     18  C   UNL     1      -1.560  11.815  22.289  0.00  0.00    +0.000 A 
ATOM     19  N   UNL     1      -2.376  11.497  23.315  0.00  0.00    +0.000 NA
ENDBRANCH   8  18
ENDBRANCH   1  11
BRANCH   4  20
ATOM     20  N   UNL     1       4.321   5.484  17.258  0.00  0.00    +0.000 N 
ATOM     21  C   UNL     1       5.561   5.869  16.646  0.00  0.00    +0.000 C 
ATOM     22  C   UNL     1       6.152   4.551  16.205  0.00  0.00    +0.000 C 
ATOM     23  O   UNL     1       5.060   3.630  16.210  0.00  0.00    +0.000 OA
ATOM     24  C   UNL     1       4.030   4.168  16.922  0.00  0.00    +0.000 C 
ATOM     25  O   UNL     1       3.022   3.532  17.168  0.00  0.00    +0.000 OA
BRANCH  22  26
ATOM     26  C   UNL     1       6.748   4.603  14.814  0.00  0.00    +0.000 C 
BRANCH  26  27
ATOM     27  O   UNL     1       5.736   4.436  13.832  0.00  0.00    +0.000 OA
BRANCH  27  28
ATOM     28  P   UNL     1       6.212   3.247  12.669  0.00  0.00    +0.000 P 
ATOM     29  O   UNL     1       4.884   3.380  11.932  0.00  0.00    +0.000 OA
BRANCH  28  30
ATOM     30  O   UNL     1       7.198   4.345  11.990  0.00  0.00    +0.000 OA
ATOM     31  H   UNL     1       6.708   5.183  11.901  0.00  0.00    +0.000 HD
ENDBRANCH  28  30
BRANCH  28  32
ATOM     32  O   UNL     1       6.688   2.058  11.506  0.00  0.00    +0.000 OA
ATOM     33  H   UNL     1       7.655   1.960  11.603  0.00  0.00    +0.000 HD
ENDBRANCH  28  32
ENDBRANCH  27  28
ENDBRANCH  26  27
ENDBRANCH  22  26
ENDBRANCH   4  20
TORSDOF 8
ENDMDL
MODEL 6
REMARK VINA RESULT:      -7.9      2.671      3.130
REMARK  Name = 
REMARK  9 active torsions:
REMARK  status: ('A' for Active; 'I' for Inactive)
REMARK    1  A    between atoms: C_1  and  N_2
REMARK    2  A    between atoms: C_5  and  C_6
REMARK    3  A    between atoms: C_9  and  C_10
REMARK    4  A    between atoms: C_13  and  N_14
REMARK    5  A    between atoms: C_16  and  C_17
REMARK    6  A    between atoms: C_17  and  O_18
REMARK    7  A    between atoms: O_18  and  P_19
REMARK    8  A    between atoms: P_19  and  O_21
REMARK    9  A    between atoms: P_19  and  O_22
REMARK                            x       y       z     vdW  Elec       q    Type
REMARK                         _______ _______ _______ _____ _____    ______ ____
ROOT
ATOM      1  C   UNL     1       1.364   9.992  19.028  0.00  0.00    +0.000 A 
ATOM      2  C   UNL     1       2.012   9.507  17.883  0.00  0.00    +0.000 A 
ATOM      3  C   UNL     1       2.524   8.201  17.824  0.00  0.00    +0.000 A 
ATOM      4  C   UNL     1       2.395   7.322  18.902  0.00  0.00    +0.000 A 
ATOM      5  C   UNL     1       1.750   7.795  20.046  0.00  0.00    +0.000 A 
ATOM      6  C   UNL     1       1.255   9.100  20.103  0.00  0.00    +0.000 A 
ATOM      7  F   UNL     1       0.667   9.479  21.247  0.00  0.00    +0.000 F 
ENDROOT
BRANCH   1  11
ATOM      8  C   UNL     1      -0.141  13.976  19.217  0.00  0.00    +0.000 A 
ATOM      9  C   UNL     1      -1.026  12.940  18.932  0.00  0.00    +0.000 A 
ATOM     10  C   UNL     1      -0.539  11.634  18.860  0.00  0.00    +0.000 A 
ATOM     11  C   UNL     1       0.819  11.363  19.080  0.00  0.00    +0.000 A 
ATOM     12  C   UNL     1       1.614  12.475  19.370  0.00  0.00    +0.000 A 
ATOM     13  N   UNL     1       1.175  13.755  19.442  0.00  0.00    +0.000 NA
BRANCH   8  18
ATOM     14  C   UNL     1      -1.094  18.607  18.209  0.00  0.00    +0.000 C 
ATOM     15  N   UNL     1      -1.014  17.340  18.881  0.00  0.00    +0.000 N 
ATOM     16  N   UNL     1      -1.537  17.145  20.096  0.00  0.00    +0.000 NA
ATOM     17  N   UNL     1      -1.280  15.873  20.369  0.00  0.00    +0.000 NA
ATOM     18  C   UNL     1      -0.601  15.359  19.285  0.00  0.00    +0.000 A 
ATOM     19  N   UNL     1      -0.415  16.279  18.316  0.00  0.00    +0.000 NA
ENDBRANCH   8  18
ENDBRANCH   1  11
BRANCH   4  20
ATOM     20  N   UNL     1       2.881   5.994  18.844  0.00  0.00    +0.000 N 
ATOM     21  C   UNL     1       4.155   5.608  19.382  0.00  0.00    +0.000 C 
ATOM     22  C   UNL     1       4.116   4.100  19.311  0.00  0.00    +0.000 C 
ATOM     23  O   UNL     1       3.069   3.794  18.387  0.00  0.00    +0.000 OA
ATOM     24  C   UNL     1       2.300   4.905  18.207  0.00  0.00    +0.000 C 
ATOM     25  O   UNL     1       1.276   4.874  17.550  0.00  0.00    +0.000 OA
BRANCH  22  26
ATOM     26  C   UNL     1       5.410   3.496  18.808  0.00  0.00    +0.000 C 
BRANCH  26  27
ATOM     27  O   UNL     1       6.451   4.460  18.829  0.00  0.00    +0.000 OA
BRANCH  27  28
ATOM     28  P   UNL     1       6.919   4.881  17.217  0.00  0.00    +0.000 P 
ATOM     29  O   UNL     1       8.265   4.186  17.385  0.00  0.00    +0.000 OA
BRANCH  28  30
ATOM     30  O   UNL     1       5.907   3.741  16.656  0.00  0.00    +0.000 OA
ATOM     31  H   UNL     1       5.967   3.730  15.684  0.00  0.00    +0.000 HD
ENDBRANCH  28  30
BRANCH  28  32
ATOM     32  O   UNL     1       7.386   5.303  15.606  0.00  0.00    +0.000 OA
ATOM     33  H   UNL     1       6.572   5.251  15.068  0.00  0.00    +0.000 HD
ENDBRANCH  28  32
ENDBRANCH  27  28
ENDBRANCH  26  27
ENDBRANCH  22  26
ENDBRANCH   4  20
TORSDOF 8
ENDMDL
MODEL 7
REMARK VINA RESULT:      -7.9      1.880      2.203
REMARK  Name = 
REMARK  9 active torsions:
REMARK  status: ('A' for Active; 'I' for Inactive)
REMARK    1  A    between atoms: C_1  and  N_2
REMARK    2  A    between atoms: C_5  and  C_6
REMARK    3  A    between atoms: C_9  and  C_10
REMARK    4  A    between atoms: C_13  and  N_14
REMARK    5  A    between atoms: C_16  and  C_17
REMARK    6  A    between atoms: C_17  and  O_18
REMARK    7  A    between atoms: O_18  and  P_19
REMARK    8  A    between atoms: P_19  and  O_21
REMARK    9  A    between atoms: P_19  and  O_22
REMARK                            x       y       z     vdW  Elec       q    Type
REMARK                         _______ _______ _______ _____ _____    ______ ____
ROOT
ATOM      1  C   UNL     1       1.305   8.936  19.459  0.00  0.00    +0.000 A 
ATOM      2  C   UNL     1       1.502   7.835  20.305  0.00  0.00    +0.000 A 
ATOM      3  C   UNL     1       2.370   6.787  19.959  0.00  0.00    +0.000 A 
ATOM      4  C   UNL     1       3.088   6.804  18.761  0.00  0.00    +0.000 A 
ATOM      5  C   UNL     1       2.899   7.897  17.913  0.00  0.00    +0.000 A 
ATOM      6  C   UNL     1       2.024   8.930  18.257  0.00  0.00    +0.000 A 
ATOM      7  F   UNL     1       1.888   9.932  17.376  0.00  0.00    +0.000 F 
ENDROOT
BRANCH   1  11
ATOM      8  C   UNL     1      -1.354  12.112  20.466  0.00  0.00    +0.000 A 
ATOM      9  C   UNL     1      -0.163  11.988  21.176  0.00  0.00    +0.000 A 
ATOM     10  C   UNL     1       0.709  10.946  20.857  0.00  0.00    +0.000 A 
ATOM     11  C   UNL     1       0.398  10.039  19.833  0.00  0.00    +0.000 A 
ATOM     12  C   UNL     1      -0.817  10.265  19.180  0.00  0.00    +0.000 A 
ATOM     13  N   UNL     1      -1.687  11.262  19.468  0.00  0.00    +0.000 NA
BRANCH   8  18
ATOM     14  C   UNL     1      -5.273  14.576  21.861  0.00  0.00    +0.000 C 
ATOM     15  N   UNL     1      -3.967  14.249  21.358  0.00  0.00    +0.000 N 
ATOM     16  N   UNL     1      -3.101  15.189  20.964  0.00  0.00    +0.000 NA
ATOM     17  N   UNL     1      -2.025  14.512  20.588  0.00  0.00    +0.000 NA
ATOM     18  C   UNL     1      -2.304  13.175  20.776  0.00  0.00    +0.000 A 
ATOM     19  N   UNL     1      -3.545  12.978  21.268  0.00  0.00    +0.000 NA
ENDBRANCH   8  18
ENDBRANCH   1  11
BRANCH   4  20
ATOM     20  N   UNL     1       3.987   5.769  18.416  0.00  0.00    +0.000 N 
ATOM     21  C   UNL     1       5.413   5.910  18.516  0.00  0.00    +0.000 C 
ATOM     22  C   UNL     1       5.916   4.504  18.289  0.00  0.00    +0.000 C 
ATOM     23  O   UNL     1       4.826   3.810  17.679  0.00  0.00    +0.000 OA
ATOM     24  C   UNL     1       3.685   4.534  17.855  0.00  0.00    +0.000 C 
ATOM     25  O   UNL     1       2.596   4.103  17.524  0.00  0.00    +0.000 OA
BRANCH  22  26
ATOM     26  C   UNL     1       7.116   4.445  17.368  0.00  0.00    +0.000 C 
BRANCH  26  27
ATOM     27  O   UNL     1       6.948   5.330  16.271  0.00  0.00    +0.000 OA
BRANCH  27  28
ATOM     28  P   UNL     1       6.686   4.442  14.809  0.00  0.00    +0.000 P 
ATOM     29  O   UNL     1       5.309   5.067  14.630  0.00  0.00    +0.000 OA
BRANCH  28  30
ATOM     30  O   UNL     1       7.720   5.440  14.051  0.00  0.00    +0.000 OA
ATOM     31  H   UNL     1       8.492   4.921  13.763  0.00  0.00    +0.000 HD
ENDBRANCH  28  30
BRANCH  28  32
ATOM     32  O   UNL     1       6.426   3.553  13.348  0.00  0.00    +0.000 OA
ATOM     33  H   UNL     1       7.306   3.453  12.935  0.00  0.00    +0.000 HD
ENDBRANCH  28  32
ENDBRANCH  27  28
ENDBRANCH  26  27
ENDBRANCH  22  26
ENDBRANCH   4  20
TORSDOF 8
ENDMDL
MODEL 8
REMARK VINA RESULT:      -7.9      1.437      1.546
REMARK  Name = 
REMARK  9 active torsions:
REMARK  status: ('A' for Active; 'I' for Inactive)
REMARK    1  A    between atoms: C_1  and  N_2
REMARK    2  A    between atoms: C_5  and  C_6
REMARK    3  A    between atoms: C_9  and  C_10
REMARK    4  A    between atoms: C_13  and  N_14
REMARK    5  A    between atoms: C_16  and  C_17
REMARK    6  A    between atoms: C_17  and  O_18
REMARK    7  A    between atoms: O_18  and  P_19
REMARK    8  A    between atoms: P_19  and  O_21
REMARK    9  A    between atoms: P_19  and  O_22
REMARK                            x       y       z     vdW  Elec       q    Type
REMARK                         _______ _______ _______ _____ _____    ______ ____
ROOT
ATOM      1  C   UNL     1       1.022   9.289  19.813  0.00  0.00    +0.000 A 
ATOM      2  C   UNL     1       1.239   8.223  20.699  0.00  0.00    +0.000 A 
ATOM      3  C   UNL     1       1.932   7.068  20.305  0.00  0.00    +0.000 A 
ATOM      4  C   UNL     1       2.452   6.937  19.015  0.00  0.00    +0.000 A 
ATOM      5  C   UNL     1       2.243   7.994  18.126  0.00  0.00    +0.000 A 
ATOM      6  C   UNL     1       1.540   9.135  18.521  0.00  0.00    +0.000 A 
ATOM      7  F   UNL     1       1.368  10.093  17.598  0.00  0.00    +0.000 F 
ENDROOT
BRANCH   1  11
ATOM      8  C   UNL     1      -1.114  12.792  20.969  0.00  0.00    +0.000 A 
ATOM      9  C   UNL     1       0.145  12.566  21.518  0.00  0.00    +0.000 A 
ATOM     10  C   UNL     1       0.847  11.417  21.150  0.00  0.00    +0.000 A 
ATOM     11  C   UNL     1       0.300  10.505  20.236  0.00  0.00    +0.000 A 
ATOM     12  C   UNL     1      -0.964  10.837  19.739  0.00  0.00    +0.000 A 
ATOM     13  N   UNL     1      -1.674  11.939  20.079  0.00  0.00    +0.000 NA
BRANCH   8  18
ATOM     14  C   UNL     1      -3.398  17.053  20.908  0.00  0.00    +0.000 C 
ATOM     15  N   UNL     1      -2.869  15.788  21.338  0.00  0.00    +0.000 N 
ATOM     16  N   UNL     1      -3.083  15.308  22.568  0.00  0.00    +0.000 NA
ATOM     17  N   UNL     1      -2.461  14.137  22.581  0.00  0.00    +0.000 NA
ATOM     18  C   UNL     1      -1.892  13.970  21.337  0.00  0.00    +0.000 A 
ATOM     19  N   UNL     1      -2.136  15.015  20.519  0.00  0.00    +0.000 NA
ENDBRANCH   8  18
ENDBRANCH   1  11
BRANCH   4  20
ATOM     20  N   UNL     1       3.178   5.791  18.616  0.00  0.00    +0.000 N 
ATOM     21  C   UNL     1       4.609   5.709  18.695  0.00  0.00    +0.000 C 
ATOM     22  C   UNL     1       4.889   4.253  18.408  0.00  0.00    +0.000 C 
ATOM     23  O   UNL     1       3.698   3.757  17.793  0.00  0.00    +0.000 OA
ATOM     24  C   UNL     1       2.684   4.639  18.016  0.00  0.00    +0.000 C 
ATOM     25  O   UNL     1       1.538   4.392  17.689  0.00  0.00    +0.000 OA
BRANCH  22  26
ATOM     26  C   UNL     1       6.055   4.047  17.464  0.00  0.00    +0.000 C 
BRANCH  26  27
ATOM     27  O   UNL     1       5.599   3.939  16.125  0.00  0.00    +0.000 OA
BRANCH  27  28
ATOM     28  P   UNL     1       6.705   4.715  15.044  0.00  0.00    +0.000 P 
ATOM     29  O   UNL     1       6.028   6.063  15.257  0.00  0.00    +0.000 OA
BRANCH  28  30
ATOM     30  O   UNL     1       7.851   4.617  16.191  0.00  0.00    +0.000 OA
ATOM     31  H   UNL     1       8.346   5.456  16.202  0.00  0.00    +0.000 HD
ENDBRANCH  28  30
BRANCH  28  32
ATOM     32  O   UNL     1       7.811   5.490  13.963  0.00  0.00    +0.000 OA
ATOM     33  H   UNL     1       7.274   6.100  13.420  0.00  0.00    +0.000 HD
ENDBRANCH  28  32
ENDBRANCH  27  28
ENDBRANCH  26  27
ENDBRANCH  22  26
ENDBRANCH   4  20
TORSDOF 8
ENDMDL
MODEL 9
REMARK VINA RESULT:      -7.9      1.450      1.650
REMARK  Name = 
REMARK  9 active torsions:
REMARK  status: ('A' for Active; 'I' for Inactive)
REMARK    1  A    between atoms: C_1  and  N_2
REMARK    2  A    between atoms: C_5  and  C_6
REMARK    3  A    between atoms: C_9  and  C_10
REMARK    4  A    between atoms: C_13  and  N_14
REMARK    5  A    between atoms: C_16  and  C_17
REMARK    6  A    between atoms: C_17  and  O_18
REMARK    7  A    between atoms: O_18  and  P_19
REMARK    8  A    between atoms: P_19  and  O_21
REMARK    9  A    between atoms: P_19  and  O_22
REMARK                            x       y       z     vdW  Elec       q    Type
REMARK                         _______ _______ _______ _____ _____    ______ ____
ROOT
ATOM      1  C   UNL     1       1.264   8.931  19.741  0.00  0.00    +0.000 A 
ATOM      2  C   UNL     1       1.515   7.834  20.578  0.00  0.00    +0.000 A 
ATOM      3  C   UNL     1       2.333   6.769  20.170  0.00  0.00    +0.000 A 
ATOM      4  C   UNL     1       2.948   6.765  18.916  0.00  0.00    +0.000 A 
ATOM      5  C   UNL     1       2.707   7.853  18.076  0.00  0.00    +0.000 A 
ATOM      6  C   UNL     1       1.880   8.904  18.483  0.00  0.00    +0.000 A 
ATOM      7  F   UNL     1       1.686   9.900  17.607  0.00  0.00    +0.000 F 
ENDROOT
BRANCH   1  11
ATOM      8  C   UNL     1      -1.168  12.165  21.080  0.00  0.00    +0.000 A 
ATOM      9  C   UNL     1      -1.513  11.514  19.899  0.00  0.00    +0.000 A 
ATOM     10  C   UNL     1      -0.717  10.459  19.451  0.00  0.00    +0.000 A 
ATOM     11  C   UNL     1       0.410  10.053  20.179  0.00  0.00    +0.000 A 
ATOM     12  C   UNL     1       0.657  10.768  21.354  0.00  0.00    +0.000 A 
ATOM     13  N   UNL     1      -0.092  11.799  21.814  0.00  0.00    +0.000 NA
BRANCH   8  18
ATOM     14  C   UNL     1      -3.701  15.171  23.896  0.00  0.00    +0.000 C 
ATOM     15  N   UNL     1      -3.051  14.579  22.758  0.00  0.00    +0.000 N 
ATOM     16  N   UNL     1      -3.058  15.160  21.554  0.00  0.00    +0.000 NA
ATOM     17  N   UNL     1      -2.358  14.338  20.785  0.00  0.00    +0.000 NA
ATOM     18  C   UNL     1      -1.961  13.284  21.579  0.00  0.00    +0.000 A 
ATOM     19  N   UNL     1      -2.394  13.412  22.851  0.00  0.00    +0.000 NA
ENDBRANCH   8  18
ENDBRANCH   1  11
BRANCH   4  20
ATOM     20  N   UNL     1       3.799   5.711  18.505  0.00  0.00    +0.000 N 
ATOM     21  C   UNL     1       5.228   5.773  18.627  0.00  0.00    +0.000 C 
ATOM     22  C   UNL     1       5.663   4.362  18.306  0.00  0.00    +0.000 C 
ATOM     23  O   UNL     1       4.547   3.769  17.639  0.00  0.00    +0.000 OA
ATOM     24  C   UNL     1       3.442   4.536  17.856  0.00  0.00    +0.000 C 
ATOM     25  O   UNL     1       2.337   4.185  17.486  0.00  0.00    +0.000 OA
BRANCH  22  26
ATOM     26  C   UNL     1       6.870   4.307  17.393  0.00  0.00    +0.000 C 
BRANCH  26  27
ATOM     27  O   UNL     1       6.725   5.223  16.318  0.00  0.00    +0.000 OA
BRANCH  27  28
ATOM     28  P   UNL     1       6.582   4.377  14.816  0.00  0.00    +0.000 P 
ATOM     29  O   UNL     1       5.217   5.001  14.551  0.00  0.00    +0.000 OA
BRANCH  28  30
ATOM     30  O   UNL     1       7.662   5.403  14.168  0.00  0.00    +0.000 OA
ATOM     31  H   UNL     1       7.182   6.045  13.613  0.00  0.00    +0.000 HD
ENDBRANCH  28  30
BRANCH  28  32
ATOM     32  O   UNL     1       6.439   3.532  13.313  0.00  0.00    +0.000 OA
ATOM     33  H   UNL     1       6.567   4.202  12.615  0.00  0.00    +0.000 HD
ENDBRANCH  28  32
ENDBRANCH  27  28
ENDBRANCH  26  27
ENDBRANCH  22  26
ENDBRANCH   4  20
TORSDOF 8
ENDMDL
