MODEL 1
REMARK VINA RESULT:      -9.0      0.000      0.000
REMARK  Name = 
REMARK  2 active torsions:
REMARK  status: ('A' for Active; 'I' for Inactive)
REMARK    1  A    between atoms: C_5  and  C_7
REMARK    2  A    between atoms: C_7  and  C_8
REMARK                            x       y       z     vdW  Elec       q    Type
REMARK                         _______ _______ _______ _____ _____    ______ ____
ROOT
ATOM      1  C   UNL     1       2.985   6.229  18.771  0.00  0.00    +0.000 C 
ATOM      2  C   UNL     1       2.304   4.887  19.020  0.00  0.00    +0.000 A 
ATOM      3  C   UNL     1       1.345   4.554  19.965  0.00  0.00    +0.000 A 
ATOM      4  C   UNL     1       0.872   3.242  20.004  0.00  0.00    +0.000 A 
ATOM      5  C   UNL     1       1.378   2.273  19.127  0.00  0.00    +0.000 A 
ATOM      6  C   UNL     1       2.367   2.602  18.198  0.00  0.00    +0.000 A 
ATOM      7  C   UNL     1       2.824   3.908  18.148  0.00  0.00    +0.000 A 
ATOM      8  C   UNL     1       3.829   4.514  17.303  0.00  0.00    +0.000 A 
ATOM      9  C   UNL     1       4.622   3.947  16.318  0.00  0.00    +0.000 A 
ATOM     10  C   UNL     1       5.533   4.762  15.644  0.00  0.00    +0.000 A 
ATOM     11  C   UNL     1       5.641   6.126  15.960  0.00  0.00    +0.000 A 
ATOM     12  C   UNL     1       4.845   6.698  16.959  0.00  0.00    +0.000 A 
ATOM     13  C   UNL     1       3.940   5.884  17.625  0.00  0.00    +0.000 A 
ENDROOT
BRANCH   1  14
ATOM     14  C   UNL     1       2.019   7.369  18.411  0.00  0.00    +0.000 C 
BRANCH  14  19
ATOM     15  O   UNL     1      -1.077  11.306  21.363  0.00  0.00    +0.000 OA
ATOM     16  C   UNL     1      -0.542  10.723  20.426  0.00  0.00    +0.000 C 
ATOM     17  C   UNL     1       0.978  10.565  20.310  0.00  0.00    +0.000 C 
ATOM     18  N   UNL     1       1.307   9.592  19.265  0.00  0.00    +0.000 N 
ATOM     19  C   UNL     1       1.686   8.285  19.594  0.00  0.00    +0.000 C 
ATOM     20  O   UNL     1       1.754   7.900  20.743  0.00  0.00    +0.000 OA
ATOM     21  C   UNL     1       0.715   9.888  17.970  0.00  0.00    +0.000 C 
ATOM     22  C   UNL     1      -0.794  10.019  18.087  0.00  0.00    +0.000 C 
ATOM     23  O   UNL     1      -1.530  10.011  17.105  0.00  0.00    +0.000 OA
ATOM     24  N   UNL     1      -1.283  10.322  19.336  0.00  0.00    +0.000 N 
ATOM     25  H   UNL     1      -2.275  10.504  19.385  0.00  0.00    +0.000 HD
ENDBRANCH  14  19
ENDBRANCH   1  14
TORSDOF 2
ENDMDL
MODEL 2
REMARK VINA RESULT:      -8.7      1.670      3.867
REMARK  Name = 
REMARK  2 active torsions:
REMARK  status: ('A' for Active; 'I' for Inactive)
REMARK    1  A    between atoms: C_5  and  C_7
REMARK    2  A    between atoms: C_7  and  C_8
REMARK                            x       y       z     vdW  Elec       q    Type
REMARK                         _______ _______ _______ _____ _____    ______ ____
ROOT
ATOM      1  C   UNL     1       3.153   6.330  17.760  0.00  0.00    +0.000 C 
ATOM      2  C   UNL     1       4.666   6.190  17.618  0.00  0.00    +0.000 A 
ATOM      3  C   UNL     1       5.617   7.172  17.382  0.00  0.00    +0.000 A 
ATOM      4  C   UNL     1       6.956   6.795  17.284  0.00  0.00    +0.000 A 
ATOM      5  C   UNL     1       7.330   5.448  17.392  0.00  0.00    +0.000 A 
ATOM      6  C   UNL     1       6.368   4.457  17.598  0.00  0.00    +0.000 A 
ATOM      7  C   UNL     1       5.040   4.834  17.711  0.00  0.00    +0.000 A 
ATOM      8  C   UNL     1       3.856   4.030  17.918  0.00  0.00    +0.000 A 
ATOM      9  C   UNL     1       3.726   2.655  18.043  0.00  0.00    +0.000 A 
ATOM     10  C   UNL     1       2.449   2.121  18.231  0.00  0.00    +0.000 A 
ATOM     11  C   UNL     1       1.326   2.961  18.290  0.00  0.00    +0.000 A 
ATOM     12  C   UNL     1       1.455   4.348  18.156  0.00  0.00    +0.000 A 
ATOM     13  C   UNL     1       2.726   4.874  17.972  0.00  0.00    +0.000 A 
ENDROOT
BRANCH   1  14
ATOM     14  C   UNL     1       2.709   7.247  18.910  0.00  0.00    +0.000 C 
BRANCH  14  19
ATOM     15  O   UNL     1       0.206  12.459  19.514  0.00  0.00    +0.000 OA
ATOM     16  C   UNL     1       0.539  11.303  19.751  0.00  0.00    +0.000 C 
ATOM     17  C   UNL     1       0.138  10.127  18.855  0.00  0.00    +0.000 C 
ATOM     18  N   UNL     1       0.907   8.932  19.213  0.00  0.00    +0.000 N 
ATOM     19  C   UNL     1       1.997   8.520  18.438  0.00  0.00    +0.000 C 
ATOM     20  O   UNL     1       2.355   9.125  17.448  0.00  0.00    +0.000 OA
ATOM     21  C   UNL     1       0.818   8.569  20.619  0.00  0.00    +0.000 C 
ATOM     22  C   UNL     1       1.240   9.731  21.502  0.00  0.00    +0.000 C 
ATOM     23  O   UNL     1       1.492   9.589  22.694  0.00  0.00    +0.000 OA
ATOM     24  N   UNL     1       1.158  10.983  20.940  0.00  0.00    +0.000 N 
ATOM     25  H   UNL     1       1.345  11.755  21.563  0.00  0.00    +0.000 HD
ENDBRANCH  14  19
ENDBRANCH   1  14
TORSDOF 2
ENDMDL
MODEL 3
REMARK VINA RESULT:      -8.6      1.486      3.865
REMARK  Name = 
REMARK  2 active torsions:
REMARK  status: ('A' for Active; 'I' for Inactive)
REMARK    1  A    between atoms: C_5  and  C_7
REMARK    2  A    between atoms: C_7  and  C_8
REMARK                            x       y       z     vdW  Elec       q    Type
REMARK                         _______ _______ _______ _____ _____    ______ ____
ROOT
ATOM      1  C   UNL     1       2.461   6.162  18.193  0.00  0.00    +0.000 C 
ATOM      2  C   UNL     1       3.755   5.800  17.471  0.00  0.00    +0.000 A 
ATOM      3  C   UNL     1       4.492   6.552  16.568  0.00  0.00    +0.000 A 
ATOM      4  C   UNL     1       5.653   5.998  16.028  0.00  0.00    +0.000 A 
ATOM      5  C   UNL     1       6.051   4.698  16.368  0.00  0.00    +0.000 A 
ATOM      6  C   UNL     1       5.290   3.930  17.252  0.00  0.00    +0.000 A 
ATOM      7  C   UNL     1       4.146   4.486  17.801  0.00  0.00    +0.000 A 
ATOM      8  C   UNL     1       3.185   3.925  18.724  0.00  0.00    +0.000 A 
ATOM      9  C   UNL     1       3.138   2.666  19.301  0.00  0.00    +0.000 A 
ATOM     10  C   UNL     1       2.083   2.368  20.166  0.00  0.00    +0.000 A 
ATOM     11  C   UNL     1       1.093   3.325  20.441  0.00  0.00    +0.000 A 
ATOM     12  C   UNL     1       1.135   4.594  19.852  0.00  0.00    +0.000 A 
ATOM     13  C   UNL     1       2.187   4.886  18.995  0.00  0.00    +0.000 A 
ENDROOT
BRANCH   1  14
ATOM     14  C   UNL     1       2.563   7.408  19.086  0.00  0.00    +0.000 C 
BRANCH  14  19
ATOM     15  O   UNL     1       0.185  12.713  19.112  0.00  0.00    +0.000 OA
ATOM     16  C   UNL     1       0.466  11.571  19.461  0.00  0.00    +0.000 C 
ATOM     17  C   UNL     1       0.090  10.338  18.631  0.00  0.00    +0.000 C 
ATOM     18  N   UNL     1       0.797   9.157  19.133  0.00  0.00    +0.000 N 
ATOM     19  C   UNL     1       1.924   8.657  18.469  0.00  0.00    +0.000 C 
ATOM     20  O   UNL     1       2.366   9.174  17.463  0.00  0.00    +0.000 OA
ATOM     21  C   UNL     1       0.603   8.907  20.553  0.00  0.00    +0.000 C 
ATOM     22  C   UNL     1       0.999  10.124  21.371  0.00  0.00    +0.000 C 
ATOM     23  O   UNL     1       1.167  10.070  22.586  0.00  0.00    +0.000 OA
ATOM     24  N   UNL     1       0.993  11.330  20.710  0.00  0.00    +0.000 N 
ATOM     25  H   UNL     1       1.161  12.144  21.284  0.00  0.00    +0.000 HD
ENDBRANCH  14  19
ENDBRANCH   1  14
TORSDOF 2
ENDMDL
MODEL 4
REMARK VINA RESULT:      -8.5      4.889      6.484
REMARK  Name = 
REMARK  2 active torsions:
REMARK  status: ('A' for Active; 'I' for Inactive)
REMARK    1  A    between atoms: C_5  and  C_7
REMARK    2  A    between atoms: C_7  and  C_8
REMARK                            x       y       z     vdW  Elec       q    Type
REMARK                         _______ _______ _______ _____ _____    ______ ____
ROOT
ATOM      1  C   UNL     1       4.431   4.349  16.181  0.00  0.00    +0.000 C 
ATOM      2  C   UNL     1       5.375   4.848  17.270  0.00  0.00    +0.000 A 
ATOM      3  C   UNL     1       5.109   5.106  18.607  0.00  0.00    +0.000 A 
ATOM      4  C   UNL     1       6.147   5.567  19.417  0.00  0.00    +0.000 A 
ATOM      5  C   UNL     1       7.424   5.793  18.885  0.00  0.00    +0.000 A 
ATOM      6  C   UNL     1       7.682   5.564  17.532  0.00  0.00    +0.000 A 
ATOM      7  C   UNL     1       6.655   5.090  16.732  0.00  0.00    +0.000 A 
ATOM      8  C   UNL     1       6.642   4.776  15.320  0.00  0.00    +0.000 A 
ATOM      9  C   UNL     1       7.652   4.878  14.377  0.00  0.00    +0.000 A 
ATOM     10  C   UNL     1       7.373   4.512  13.059  0.00  0.00    +0.000 A 
ATOM     11  C   UNL     1       6.096   4.051  12.701  0.00  0.00    +0.000 A 
ATOM     12  C   UNL     1       5.072   3.955  13.651  0.00  0.00    +0.000 A 
ATOM     13  C   UNL     1       5.356   4.318  14.960  0.00  0.00    +0.000 A 
ENDROOT
BRANCH   1  14
ATOM     14  C   UNL     1       3.795   2.981  16.473  0.00  0.00    +0.000 C 
BRANCH  14  19
ATOM     15  O   UNL     1       1.007   2.886  21.574  0.00  0.00    +0.000 OA
ATOM     16  C   UNL     1       1.811   2.606  20.692  0.00  0.00    +0.000 C 
ATOM     17  C   UNL     1       1.385   2.031  19.336  0.00  0.00    +0.000 C 
ATOM     18  N   UNL     1       2.507   2.071  18.395  0.00  0.00    +0.000 N 
ATOM     19  C   UNL     1       2.580   3.058  17.405  0.00  0.00    +0.000 C 
ATOM     20  O   UNL     1       1.732   3.919  17.283  0.00  0.00    +0.000 OA
ATOM     21  C   UNL     1       3.713   1.418  18.881  0.00  0.00    +0.000 C 
ATOM     22  C   UNL     1       4.144   2.009  20.212  0.00  0.00    +0.000 C 
ATOM     23  O   UNL     1       5.257   1.806  20.688  0.00  0.00    +0.000 OA
ATOM     24  N   UNL     1       3.166   2.641  20.942  0.00  0.00    +0.000 N 
ATOM     25  H   UNL     1       3.436   2.943  21.867  0.00  0.00    +0.000 HD
ENDBRANCH  14  19
ENDBRANCH   1  14
TORSDOF 2
ENDMDL
MODEL 5
REMARK VINA RESULT:      -8.1      4.142      6.010
REMARK  Name = 
REMARK  2 active torsions:
REMARK  status: ('A' for Active; 'I' for Inactive)
REMARK    1  A    between atoms: C_5  and  C_7
REMARK    2  A    between atoms: C_7  and  C_8
REMARK                            x       y       z     vdW  Elec       q    Type
REMARK                         _______ _______ _______ _____ _____    ______ ____
ROOT
ATOM      1  C   UNL     1       3.673   3.892  17.861  0.00  0.00    +0.000 C 
ATOM      2  C   UNL     1       2.648   3.492  18.917  0.00  0.00    +0.000 A 
ATOM      3  C   UNL     1       2.335   2.229  19.399  0.00  0.00    +0.000 A 
ATOM      4  C   UNL     1       1.343   2.113  20.373  0.00  0.00    +0.000 A 
ATOM      5  C   UNL     1       0.655   3.244  20.832  0.00  0.00    +0.000 A 
ATOM      6  C   UNL     1       0.947   4.510  20.322  0.00  0.00    +0.000 A 
ATOM      7  C   UNL     1       1.944   4.628  19.368  0.00  0.00    +0.000 A 
ATOM      8  C   UNL     1       2.442   5.797  18.676  0.00  0.00    +0.000 A 
ATOM      9  C   UNL     1       2.043   7.121  18.770  0.00  0.00    +0.000 A 
ATOM     10  C   UNL     1       2.691   8.069  17.975  0.00  0.00    +0.000 A 
ATOM     11  C   UNL     1       3.721   7.685  17.102  0.00  0.00    +0.000 A 
ATOM     12  C   UNL     1       4.119   6.347  17.001  0.00  0.00    +0.000 A 
ATOM     13  C   UNL     1       3.474   5.409  17.794  0.00  0.00    +0.000 A 
ENDROOT
BRANCH   1  14
ATOM     14  C   UNL     1       5.119   3.503  18.207  0.00  0.00    +0.000 C 
BRANCH  14  19
ATOM     15  O   UNL     1       8.449   8.263  18.444  0.00  0.00    +0.000 OA
ATOM     16  C   UNL     1       7.998   7.186  18.070  0.00  0.00    +0.000 C 
ATOM     17  C   UNL     1       8.033   5.927  18.943  0.00  0.00    +0.000 C 
ATOM     18  N   UNL     1       7.178   4.887  18.365  0.00  0.00    +0.000 N 
ATOM     19  C   UNL     1       5.908   4.626  18.891  0.00  0.00    +0.000 C 
ATOM     20  O   UNL     1       5.457   5.244  19.834  0.00  0.00    +0.000 OA
ATOM     21  C   UNL     1       7.487   4.567  16.979  0.00  0.00    +0.000 C 
ATOM     22  C   UNL     1       7.428   5.814  16.115  0.00  0.00    +0.000 C 
ATOM     23  O   UNL     1       7.397   5.760  14.889  0.00  0.00    +0.000 OA
ATOM     24  N   UNL     1       7.585   7.015  16.767  0.00  0.00    +0.000 N 
ATOM     25  H   UNL     1       7.643   7.830  16.174  0.00  0.00    +0.000 HD
ENDBRANCH  14  19
ENDBRANCH   1  14
TORSDOF 2
ENDMDL
MODEL 6
REMARK VINA RESULT:      -8.1      3.845      5.767
REMARK  Name = 
REMARK  2 active torsions:
REMARK  status: ('A' for Active; 'I' for Inactive)
REMARK    1  A    between atoms: C_5  and  C_7
REMARK    2  A    between atoms: C_7  and  C_8
REMARK                            x       y       z     vdW  Elec       q    Type
REMARK                         _______ _______ _______ _____ _____    ______ ____
ROOT
ATOM      1  C   UNL     1       2.282   4.008  17.900  0.00  0.00    +0.000 C 
ATOM      2  C   UNL     1       2.103   3.403  19.288  0.00  0.00    +0.000 A 
ATOM      3  C   UNL     1       1.978   2.069  19.651  0.00  0.00    +0.000 A 
ATOM      4  C   UNL     1       1.814   1.757  21.001  0.00  0.00    +0.000 A 
ATOM      5  C   UNL     1       1.748   2.771  21.967  0.00  0.00    +0.000 A 
ATOM      6  C   UNL     1       1.842   4.114  21.596  0.00  0.00    +0.000 A 
ATOM      7  C   UNL     1       2.020   4.423  20.258  0.00  0.00    +0.000 A 
ATOM      8  C   UNL     1       2.142   5.707  19.604  0.00  0.00    +0.000 A 
ATOM      9  C   UNL     1       2.096   6.985  20.140  0.00  0.00    +0.000 A 
ATOM     10  C   UNL     1       2.233   8.074  19.277  0.00  0.00    +0.000 A 
ATOM     11  C   UNL     1       2.413   7.875  17.899  0.00  0.00    +0.000 A 
ATOM     12  C   UNL     1       2.451   6.586  17.356  0.00  0.00    +0.000 A 
ATOM     13  C   UNL     1       2.316   5.506  18.218  0.00  0.00    +0.000 A 
ENDROOT
BRANCH   1  14
ATOM     14  C   UNL     1       3.544   3.534  17.162  0.00  0.00    +0.000 C 
BRANCH  14  19
ATOM     15  O   UNL     1       8.113   6.943  18.306  0.00  0.00    +0.000 OA
ATOM     16  C   UNL     1       7.229   6.366  17.681  0.00  0.00    +0.000 C 
ATOM     17  C   UNL     1       7.155   4.839  17.574  0.00  0.00    +0.000 C 
ATOM     18  N   UNL     1       5.857   4.433  17.026  0.00  0.00    +0.000 N 
ATOM     19  C   UNL     1       4.849   3.938  17.860  0.00  0.00    +0.000 C 
ATOM     20  O   UNL     1       4.995   3.826  19.060  0.00  0.00    +0.000 OA
ATOM     21  C   UNL     1       5.528   5.061  15.755  0.00  0.00    +0.000 C 
ATOM     22  C   UNL     1       5.580   6.574  15.874  0.00  0.00    +0.000 C 
ATOM     23  O   UNL     1       5.098   7.314  15.022  0.00  0.00    +0.000 OA
ATOM     24  N   UNL     1       6.347   7.078  16.898  0.00  0.00    +0.000 N 
ATOM     25  H   UNL     1       6.456   8.082  16.909  0.00  0.00    +0.000 HD
ENDBRANCH  14  19
ENDBRANCH   1  14
TORSDOF 2
ENDMDL
MODEL 7
REMARK VINA RESULT:      -8.0      1.585      1.911
REMARK  Name = 
REMARK  2 active torsions:
REMARK  status: ('A' for Active; 'I' for Inactive)
REMARK    1  A    between atoms: C_5  and  C_7
REMARK    2  A    between atoms: C_7  and  C_8
REMARK                            x       y       z     vdW  Elec       q    Type
REMARK                         _______ _______ _______ _____ _____    ______ ____
ROOT
ATOM      1  C   UNL     1       2.819   6.793  18.610  0.00  0.00    +0.000 C 
ATOM      2  C   UNL     1       2.326   5.506  19.263  0.00  0.00    +0.000 A 
ATOM      3  C   UNL     1       1.467   5.345  20.340  0.00  0.00    +0.000 A 
ATOM      4  C   UNL     1       1.165   4.051  20.767  0.00  0.00    +0.000 A 
ATOM      5  C   UNL     1       1.742   2.938  20.140  0.00  0.00    +0.000 A 
ATOM      6  C   UNL     1       2.633   3.103  19.077  0.00  0.00    +0.000 A 
ATOM      7  C   UNL     1       2.919   4.387  18.643  0.00  0.00    +0.000 A 
ATOM      8  C   UNL     1       3.794   4.842  17.585  0.00  0.00    +0.000 A 
ATOM      9  C   UNL     1       4.601   4.114  16.724  0.00  0.00    +0.000 A 
ATOM     10  C   UNL     1       5.366   4.805  15.783  0.00  0.00    +0.000 A 
ATOM     11  C   UNL     1       5.317   6.207  15.715  0.00  0.00    +0.000 A 
ATOM     12  C   UNL     1       4.509   6.943  16.589  0.00  0.00    +0.000 A 
ATOM     13  C   UNL     1       3.749   6.251  17.521  0.00  0.00    +0.000 A 
ENDROOT
BRANCH   1  14
ATOM     14  C   UNL     1       1.701   7.681  18.042  0.00  0.00    +0.000 C 
BRANCH  14  19
ATOM     15  O   UNL     1       1.484  12.627  21.088  0.00  0.00    +0.000 OA
ATOM     16  C   UNL     1       1.162  11.534  20.635  0.00  0.00    +0.000 C 
ATOM     17  C   UNL     1       0.918  11.298  19.141  0.00  0.00    +0.000 C 
ATOM     18  N   UNL     1       0.836   9.862  18.863  0.00  0.00    +0.000 N 
ATOM     19  C   UNL     1       1.918   9.177  18.297  0.00  0.00    +0.000 C 
ATOM     20  O   UNL     1       2.962   9.730  18.018  0.00  0.00    +0.000 OA
ATOM     21  C   UNL     1      -0.149   9.156  19.669  0.00  0.00    +0.000 C 
ATOM     22  C   UNL     1       0.113   9.375  21.149  0.00  0.00    +0.000 C 
ATOM     23  O   UNL     1      -0.416   8.686  22.015  0.00  0.00    +0.000 OA
ATOM     24  N   UNL     1       0.838  10.495  21.480  0.00  0.00    +0.000 N 
ATOM     25  H   UNL     1       0.922  10.685  22.468  0.00  0.00    +0.000 HD
ENDBRANCH  14  19
ENDBRANCH   1  14
TORSDOF 2
ENDMDL
MODEL 8
REMARK VINA RESULT:      -7.7      3.578      6.514
REMARK  Name = 
REMARK  2 active torsions:
REMARK  status: ('A' for Active; 'I' for Inactive)
REMARK    1  A    between atoms: C_5  and  C_7
REMARK    2  A    between atoms: C_7  and  C_8
REMARK                            x       y       z     vdW  Elec       q    Type
REMARK                         _______ _______ _______ _____ _____    ______ ____
ROOT
ATOM      1  C   UNL     1       2.143   6.373  17.963  0.00  0.00    +0.000 C 
ATOM      2  C   UNL     1       1.978   5.021  18.649  0.00  0.00    +0.000 A 
ATOM      3  C   UNL     1       2.116   3.747  18.117  0.00  0.00    +0.000 A 
ATOM      4  C   UNL     1       1.906   2.649  18.951  0.00  0.00    +0.000 A 
ATOM      5  C   UNL     1       1.533   2.828  20.290  0.00  0.00    +0.000 A 
ATOM      6  C   UNL     1       1.363   4.110  20.816  0.00  0.00    +0.000 A 
ATOM      7  C   UNL     1       1.588   5.201  19.992  0.00  0.00    +0.000 A 
ATOM      8  C   UNL     1       1.482   6.617  20.268  0.00  0.00    +0.000 A 
ATOM      9  C   UNL     1       1.110   7.270  21.433  0.00  0.00    +0.000 A 
ATOM     10  C   UNL     1       1.081   8.666  21.434  0.00  0.00    +0.000 A 
ATOM     11  C   UNL     1       1.422   9.388  20.279  0.00  0.00    +0.000 A 
ATOM     12  C   UNL     1       1.790   8.729  19.100  0.00  0.00    +0.000 A 
ATOM     13  C   UNL     1       1.819   7.342  19.105  0.00  0.00    +0.000 A 
ENDROOT
BRANCH   1  14
ATOM     14  C   UNL     1       3.539   6.612  17.366  0.00  0.00    +0.000 C 
BRANCH  14  19
ATOM     15  O   UNL     1       8.729   4.062  17.962  0.00  0.00    +0.000 OA
ATOM     16  C   UNL     1       7.665   4.415  17.464  0.00  0.00    +0.000 C 
ATOM     17  C   UNL     1       6.306   4.006  18.042  0.00  0.00    +0.000 C 
ATOM     18  N   UNL     1       5.237   4.798  17.428  0.00  0.00    +0.000 N 
ATOM     19  C   UNL     1       4.657   5.874  18.111  0.00  0.00    +0.000 C 
ATOM     20  O   UNL     1       5.010   6.201  19.226  0.00  0.00    +0.000 OA
ATOM     21  C   UNL     1       5.220   4.747  15.974  0.00  0.00    +0.000 C 
ATOM     22  C   UNL     1       6.562   5.176  15.407  0.00  0.00    +0.000 C 
ATOM     23  O   UNL     1       6.711   5.459  14.222  0.00  0.00    +0.000 OA
ATOM     24  N   UNL     1       7.643   5.065  16.250  0.00  0.00    +0.000 N 
ATOM     25  H   UNL     1       8.543   5.258  15.834  0.00  0.00    +0.000 HD
ENDBRANCH  14  19
ENDBRANCH   1  14
TORSDOF 2
ENDMDL
MODEL 9
REMARK VINA RESULT:      -7.6      3.697      6.127
REMARK  Name = 
REMARK  2 active torsions:
REMARK  status: ('A' for Active; 'I' for Inactive)
REMARK    1  A    between atoms: C_5  and  C_7
REMARK    2  A    between atoms: C_7  and  C_8
REMARK                            x       y       z     vdW  Elec       q    Type
REMARK                         _______ _______ _______ _____ _____    ______ ____
ROOT
ATOM      1  C   UNL     1       5.488   3.707  16.958  0.00  0.00    +0.000 C 
ATOM      2  C   UNL     1       5.846   3.952  15.496  0.00  0.00    +0.000 A 
ATOM      3  C   UNL     1       5.436   3.257  14.367  0.00  0.00    +0.000 A 
ATOM      4  C   UNL     1       5.909   3.669  13.121  0.00  0.00    +0.000 A 
ATOM      5  C   UNL     1       6.804   4.743  13.014  0.00  0.00    +0.000 A 
ATOM      6  C   UNL     1       7.240   5.420  14.154  0.00  0.00    +0.000 A 
ATOM      7  C   UNL     1       6.758   5.022  15.390  0.00  0.00    +0.000 A 
ATOM      8  C   UNL     1       7.042   5.534  16.712  0.00  0.00    +0.000 A 
ATOM      9  C   UNL     1       7.889   6.557  17.106  0.00  0.00    +0.000 A 
ATOM     10  C   UNL     1       7.990   6.853  18.467  0.00  0.00    +0.000 A 
ATOM     11  C   UNL     1       7.247   6.127  19.412  0.00  0.00    +0.000 A 
ATOM     12  C   UNL     1       6.397   5.088  19.016  0.00  0.00    +0.000 A 
ATOM     13  C   UNL     1       6.299   4.800  17.662  0.00  0.00    +0.000 A 
ENDROOT
BRANCH   1  14
ATOM     14  C   UNL     1       3.985   3.801  17.264  0.00  0.00    +0.000 C 
BRANCH  14  19
ATOM     15  O   UNL     1       1.122   2.359  22.114  0.00  0.00    +0.000 OA
ATOM     16  C   UNL     1       1.764   3.019  21.304  0.00  0.00    +0.000 C 
ATOM     17  C   UNL     1       3.175   2.628  20.852  0.00  0.00    +0.000 C 
ATOM     18  N   UNL     1       3.570   3.421  19.685  0.00  0.00    +0.000 N 
ATOM     19  C   UNL     1       3.533   2.873  18.398  0.00  0.00    +0.000 C 
ATOM     20  O   UNL     1       3.171   1.733  18.189  0.00  0.00    +0.000 OA
ATOM     21  C   UNL     1       3.467   4.859  19.882  0.00  0.00    +0.000 C 
ATOM     22  C   UNL     1       2.060   5.243  20.307  0.00  0.00    +0.000 C 
ATOM     23  O   UNL     1       1.664   6.404  20.284  0.00  0.00    +0.000 OA
ATOM     24  N   UNL     1       1.306   4.249  20.884  0.00  0.00    +0.000 N 
ATOM     25  H   UNL     1       0.411   4.537  21.253  0.00  0.00    +0.000 HD
ENDBRANCH  14  19
ENDBRANCH   1  14
TORSDOF 2
ENDMDL
