MODEL 1
REMARK VINA RESULT:      -8.8      0.000      0.000
REMARK  Name = 
REMARK  6 active torsions:
REMARK  status: ('A' for Active; 'I' for Inactive)
REMARK    1  A    between atoms: C_1  and  C_2
REMARK    2  A    between atoms: C_8  and  C_10
REMARK    3  A    between atoms: N_13  and  S_14
REMARK    4  A    between atoms: S_14  and  C_17
REMARK    5  A    between atoms: C_20  and  C_21
REMARK    6  A    between atoms: C_22  and  C_23
REMARK                            x       y       z     vdW  Elec       q    Type
REMARK                         _______ _______ _______ _____ _____    ______ ____
ROOT
ATOM      1  C   UNL     1       7.811   6.356  17.833  0.00  0.00    +0.000 C 
ATOM      2  C   UNL     1       7.082   5.591  16.717  0.00  0.00    +0.000 C 
ATOM      3  C   UNL     1       5.625   5.295  17.045  0.00  0.00    +0.000 C 
ATOM      4  N   UNL     1       5.580   4.517  18.307  0.00  0.00    +0.000 NA
ATOM      5  C   UNL     1       6.010   5.388  19.443  0.00  0.00    +0.000 C 
ATOM      6  C   UNL     1       7.451   5.860  19.242  0.00  0.00    +0.000 C 
ENDROOT
BRANCH   1  14
ATOM      7  C   UNL     1      11.310  12.093  20.408  0.00  0.00    +0.000 C 
ATOM      8  C   UNL     1      10.210  11.668  19.482  0.00  0.00    +0.000 A 
ATOM      9  C   UNL     1       9.533  12.586  18.685  0.00  0.00    +0.000 A 
ATOM     10  C   UNL     1       8.539  12.110  17.841  0.00  0.00    +0.000 A 
ATOM     11  N   UNL     1       8.190  10.809  17.727  0.00  0.00    +0.000 NA
ATOM     12  C   UNL     1       8.839   9.925  18.495  0.00  0.00    +0.000 A 
ATOM     13  N   UNL     1       8.570   8.551  18.441  0.00  0.00    +0.000 N 
ATOM     14  C   UNL     1       7.687   7.875  17.606  0.00  0.00    +0.000 C 
ATOM     15  O   UNL     1       6.918   8.345  16.780  0.00  0.00    +0.000 OA
ATOM     16  C   UNL     1       9.851  10.321  19.387  0.00  0.00    +0.000 A 
ATOM     17  H   UNL     1       9.103   7.985  19.084  0.00  0.00    +0.000 HD
ENDBRANCH   1  14
BRANCH   4  18
ATOM     18  S   UNL     1       4.060   3.754  18.608  0.00  0.00    +0.000 S 
ATOM     19  O   UNL     1       3.455   3.429  17.334  0.00  0.00    +0.000 OA
ATOM     20  O   UNL     1       4.290   2.736  19.613  0.00  0.00    +0.000 OA
BRANCH  18  21
ATOM     21  C   UNL     1       3.064   5.036  19.340  0.00  0.00    +0.000 A 
ATOM     22  C   UNL     1       2.406   4.808  20.549  0.00  0.00    +0.000 A 
ATOM     23  C   UNL     1       1.606   5.812  21.098  0.00  0.00    +0.000 A 
ATOM     24  C   UNL     1       1.458   7.055  20.455  0.00  0.00    +0.000 A 
ATOM     25  C   UNL     1       0.585   8.101  21.094  0.00  0.00    +0.000 C 
ATOM     26  C   UNL     1       2.131   7.284  19.235  0.00  0.00    +0.000 A 
ATOM     27  C   UNL     1       2.052   8.589  18.491  0.00  0.00    +0.000 C 
ATOM     28  C   UNL     1       2.921   6.258  18.678  0.00  0.00    +0.000 A 
ENDBRANCH  18  21
ENDBRANCH   4  18
TORSDOF 3
ENDMDL
MODEL 2
REMARK VINA RESULT:      -8.5      4.490      8.448
REMARK  Name = 
REMARK  6 active torsions:
REMARK  status: ('A' for Active; 'I' for Inactive)
REMARK    1  A    between atoms: C_1  and  C_2
REMARK    2  A    between atoms: C_8  and  C_10
REMARK    3  A    between atoms: N_13  and  S_14
REMARK    4  A    between atoms: S_14  and  C_17
REMARK    5  A    between atoms: C_20  and  C_21
REMARK    6  A    between atoms: C_22  and  C_23
REMARK                            x       y       z     vdW  Elec       q    Type
REMARK                         _______ _______ _______ _____ _____    ______ ____
ROOT
ATOM      1  C   UNL     1       1.308   9.748  19.704  0.00  0.00    +0.000 C 
ATOM      2  C   UNL     1       1.811   9.207  18.357  0.00  0.00    +0.000 C 
ATOM      3  C   UNL     1       1.624   7.704  18.205  0.00  0.00    +0.000 C 
ATOM      4  N   UNL     1       2.333   7.030  19.319  0.00  0.00    +0.000 NA
ATOM      5  C   UNL     1       1.633   7.329  20.606  0.00  0.00    +0.000 C 
ATOM      6  C   UNL     1       1.647   8.832  20.890  0.00  0.00    +0.000 C 
ENDROOT
BRANCH   1  14
ATOM      7  C   UNL     1      -3.371  10.112  14.248  0.00  0.00    +0.000 C 
ATOM      8  C   UNL     1      -3.218  10.343  15.722  0.00  0.00    +0.000 A 
ATOM      9  C   UNL     1      -4.298  10.713  16.518  0.00  0.00    +0.000 A 
ATOM     10  C   UNL     1      -4.077  10.891  17.877  0.00  0.00    +0.000 A 
ATOM     11  N   UNL     1      -2.884  10.716  18.488  0.00  0.00    +0.000 NA
ATOM     12  C   UNL     1      -1.844  10.363  17.722  0.00  0.00    +0.000 A 
ATOM     13  N   UNL     1      -0.568  10.136  18.257  0.00  0.00    +0.000 N 
ATOM     14  C   UNL     1      -0.169  10.173  19.588  0.00  0.00    +0.000 C 
ATOM     15  O   UNL     1      -0.837  10.466  20.569  0.00  0.00    +0.000 OA
ATOM     16  C   UNL     1      -1.974  10.173  16.336  0.00  0.00    +0.000 A 
ATOM     17  H   UNL     1       0.143   9.901  17.581  0.00  0.00    +0.000 HD
ENDBRANCH   1  14
BRANCH   4  18
ATOM     18  S   UNL     1       2.568   5.336  19.082  0.00  0.00    +0.000 S 
ATOM     19  O   UNL     1       3.033   4.764  20.328  0.00  0.00    +0.000 OA
ATOM     20  O   UNL     1       1.381   4.834  18.420  0.00  0.00    +0.000 OA
BRANCH  18  21
ATOM     21  C   UNL     1       3.925   5.239  17.932  0.00  0.00    +0.000 A 
ATOM     22  C   UNL     1       3.908   4.292  16.908  0.00  0.00    +0.000 A 
ATOM     23  C   UNL     1       4.991   4.208  16.030  0.00  0.00    +0.000 A 
ATOM     24  C   UNL     1       6.096   5.068  16.157  0.00  0.00    +0.000 A 
ATOM     25  C   UNL     1       7.234   4.934  15.181  0.00  0.00    +0.000 C 
ATOM     26  C   UNL     1       6.106   6.030  17.191  0.00  0.00    +0.000 A 
ATOM     27  C   UNL     1       7.233   7.007  17.388  0.00  0.00    +0.000 C 
ATOM     28  C   UNL     1       5.018   6.095  18.084  0.00  0.00    +0.000 A 
ENDBRANCH  18  21
ENDBRANCH   4  18
TORSDOF 3
ENDMDL
MODEL 3
REMARK VINA RESULT:      -8.5      4.557      7.178
REMARK  Name = 
REMARK  6 active torsions:
REMARK  status: ('A' for Active; 'I' for Inactive)
REMARK    1  A    between atoms: C_1  and  C_2
REMARK    2  A    between atoms: C_8  and  C_10
REMARK    3  A    between atoms: N_13  and  S_14
REMARK    4  A    between atoms: S_14  and  C_17
REMARK    5  A    between atoms: C_20  and  C_21
REMARK    6  A    between atoms: C_22  and  C_23
REMARK                            x       y       z     vdW  Elec       q    Type
REMARK                         _______ _______ _______ _____ _____    ______ ____
ROOT
ATOM      1  C   UNL     1       2.119   6.152  18.993  0.00  0.00    +0.000 C 
ATOM      2  C   UNL     1       1.685   7.028  17.808  0.00  0.00    +0.000 C 
ATOM      3  C   UNL     1       1.884   8.517  18.057  0.00  0.00    +0.000 C 
ATOM      4  N   UNL     1       1.121   8.892  19.272  0.00  0.00    +0.000 NA
ATOM      5  C   UNL     1       1.755   8.262  20.471  0.00  0.00    +0.000 C 
ATOM      6  C   UNL     1       1.722   6.737  20.356  0.00  0.00    +0.000 C 
ENDROOT
BRANCH   1  14
ATOM      7  C   UNL     1       6.150   3.922  13.465  0.00  0.00    +0.000 C 
ATOM      8  C   UNL     1       6.185   4.243  14.929  0.00  0.00    +0.000 A 
ATOM      9  C   UNL     1       7.373   4.216  15.654  0.00  0.00    +0.000 A 
ATOM     10  C   UNL     1       7.324   4.543  17.002  0.00  0.00    +0.000 A 
ATOM     11  N   UNL     1       6.199   4.902  17.661  0.00  0.00    +0.000 NA
ATOM     12  C   UNL     1       5.055   4.926  16.966  0.00  0.00    +0.000 A 
ATOM     13  N   UNL     1       3.837   5.303  17.547  0.00  0.00    +0.000 N 
ATOM     14  C   UNL     1       3.598   5.748  18.843  0.00  0.00    +0.000 C 
ATOM     15  O   UNL     1       4.394   5.850  19.765  0.00  0.00    +0.000 OA
ATOM     16  C   UNL     1       5.012   4.597  15.600  0.00  0.00    +0.000 A 
ATOM     17  H   UNL     1       3.039   5.258  16.933  0.00  0.00    +0.000 HD
ENDBRANCH   1  14
BRANCH   4  18
ATOM     18  S   UNL     1       0.903  10.595  19.468  0.00  0.00    +0.000 S 
ATOM     19  O   UNL     1       0.891  10.890  20.885  0.00  0.00    +0.000 OA
ATOM     20  O   UNL     1       1.836  11.246  18.571  0.00  0.00    +0.000 OA
BRANCH  18  21
ATOM     21  C   UNL     1      -0.745  10.897  18.865  0.00  0.00    +0.000 A 
ATOM     22  C   UNL     1      -1.601  11.750  19.563  0.00  0.00    +0.000 A 
ATOM     23  C   UNL     1      -2.900  11.956  19.095  0.00  0.00    +0.000 A 
ATOM     24  C   UNL     1      -3.359  11.323  17.925  0.00  0.00    +0.000 A 
ATOM     25  C   UNL     1      -4.768  11.585  17.465  0.00  0.00    +0.000 C 
ATOM     26  C   UNL     1      -2.488  10.466  17.218  0.00  0.00    +0.000 A 
ATOM     27  C   UNL     1      -2.883   9.767  15.946  0.00  0.00    +0.000 C 
ATOM     28  C   UNL     1      -1.185  10.248  17.708  0.00  0.00    +0.000 A 
ENDBRANCH  18  21
ENDBRANCH   4  18
TORSDOF 3
ENDMDL
MODEL 4
REMARK VINA RESULT:      -8.2      1.384      1.895
REMARK  Name = 
REMARK  6 active torsions:
REMARK  status: ('A' for Active; 'I' for Inactive)
REMARK    1  A    between atoms: C_1  and  C_2
REMARK    2  A    between atoms: C_8  and  C_10
REMARK    3  A    between atoms: N_13  and  S_14
REMARK    4  A    between atoms: S_14  and  C_17
REMARK    5  A    between atoms: C_20  and  C_21
REMARK    6  A    between atoms: C_22  and  C_23
REMARK                            x       y       z     vdW  Elec       q    Type
REMARK                         _______ _______ _______ _____ _____    ______ ____
ROOT
ATOM      1  C   UNL     1       7.153   6.220  17.237  0.00  0.00    +0.000 C 
ATOM      2  C   UNL     1       5.860   6.922  16.794  0.00  0.00    +0.000 C 
ATOM      3  C   UNL     1       4.684   6.659  17.726  0.00  0.00    +0.000 C 
ATOM      4  N   UNL     1       4.467   5.194  17.801  0.00  0.00    +0.000 NA
ATOM      5  C   UNL     1       5.615   4.558  18.518  0.00  0.00    +0.000 C 
ATOM      6  C   UNL     1       6.921   4.794  17.757  0.00  0.00    +0.000 C 
ENDROOT
BRANCH   1  14
ATOM      7  C   UNL     1       8.422  13.303  17.360  0.00  0.00    +0.000 C 
ATOM      8  C   UNL     1       8.710  12.015  18.071  0.00  0.00    +0.000 A 
ATOM      9  C   UNL     1       9.431  11.984  19.261  0.00  0.00    +0.000 A 
ATOM     10  C   UNL     1       9.641  10.752  19.867  0.00  0.00    +0.000 A 
ATOM     11  N   UNL     1       9.180   9.575  19.387  0.00  0.00    +0.000 NA
ATOM     12  C   UNL     1       8.489   9.603  18.240  0.00  0.00    +0.000 A 
ATOM     13  N   UNL     1       7.949   8.444  17.667  0.00  0.00    +0.000 N 
ATOM     14  C   UNL     1       7.971   7.144  18.160  0.00  0.00    +0.000 C 
ATOM     15  O   UNL     1       8.515   6.730  19.174  0.00  0.00    +0.000 OA
ATOM     16  C   UNL     1       8.240  10.804  17.554  0.00  0.00    +0.000 A 
ATOM     17  H   UNL     1       7.471   8.584  16.790  0.00  0.00    +0.000 HD
ENDBRANCH   1  14
BRANCH   4  18
ATOM     18  S   UNL     1       2.943   4.742  18.477  0.00  0.00    +0.000 S 
ATOM     19  O   UNL     1       2.059   4.373  17.392  0.00  0.00    +0.000 OA
ATOM     20  O   UNL     1       3.219   3.829  19.567  0.00  0.00    +0.000 OA
BRANCH  18  21
ATOM     21  C   UNL     1       2.307   6.254  19.170  0.00  0.00    +0.000 A 
ATOM     22  C   UNL     1       1.899   6.296  20.503  0.00  0.00    +0.000 A 
ATOM     23  C   UNL     1       1.375   7.479  21.027  0.00  0.00    +0.000 A 
ATOM     24  C   UNL     1       1.259   8.635  20.232  0.00  0.00    +0.000 A 
ATOM     25  C   UNL     1       0.690   9.884  20.850  0.00  0.00    +0.000 C 
ATOM     26  C   UNL     1       1.679   8.590  18.885  0.00  0.00    +0.000 A 
ATOM     27  C   UNL     1       1.615   9.782  17.969  0.00  0.00    +0.000 C 
ATOM     28  C   UNL     1       2.188   7.386  18.360  0.00  0.00    +0.000 A 
ENDBRANCH  18  21
ENDBRANCH   4  18
TORSDOF 3
ENDMDL
MODEL 5
REMARK VINA RESULT:      -8.1      4.542      8.433
REMARK  Name = 
REMARK  6 active torsions:
REMARK  status: ('A' for Active; 'I' for Inactive)
REMARK    1  A    between atoms: C_1  and  C_2
REMARK    2  A    between atoms: C_8  and  C_10
REMARK    3  A    between atoms: N_13  and  S_14
REMARK    4  A    between atoms: S_14  and  C_17
REMARK    5  A    between atoms: C_20  and  C_21
REMARK    6  A    between atoms: C_22  and  C_23
REMARK                            x       y       z     vdW  Elec       q    Type
REMARK                         _______ _______ _______ _____ _____    ______ ____
ROOT
ATOM      1  C   UNL     1       1.255   9.808  19.771  0.00  0.00    +0.000 C 
ATOM      2  C   UNL     1       1.746   9.174  18.460  0.00  0.00    +0.000 C 
ATOM      3  C   UNL     1       1.475   7.678  18.377  0.00  0.00    +0.000 C 
ATOM      4  N   UNL     1       2.130   7.021  19.535  0.00  0.00    +0.000 NA
ATOM      5  C   UNL     1       1.430   7.422  20.794  0.00  0.00    +0.000 C 
ATOM      6  C   UNL     1       1.526   8.934  21.004  0.00  0.00    +0.000 C 
ENDROOT
BRANCH   1  14
ATOM      7  C   UNL     1      -3.363  10.047  14.257  0.00  0.00    +0.000 C 
ATOM      8  C   UNL     1      -3.205  10.375  15.711  0.00  0.00    +0.000 A 
ATOM      9  C   UNL     1      -4.266  10.863  16.468  0.00  0.00    +0.000 A 
ATOM     10  C   UNL     1      -4.043  11.127  17.813  0.00  0.00    +0.000 A 
ATOM     11  N   UNL     1      -2.865  10.927  18.446  0.00  0.00    +0.000 NA
ATOM     12  C   UNL     1      -1.843  10.460  17.719  0.00  0.00    +0.000 A 
ATOM     13  N   UNL     1      -0.586  10.198  18.280  0.00  0.00    +0.000 N 
ATOM     14  C   UNL     1      -0.194  10.308  19.610  0.00  0.00    +0.000 C 
ATOM     15  O   UNL     1      -0.849  10.710  20.560  0.00  0.00    +0.000 OA
ATOM     16  C   UNL     1      -1.977  10.178  16.348  0.00  0.00    +0.000 A 
ATOM     17  H   UNL     1       0.113   9.874  17.630  0.00  0.00    +0.000 HD
ENDBRANCH   1  14
BRANCH   4  18
ATOM     18  S   UNL     1       2.272   5.306  19.384  0.00  0.00    +0.000 S 
ATOM     19  O   UNL     1       2.314   4.737  20.713  0.00  0.00    +0.000 OA
ATOM     20  O   UNL     1       1.280   4.885  18.415  0.00  0.00    +0.000 OA
BRANCH  18  21
ATOM     21  C   UNL     1       3.883   5.062  18.666  0.00  0.00    +0.000 A 
ATOM     22  C   UNL     1       5.027   5.187  19.456  0.00  0.00    +0.000 A 
ATOM     23  C   UNL     1       6.286   5.021  18.875  0.00  0.00    +0.000 A 
ATOM     24  C   UNL     1       6.420   4.722  17.507  0.00  0.00    +0.000 A 
ATOM     25  C   UNL     1       7.802   4.550  16.935  0.00  0.00    +0.000 C 
ATOM     26  C   UNL     1       5.260   4.589  16.713  0.00  0.00    +0.000 A 
ATOM     27  C   UNL     1       5.306   4.246  15.249  0.00  0.00    +0.000 C 
ATOM     28  C   UNL     1       3.994   4.778  17.303  0.00  0.00    +0.000 A 
ENDBRANCH  18  21
ENDBRANCH   4  18
TORSDOF 3
ENDMDL
MODEL 6
REMARK VINA RESULT:      -8.1      1.566      2.458
REMARK  Name = 
REMARK  6 active torsions:
REMARK  status: ('A' for Active; 'I' for Inactive)
REMARK    1  A    between atoms: C_1  and  C_2
REMARK    2  A    between atoms: C_8  and  C_10
REMARK    3  A    between atoms: N_13  and  S_14
REMARK    4  A    between atoms: S_14  and  C_17
REMARK    5  A    between atoms: C_20  and  C_21
REMARK    6  A    between atoms: C_22  and  C_23
REMARK                            x       y       z     vdW  Elec       q    Type
REMARK                         _______ _______ _______ _____ _____    ______ ____
ROOT
ATOM      1  C   UNL     1       7.070   6.231  17.345  0.00  0.00    +0.000 C 
ATOM      2  C   UNL     1       5.852   7.000  16.809  0.00  0.00    +0.000 C 
ATOM      3  C   UNL     1       4.640   6.922  17.727  0.00  0.00    +0.000 C 
ATOM      4  N   UNL     1       4.293   5.492  17.919  0.00  0.00    +0.000 NA
ATOM      5  C   UNL     1       5.366   4.825  18.719  0.00  0.00    +0.000 C 
ATOM      6  C   UNL     1       6.702   4.881  17.978  0.00  0.00    +0.000 C 
ENDROOT
BRANCH   1  14
ATOM      7  C   UNL     1       8.374  13.308  17.333  0.00  0.00    +0.000 C 
ATOM      8  C   UNL     1       8.700  12.024  18.035  0.00  0.00    +0.000 A 
ATOM      9  C   UNL     1       9.493  11.999  19.178  0.00  0.00    +0.000 A 
ATOM     10  C   UNL     1       9.735  10.772  19.780  0.00  0.00    +0.000 A 
ATOM     11  N   UNL     1       9.240   9.593  19.338  0.00  0.00    +0.000 NA
ATOM     12  C   UNL     1       8.479   9.616  18.237  0.00  0.00    +0.000 A 
ATOM     13  N   UNL     1       7.900   8.455  17.707  0.00  0.00    +0.000 N 
ATOM     14  C   UNL     1       7.947   7.159  18.209  0.00  0.00    +0.000 C 
ATOM     15  O   UNL     1       8.551   6.750  19.189  0.00  0.00    +0.000 OA
ATOM     16  C   UNL     1       8.194  10.813  17.558  0.00  0.00    +0.000 A 
ATOM     17  H   UNL     1       7.370   8.590  16.860  0.00  0.00    +0.000 HD
ENDBRANCH   1  14
BRANCH   4  18
ATOM     18  S   UNL     1       2.722   5.234  18.589  0.00  0.00    +0.000 S 
ATOM     19  O   UNL     1       1.876   4.676  17.556  0.00  0.00    +0.000 OA
ATOM     20  O   UNL     1       2.910   4.557  19.856  0.00  0.00    +0.000 OA
BRANCH  18  21
ATOM     21  C   UNL     1       2.114   6.874  18.924  0.00  0.00    +0.000 A 
ATOM     22  C   UNL     1       1.907   7.771  17.876  0.00  0.00    +0.000 A 
ATOM     23  C   UNL     1       1.457   9.063  18.155  0.00  0.00    +0.000 A 
ATOM     24  C   UNL     1       1.201   9.473  19.476  0.00  0.00    +0.000 A 
ATOM     25  C   UNL     1       0.714  10.877  19.717  0.00  0.00    +0.000 C 
ATOM     26  C   UNL     1       1.405   8.560  20.533  0.00  0.00    +0.000 A 
ATOM     27  C   UNL     1       1.134   8.902  21.973  0.00  0.00    +0.000 C 
ATOM     28  C   UNL     1       1.878   7.264  20.245  0.00  0.00    +0.000 A 
ENDBRANCH  18  21
ENDBRANCH   4  18
TORSDOF 3
ENDMDL
MODEL 7
REMARK VINA RESULT:      -8.1      4.533      7.166
REMARK  Name = 
REMARK  6 active torsions:
REMARK  status: ('A' for Active; 'I' for Inactive)
REMARK    1  A    between atoms: C_1  and  C_2
REMARK    2  A    between atoms: C_8  and  C_10
REMARK    3  A    between atoms: N_13  and  S_14
REMARK    4  A    between atoms: S_14  and  C_17
REMARK    5  A    between atoms: C_20  and  C_21
REMARK    6  A    between atoms: C_22  and  C_23
REMARK                            x       y       z     vdW  Elec       q    Type
REMARK                         _______ _______ _______ _____ _____    ______ ____
ROOT
ATOM      1  C   UNL     1       2.134   6.043  19.219  0.00  0.00    +0.000 C 
ATOM      2  C   UNL     1       1.690   6.838  17.981  0.00  0.00    +0.000 C 
ATOM      3  C   UNL     1       1.891   8.340  18.126  0.00  0.00    +0.000 C 
ATOM      4  N   UNL     1       1.139   8.798  19.320  0.00  0.00    +0.000 NA
ATOM      5  C   UNL     1       1.784   8.250  20.553  0.00  0.00    +0.000 C 
ATOM      6  C   UNL     1       1.750   6.721  20.543  0.00  0.00    +0.000 C 
ENDROOT
BRANCH   1  14
ATOM      7  C   UNL     1       6.313   4.197  13.659  0.00  0.00    +0.000 C 
ATOM      8  C   UNL     1       6.305   4.400  15.144  0.00  0.00    +0.000 A 
ATOM      9  C   UNL     1       7.468   4.296  15.901  0.00  0.00    +0.000 A 
ATOM     10  C   UNL     1       7.379   4.516  17.269  0.00  0.00    +0.000 A 
ATOM     11  N   UNL     1       6.239   4.839  17.920  0.00  0.00    +0.000 NA
ATOM     12  C   UNL     1       5.119   4.936  17.193  0.00  0.00    +0.000 A 
ATOM     13  N   UNL     1       3.888   5.286  17.764  0.00  0.00    +0.000 N 
ATOM     14  C   UNL     1       3.613   5.630  19.083  0.00  0.00    +0.000 C 
ATOM     15  O   UNL     1       4.379   5.645  20.035  0.00  0.00    +0.000 OA
ATOM     16  C   UNL     1       5.115   4.719  15.804  0.00  0.00    +0.000 A 
ATOM     17  H   UNL     1       3.109   5.302  17.124  0.00  0.00    +0.000 HD
ENDBRANCH   1  14
BRANCH   4  18
ATOM     18  S   UNL     1       0.923  10.509  19.401  0.00  0.00    +0.000 S 
ATOM     19  O   UNL     1       0.978  10.907  20.792  0.00  0.00    +0.000 OA
ATOM     20  O   UNL     1       1.809  11.094  18.415  0.00  0.00    +0.000 OA
BRANCH  18  21
ATOM     21  C   UNL     1      -0.753  10.765  18.857  0.00  0.00    +0.000 A 
ATOM     22  C   UNL     1      -1.216  10.142  17.698  0.00  0.00    +0.000 A 
ATOM     23  C   UNL     1      -2.524  10.373  17.267  0.00  0.00    +0.000 A 
ATOM     24  C   UNL     1      -3.386  11.219  17.988  0.00  0.00    +0.000 A 
ATOM     25  C   UNL     1      -4.787  11.429  17.478  0.00  0.00    +0.000 C 
ATOM     26  C   UNL     1      -2.917  11.841  19.165  0.00  0.00    +0.000 A 
ATOM     27  C   UNL     1      -3.775  12.740  20.012  0.00  0.00    +0.000 C 
ATOM     28  C   UNL     1      -1.589  11.618  19.582  0.00  0.00    +0.000 A 
ENDBRANCH  18  21
ENDBRANCH   4  18
TORSDOF 3
ENDMDL
MODEL 8
REMARK VINA RESULT:      -8.1      4.036      5.738
REMARK  Name = 
REMARK  6 active torsions:
REMARK  status: ('A' for Active; 'I' for Inactive)
REMARK    1  A    between atoms: C_1  and  C_2
REMARK    2  A    between atoms: C_8  and  C_10
REMARK    3  A    between atoms: N_13  and  S_14
REMARK    4  A    between atoms: S_14  and  C_17
REMARK    5  A    between atoms: C_20  and  C_21
REMARK    6  A    between atoms: C_22  and  C_23
REMARK                            x       y       z     vdW  Elec       q    Type
REMARK                         _______ _______ _______ _____ _____    ______ ____
ROOT
ATOM      1  C   UNL     1       6.541   4.510  18.358  0.00  0.00    +0.000 C 
ATOM      2  C   UNL     1       5.485   3.418  18.123  0.00  0.00    +0.000 C 
ATOM      3  C   UNL     1       4.066   3.963  18.041  0.00  0.00    +0.000 C 
ATOM      4  N   UNL     1       3.772   4.692  19.299  0.00  0.00    +0.000 NA
ATOM      5  C   UNL     1       4.606   5.931  19.360  0.00  0.00    +0.000 C 
ATOM      6  C   UNL     1       6.094   5.578  19.367  0.00  0.00    +0.000 C 
ENDROOT
BRANCH   1  14
ATOM      7  C   UNL     1       5.680   2.468  11.511  0.00  0.00    +0.000 C 
ATOM      8  C   UNL     1       6.344   3.485  12.391  0.00  0.00    +0.000 A 
ATOM      9  C   UNL     1       7.059   4.553  11.859  0.00  0.00    +0.000 A 
ATOM     10  C   UNL     1       7.630   5.461  12.740  0.00  0.00    +0.000 A 
ATOM     11  N   UNL     1       7.527   5.388  14.087  0.00  0.00    +0.000 NA
ATOM     12  C   UNL     1       6.841   4.359  14.599  0.00  0.00    +0.000 A 
ATOM     13  N   UNL     1       6.656   4.200  15.980  0.00  0.00    +0.000 N 
ATOM     14  C   UNL     1       7.065   5.040  17.009  0.00  0.00    +0.000 C 
ATOM     15  O   UNL     1       7.722   6.068  16.929  0.00  0.00    +0.000 OA
ATOM     16  C   UNL     1       6.241   3.387  13.781  0.00  0.00    +0.000 A 
ATOM     17  H   UNL     1       6.146   3.374  16.250  0.00  0.00    +0.000 HD
ENDBRANCH   1  14
BRANCH   4  18
ATOM     18  S   UNL     1       2.095   5.021  19.546  0.00  0.00    +0.000 S 
ATOM     19  O   UNL     1       1.343   4.341  18.513  0.00  0.00    +0.000 OA
ATOM     20  O   UNL     1       1.822   4.791  20.950  0.00  0.00    +0.000 OA
BRANCH  18  21
ATOM     21  C   UNL     1       1.940   6.767  19.232  0.00  0.00    +0.000 A 
ATOM     22  C   UNL     1       2.278   7.286  17.982  0.00  0.00    +0.000 A 
ATOM     23  C   UNL     1       2.179   8.660  17.757  0.00  0.00    +0.000 A 
ATOM     24  C   UNL     1       1.736   9.531  18.770  0.00  0.00    +0.000 A 
ATOM     25  C   UNL     1       1.646  11.004  18.470  0.00  0.00    +0.000 C 
ATOM     26  C   UNL     1       1.388   9.001  20.031  0.00  0.00    +0.000 A 
ATOM     27  C   UNL     1       0.881   9.851  21.164  0.00  0.00    +0.000 C 
ATOM     28  C   UNL     1       1.510   7.615  20.255  0.00  0.00    +0.000 A 
ENDBRANCH  18  21
ENDBRANCH   4  18
TORSDOF 3
ENDMDL
MODEL 9
REMARK VINA RESULT:      -8.1      4.459      7.384
REMARK  Name = 
REMARK  6 active torsions:
REMARK  status: ('A' for Active; 'I' for Inactive)
REMARK    1  A    between atoms: C_1  and  C_2
REMARK    2  A    between atoms: C_8  and  C_10
REMARK    3  A    between atoms: N_13  and  S_14
REMARK    4  A    between atoms: S_14  and  C_17
REMARK    5  A    between atoms: C_20  and  C_21
REMARK    6  A    between atoms: C_22  and  C_23
REMARK                            x       y       z     vdW  Elec       q    Type
REMARK                         _______ _______ _______ _____ _____    ______ ____
ROOT
ATOM      1  C   UNL     1       2.644   4.734  19.178  0.00  0.00    +0.000 C 
ATOM      2  C   UNL     1       3.879   3.981  19.696  0.00  0.00    +0.000 C 
ATOM      3  C   UNL     1       5.191   4.677  19.362  0.00  0.00    +0.000 C 
ATOM      4  N   UNL     1       5.274   4.835  17.889  0.00  0.00    +0.000 NA
ATOM      5  C   UNL     1       4.244   5.820  17.437  0.00  0.00    +0.000 C 
ATOM      6  C   UNL     1       2.838   5.320  17.771  0.00  0.00    +0.000 C 
ENDROOT
BRANCH   1  14
ATOM      7  C   UNL     1       0.682  11.657  19.067  0.00  0.00    +0.000 C 
ATOM      8  C   UNL     1       0.828  10.460  19.958  0.00  0.00    +0.000 A 
ATOM      9  C   UNL     1       0.424  10.488  21.290  0.00  0.00    +0.000 A 
ATOM     10  C   UNL     1       0.577   9.333  22.044  0.00  0.00    +0.000 A 
ATOM     11  N   UNL     1       1.080   8.171  21.570  0.00  0.00    +0.000 NA
ATOM     12  C   UNL     1       1.472   8.143  20.290  0.00  0.00    +0.000 A 
ATOM     13  N   UNL     1       1.988   6.985  19.694  0.00  0.00    +0.000 N 
ATOM     14  C   UNL     1       2.133   5.718  20.248  0.00  0.00    +0.000 C 
ATOM     15  O   UNL     1       1.892   5.362  21.392  0.00  0.00    +0.000 OA
ATOM     16  C   UNL     1       1.365   9.270  19.458  0.00  0.00    +0.000 A 
ATOM     17  H   UNL     1       2.274   7.090  18.732  0.00  0.00    +0.000 HD
ENDBRANCH   1  14
BRANCH   4  18
ATOM     18  S   UNL     1       6.853   5.228  17.311  0.00  0.00    +0.000 S 
ATOM     19  O   UNL     1       7.009   6.666  17.364  0.00  0.00    +0.000 OA
ATOM     20  O   UNL     1       7.782   4.345  17.986  0.00  0.00    +0.000 OA
BRANCH  18  21
ATOM     21  C   UNL     1       6.814   4.777  15.589  0.00  0.00    +0.000 A 
ATOM     22  C   UNL     1       6.006   3.723  15.160  0.00  0.00    +0.000 A 
ATOM     23  C   UNL     1       6.005   3.360  13.811  0.00  0.00    +0.000 A 
ATOM     24  C   UNL     1       6.802   4.046  12.876  0.00  0.00    +0.000 A 
ATOM     25  C   UNL     1       6.759   3.614  11.434  0.00  0.00    +0.000 C 
ATOM     26  C   UNL     1       7.612   5.116  13.313  0.00  0.00    +0.000 A 
ATOM     27  C   UNL     1       8.476   5.921  12.381  0.00  0.00    +0.000 C 
ATOM     28  C   UNL     1       7.621   5.462  14.679  0.00  0.00    +0.000 A 
ENDBRANCH  18  21
ENDBRANCH   4  18
TORSDOF 3
ENDMDL
