MODEL 1
REMARK VINA RESULT:      -8.8      0.000      0.000
REMARK  Name = 
REMARK  5 active torsions:
REMARK  status: ('A' for Active; 'I' for Inactive)
REMARK    1  A    between atoms: C_2  and  O_3
REMARK    2  A    between atoms: C_2  and  C_4
REMARK    3  A    between atoms: C_11  and  N_12
REMARK    4  A    between atoms: N_12  and  C_13
REMARK    5  A    between atoms: C_15  and  C_16
REMARK                            x       y       z     vdW  Elec       q    Type
REMARK                         _______ _______ _______ _____ _____    ______ ____
ROOT
ATOM      1  C   UNL     1       2.333   6.302  18.852  0.00  0.00    +0.000 A 
ATOM      2  N   UNL     1       3.453   6.476  18.130  0.00  0.00    +0.000 NA
ATOM      3  C   UNL     1       4.412   5.523  18.157  0.00  0.00    +0.000 A 
ATOM      4  N   UNL     1       4.397   4.393  18.874  0.00  0.00    +0.000 NA
ATOM      5  C   UNL     1       3.305   4.290  19.645  0.00  0.00    +0.000 A 
ATOM      6  S   UNL     1       3.117   2.965  20.702  0.00  0.00    +0.000 S 
ATOM      7  C   UNL     1       1.610   3.545  21.259  0.00  0.00    +0.000 A 
ATOM      8  C   UNL     1       1.252   4.723  20.638  0.00  0.00    +0.000 A 
ATOM      9  C   UNL     1       2.242   5.180  19.699  0.00  0.00    +0.000 A 
ENDROOT
BRANCH   3  10
ATOM     10  C   UNL     1       5.595   5.771  17.321  0.00  0.00    +0.000 A 
ATOM     11  N   UNL     1       6.585   6.592  17.726  0.00  0.00    +0.000 NA
ATOM     12  N   UNL     1       7.478   6.558  16.723  0.00  0.00    +0.000 N 
ATOM     13  C   UNL     1       7.112   5.755  15.688  0.00  0.00    +0.000 A 
ATOM     14  N   UNL     1       7.822   5.536  14.561  0.00  0.00    +0.000 NA
ATOM     15  C   UNL     1       7.186   4.693  13.708  0.00  0.00    +0.000 A 
ATOM     16  C   UNL     1       5.948   4.108  13.928  0.00  0.00    +0.000 A 
ATOM     17  F   UNL     1       5.413   3.298  13.006  0.00  0.00    +0.000 F 
ATOM     18  C   UNL     1       5.257   4.366  15.108  0.00  0.00    +0.000 A 
ATOM     19  C   UNL     1       5.877   5.225  16.031  0.00  0.00    +0.000 A 
ATOM     20  H   UNL     1       8.328   7.107  16.802  0.00  0.00    +0.000 HD
ENDBRANCH   3  10
BRANCH   1  21
ATOM     21  N   UNL     1       1.340   7.268  18.763  0.00  0.00    +0.000 N 
ATOM     22  H   UNL     1       0.813   7.234  17.895  0.00  0.00    +0.000 HD
BRANCH  21  30
ATOM     23  C   UNL     1       0.622   9.083  20.291  0.00  0.00    +0.000 C 
ATOM     24  C   UNL     1      -0.005  10.438  19.847  0.00  0.00    +0.000 C 
ATOM     25  C   UNL     1      -0.665  10.179  18.502  0.00  0.00    +0.000 C 
ATOM     26  C   UNL     1       0.175   9.751  17.546  0.00  0.00    +0.000 C 
ATOM     27  C   UNL     1       1.619   9.611  18.002  0.00  0.00    +0.000 C 
ATOM     28  C   UNL     1       2.070  11.001  18.497  0.00  0.00    +0.000 C 
ATOM     29  C   UNL     1       1.105  11.494  19.595  0.00  0.00    +0.000 C 
ATOM     30  C   UNL     1       1.664   8.635  19.227  0.00  0.00    +0.000 C 
BRANCH  23  32
ATOM     31  O   UNL     1       0.885  10.035  22.507  0.00  0.00    +0.000 OA
ATOM     32  C   UNL     1       1.204   9.188  21.685  0.00  0.00    +0.000 C 
BRANCH  32  33
ATOM     33  O   UNL     1       2.058   8.195  22.010  0.00  0.00    +0.000 OA
ATOM     34  H   UNL     1       1.918   7.327  21.561  0.00  0.00    +0.000 HD
ENDBRANCH  32  33
ENDBRANCH  23  32
ENDBRANCH  21  30
ENDBRANCH   1  21
TORSDOF 5
ENDMDL
MODEL 2
REMARK VINA RESULT:      -8.7      1.579      2.296
REMARK  Name = 
REMARK  5 active torsions:
REMARK  status: ('A' for Active; 'I' for Inactive)
REMARK    1  A    between atoms: C_2  and  O_3
REMARK    2  A    between atoms: C_2  and  C_4
REMARK    3  A    between atoms: C_11  and  N_12
REMARK    4  A    between atoms: N_12  and  C_13
REMARK    5  A    between atoms: C_15  and  C_16
REMARK                            x       y       z     vdW  Elec       q    Type
REMARK                         _______ _______ _______ _____ _____    ______ ____
ROOT
ATOM      1  C   UNL     1       2.780   6.088  19.758  0.00  0.00    +0.000 A 
ATOM      2  N   UNL     1       3.882   6.275  19.010  0.00  0.00    +0.000 NA
ATOM      3  C   UNL     1       4.301   5.286  18.190  0.00  0.00    +0.000 A 
ATOM      4  N   UNL     1       3.748   4.075  18.050  0.00  0.00    +0.000 NA
ATOM      5  C   UNL     1       2.702   3.891  18.870  0.00  0.00    +0.000 A 
ATOM      6  S   UNL     1       1.895   2.390  18.914  0.00  0.00    +0.000 S 
ATOM      7  C   UNL     1       0.798   2.946  20.100  0.00  0.00    +0.000 A 
ATOM      8  C   UNL     1       1.038   4.260  20.445  0.00  0.00    +0.000 A 
ATOM      9  C   UNL     1       2.160   4.824  19.741  0.00  0.00    +0.000 A 
ENDROOT
BRANCH   3  10
ATOM     10  C   UNL     1       5.495   5.574  17.384  0.00  0.00    +0.000 A 
ATOM     11  N   UNL     1       6.484   6.366  17.847  0.00  0.00    +0.000 NA
ATOM     12  N   UNL     1       7.389   6.384  16.856  0.00  0.00    +0.000 N 
ATOM     13  C   UNL     1       7.034   5.643  15.772  0.00  0.00    +0.000 A 
ATOM     14  N   UNL     1       7.757   5.485  14.644  0.00  0.00    +0.000 NA
ATOM     15  C   UNL     1       7.129   4.695  13.736  0.00  0.00    +0.000 A 
ATOM     16  C   UNL     1       5.885   4.104  13.907  0.00  0.00    +0.000 A 
ATOM     17  F   UNL     1       5.358   3.350  12.934  0.00  0.00    +0.000 F 
ATOM     18  C   UNL     1       5.180   4.298  15.091  0.00  0.00    +0.000 A 
ATOM     19  C   UNL     1       5.792   5.100  16.069  0.00  0.00    +0.000 A 
ATOM     20  H   UNL     1       8.241   6.923  16.976  0.00  0.00    +0.000 HD
ENDBRANCH   3  10
BRANCH   1  21
ATOM     21  N   UNL     1       2.340   7.140  20.549  0.00  0.00    +0.000 N 
ATOM     22  H   UNL     1       2.256   6.904  21.533  0.00  0.00    +0.000 HD
BRANCH  21  30
ATOM     23  C   UNL     1       1.819   9.340  19.533  0.00  0.00    +0.000 C 
ATOM     24  C   UNL     1       1.060  10.502  20.241  0.00  0.00    +0.000 C 
ATOM     25  C   UNL     1       1.292  10.313  21.732  0.00  0.00    +0.000 C 
ATOM     26  C   UNL     1       0.851   9.141  22.217  0.00  0.00    +0.000 C 
ATOM     27  C   UNL     1       0.208   8.238  21.176  0.00  0.00    +0.000 C 
ATOM     28  C   UNL     1      -0.976   9.021  20.573  0.00  0.00    +0.000 C 
ATOM     29  C   UNL     1      -0.470  10.368  20.015  0.00  0.00    +0.000 C 
ATOM     30  C   UNL     1       1.243   7.983  20.027  0.00  0.00    +0.000 C 
BRANCH  23  32
ATOM     31  O   UNL     1       1.427   8.613  17.251  0.00  0.00    +0.000 OA
ATOM     32  C   UNL     1       1.762   9.496  18.028  0.00  0.00    +0.000 C 
BRANCH  32  33
ATOM     33  O   UNL     1       2.021  10.745  17.585  0.00  0.00    +0.000 OA
ATOM     34  H   UNL     1       2.422  10.820  16.686  0.00  0.00    +0.000 HD
ENDBRANCH  32  33
ENDBRANCH  23  32
ENDBRANCH  21  30
ENDBRANCH   1  21
TORSDOF 5
ENDMDL
MODEL 3
REMARK VINA RESULT:      -8.5      3.781      7.202
REMARK  Name = 
REMARK  5 active torsions:
REMARK  status: ('A' for Active; 'I' for Inactive)
REMARK    1  A    between atoms: C_2  and  O_3
REMARK    2  A    between atoms: C_2  and  C_4
REMARK    3  A    between atoms: C_11  and  N_12
REMARK    4  A    between atoms: N_12  and  C_13
REMARK    5  A    between atoms: C_15  and  C_16
REMARK                            x       y       z     vdW  Elec       q    Type
REMARK                         _______ _______ _______ _____ _____    ______ ____
ROOT
ATOM      1  C   UNL     1       4.332   5.447  18.910  0.00  0.00    +0.000 A 
ATOM      2  N   UNL     1       3.519   6.512  19.024  0.00  0.00    +0.000 NA
ATOM      3  C   UNL     1       3.333   7.319  17.956  0.00  0.00    +0.000 A 
ATOM      4  N   UNL     1       3.909   7.202  16.754  0.00  0.00    +0.000 NA
ATOM      5  C   UNL     1       4.776   6.180  16.699  0.00  0.00    +0.000 A 
ATOM      6  S   UNL     1       5.684   5.894  15.285  0.00  0.00    +0.000 S 
ATOM      7  C   UNL     1       6.463   4.544  15.985  0.00  0.00    +0.000 A 
ATOM      8  C   UNL     1       6.026   4.310  17.271  0.00  0.00    +0.000 A 
ATOM      9  C   UNL     1       5.046   5.269  17.709  0.00  0.00    +0.000 A 
ENDROOT
BRANCH   3  10
ATOM     10  C   UNL     1       2.410   8.446  18.150  0.00  0.00    +0.000 A 
ATOM     11  N   UNL     1       2.172   9.340  17.168  0.00  0.00    +0.000 NA
ATOM     12  N   UNL     1       1.287  10.196  17.704  0.00  0.00    +0.000 N 
ATOM     13  C   UNL     1       0.940   9.900  18.985  0.00  0.00    +0.000 A 
ATOM     14  N   UNL     1       0.071  10.590  19.754  0.00  0.00    +0.000 NA
ATOM     15  C   UNL     1      -0.056  10.053  20.994  0.00  0.00    +0.000 A 
ATOM     16  C   UNL     1       0.615   8.931  21.459  0.00  0.00    +0.000 A 
ATOM     17  F   UNL     1       0.417   8.498  22.710  0.00  0.00    +0.000 F 
ATOM     18  C   UNL     1       1.500   8.255  20.624  0.00  0.00    +0.000 A 
ATOM     19  C   UNL     1       1.660   8.764  19.325  0.00  0.00    +0.000 A 
ATOM     20  H   UNL     1       0.949  10.971  17.141  0.00  0.00    +0.000 HD
ENDBRANCH   3  10
BRANCH   1  21
ATOM     21  N   UNL     1       4.462   4.603  20.004  0.00  0.00    +0.000 N 
ATOM     22  H   UNL     1       5.426   4.394  20.247  0.00  0.00    +0.000 HD
BRANCH  21  30
ATOM     23  C   UNL     1       2.620   3.414  18.848  0.00  0.00    +0.000 C 
ATOM     24  C   UNL     1       1.135   3.381  19.318  0.00  0.00    +0.000 C 
ATOM     25  C   UNL     1       0.920   4.647  20.132  0.00  0.00    +0.000 C 
ATOM     26  C   UNL     1       1.718   4.756  21.207  0.00  0.00    +0.000 C 
ATOM     27  C   UNL     1       2.676   3.590  21.393  0.00  0.00    +0.000 C 
ATOM     28  C   UNL     1       1.814   2.317  21.520  0.00  0.00    +0.000 C 
ATOM     29  C   UNL     1       0.898   2.191  20.285  0.00  0.00    +0.000 C 
ATOM     30  C   UNL     1       3.545   3.447  20.097  0.00  0.00    +0.000 C 
BRANCH  23  32
ATOM     31  O   UNL     1       2.312   2.027  16.881  0.00  0.00    +0.000 OA
ATOM     32  C   UNL     1       2.918   2.257  17.918  0.00  0.00    +0.000 C 
BRANCH  32  33
ATOM     33  O   UNL     1       3.996   1.523  18.267  0.00  0.00    +0.000 OA
ATOM     34  H   UNL     1       4.808   1.644  17.720  0.00  0.00    +0.000 HD
ENDBRANCH  32  33
ENDBRANCH  23  32
ENDBRANCH  21  30
ENDBRANCH   1  21
TORSDOF 5
ENDMDL
MODEL 4
REMARK VINA RESULT:      -8.5      3.613      7.197
REMARK  Name = 
REMARK  5 active torsions:
REMARK  status: ('A' for Active; 'I' for Inactive)
REMARK    1  A    between atoms: C_2  and  O_3
REMARK    2  A    between atoms: C_2  and  C_4
REMARK    3  A    between atoms: C_11  and  N_12
REMARK    4  A    between atoms: N_12  and  C_13
REMARK    5  A    between atoms: C_15  and  C_16
REMARK                            x       y       z     vdW  Elec       q    Type
REMARK                         _______ _______ _______ _____ _____    ______ ____
ROOT
ATOM      1  C   UNL     1       2.787   4.800  18.144  0.00  0.00    +0.000 A 
ATOM      2  N   UNL     1       2.474   6.105  18.218  0.00  0.00    +0.000 NA
ATOM      3  C   UNL     1       1.975   6.602  19.372  0.00  0.00    +0.000 A 
ATOM      4  N   UNL     1       1.710   5.916  20.490  0.00  0.00    +0.000 NA
ATOM      5  C   UNL     1       1.956   4.604  20.356  0.00  0.00    +0.000 A 
ATOM      6  S   UNL     1       1.614   3.528  21.634  0.00  0.00    +0.000 S 
ATOM      7  C   UNL     1       2.163   2.185  20.731  0.00  0.00    +0.000 A 
ATOM      8  C   UNL     1       2.611   2.557  19.480  0.00  0.00    +0.000 A 
ATOM      9  C   UNL     1       2.483   3.970  19.241  0.00  0.00    +0.000 A 
ENDROOT
BRANCH   3  10
ATOM     10  C   UNL     1       1.683   8.042  19.384  0.00  0.00    +0.000 A 
ATOM     11  N   UNL     1       1.940   8.823  18.315  0.00  0.00    +0.000 NA
ATOM     12  N   UNL     1       1.538  10.048  18.692  0.00  0.00    +0.000 N 
ATOM     13  C   UNL     1       1.034  10.097  19.954  0.00  0.00    +0.000 A 
ATOM     14  N   UNL     1       0.557  11.195  20.579  0.00  0.00    +0.000 NA
ATOM     15  C   UNL     1       0.136  10.927  21.841  0.00  0.00    +0.000 A 
ATOM     16  C   UNL     1       0.178   9.685  22.457  0.00  0.00    +0.000 A 
ATOM     17  F   UNL     1      -0.259   9.542  23.715  0.00  0.00    +0.000 F 
ATOM     18  C   UNL     1       0.678   8.584  21.768  0.00  0.00    +0.000 A 
ATOM     19  C   UNL     1       1.119   8.805  20.453  0.00  0.00    +0.000 A 
ATOM     20  H   UNL     1       1.630  10.819  18.039  0.00  0.00    +0.000 HD
ENDBRANCH   3  10
BRANCH   1  21
ATOM     21  N   UNL     1       3.350   4.328  16.967  0.00  0.00    +0.000 N 
ATOM     22  H   UNL     1       2.842   3.551  16.554  0.00  0.00    +0.000 HD
BRANCH  21  30
ATOM     23  C   UNL     1       5.477   5.261  17.832  0.00  0.00    +0.000 C 
ATOM     24  C   UNL     1       6.501   6.089  17.000  0.00  0.00    +0.000 C 
ATOM     25  C   UNL     1       5.708   6.739  15.878  0.00  0.00    +0.000 C 
ATOM     26  C   UNL     1       5.083   5.871  15.066  0.00  0.00    +0.000 C 
ATOM     27  C   UNL     1       5.296   4.411  15.433  0.00  0.00    +0.000 C 
ATOM     28  C   UNL     1       6.815   4.153  15.387  0.00  0.00    +0.000 C 
ATOM     29  C   UNL     1       7.534   5.150  16.320  0.00  0.00    +0.000 C 
ATOM     30  C   UNL     1       4.822   4.193  16.910  0.00  0.00    +0.000 C 
BRANCH  23  32
ATOM     31  O   UNL     1       6.839   5.286  19.840  0.00  0.00    +0.000 OA
ATOM     32  C   UNL     1       6.134   4.663  19.058  0.00  0.00    +0.000 C 
BRANCH  32  33
ATOM     33  O   UNL     1       5.805   3.376  19.298  0.00  0.00    +0.000 OA
ATOM     34  H   UNL     1       4.905   3.211  19.664  0.00  0.00    +0.000 HD
ENDBRANCH  32  33
ENDBRANCH  23  32
ENDBRANCH  21  30
ENDBRANCH   1  21
TORSDOF 5
ENDMDL
MODEL 5
REMARK VINA RESULT:      -8.2      3.286      7.252
REMARK  Name = 
REMARK  5 active torsions:
REMARK  status: ('A' for Active; 'I' for Inactive)
REMARK    1  A    between atoms: C_2  and  O_3
REMARK    2  A    between atoms: C_2  and  C_4
REMARK    3  A    between atoms: C_11  and  N_12
REMARK    4  A    between atoms: N_12  and  C_13
REMARK    5  A    between atoms: C_15  and  C_16
REMARK                            x       y       z     vdW  Elec       q    Type
REMARK                         _______ _______ _______ _____ _____    ______ ____
ROOT
ATOM      1  C   UNL     1       2.768   5.924  18.632  0.00  0.00    +0.000 A 
ATOM      2  N   UNL     1       2.367   7.076  19.199  0.00  0.00    +0.000 NA
ATOM      3  C   UNL     1       1.684   7.037  20.364  0.00  0.00    +0.000 A 
ATOM      4  N   UNL     1       1.313   5.943  21.039  0.00  0.00    +0.000 NA
ATOM      5  C   UNL     1       1.656   4.810  20.406  0.00  0.00    +0.000 A 
ATOM      6  S   UNL     1       1.210   3.295  21.049  0.00  0.00    +0.000 S 
ATOM      7  C   UNL     1       1.960   2.461  19.760  0.00  0.00    +0.000 A 
ATOM      8  C   UNL     1       2.551   3.326  18.863  0.00  0.00    +0.000 A 
ATOM      9  C   UNL     1       2.369   4.708  19.221  0.00  0.00    +0.000 A 
ENDROOT
BRANCH   3  10
ATOM     10  C   UNL     1       1.304   8.337  20.935  0.00  0.00    +0.000 A 
ATOM     11  N   UNL     1       1.598   8.660  22.211  0.00  0.00    +0.000 NA
ATOM     12  N   UNL     1       1.112   9.903  22.361  0.00  0.00    +0.000 N 
ATOM     13  C   UNL     1       0.518  10.400  21.243  0.00  0.00    +0.000 A 
ATOM     14  N   UNL     1      -0.047  11.620  21.117  0.00  0.00    +0.000 NA
ATOM     15  C   UNL     1      -0.569  11.820  19.881  0.00  0.00    +0.000 A 
ATOM     16  C   UNL     1      -0.553  10.901  18.841  0.00  0.00    +0.000 A 
ATOM     17  F   UNL     1      -1.111  11.207  17.663  0.00  0.00    +0.000 F 
ATOM     18  C   UNL     1       0.044   9.657  19.023  0.00  0.00    +0.000 A 
ATOM     19  C   UNL     1       0.610   9.403  20.283  0.00  0.00    +0.000 A 
ATOM     20  H   UNL     1       1.218  10.369  23.257  0.00  0.00    +0.000 HD
ENDBRANCH   3  10
BRANCH   1  21
ATOM     21  N   UNL     1       3.515   5.994  17.465  0.00  0.00    +0.000 N 
ATOM     22  H   UNL     1       2.952   6.077  16.624  0.00  0.00    +0.000 HD
BRANCH  21  30
ATOM     23  C   UNL     1       5.930   5.754  17.970  0.00  0.00    +0.000 C 
ATOM     24  C   UNL     1       7.077   5.785  16.916  0.00  0.00    +0.000 C 
ATOM     25  C   UNL     1       6.554   6.599  15.744  0.00  0.00    +0.000 C 
ATOM     26  C   UNL     1       5.447   6.097  15.172  0.00  0.00    +0.000 C 
ATOM     27  C   UNL     1       4.940   4.815  15.814  0.00  0.00    +0.000 C 
ATOM     28  C   UNL     1       6.081   3.782  15.715  0.00  0.00    +0.000 C 
ATOM     29  C   UNL     1       7.353   4.358  16.372  0.00  0.00    +0.000 C 
ATOM     30  C   UNL     1       4.677   5.088  17.334  0.00  0.00    +0.000 C 
BRANCH  23  32
ATOM     31  O   UNL     1       7.197   5.538  20.028  0.00  0.00    +0.000 OA
ATOM     32  C   UNL     1       6.384   5.071  19.243  0.00  0.00    +0.000 C 
BRANCH  32  33
ATOM     33  O   UNL     1       5.740   3.917  19.518  0.00  0.00    +0.000 OA
ATOM     34  H   UNL     1       6.302   3.150  19.781  0.00  0.00    +0.000 HD
ENDBRANCH  32  33
ENDBRANCH  23  32
ENDBRANCH  21  30
ENDBRANCH   1  21
TORSDOF 5
ENDMDL
MODEL 6
REMARK VINA RESULT:      -8.0      3.071      5.163
REMARK  Name = 
REMARK  5 active torsions:
REMARK  status: ('A' for Active; 'I' for Inactive)
REMARK    1  A    between atoms: C_2  and  O_3
REMARK    2  A    between atoms: C_2  and  C_4
REMARK    3  A    between atoms: C_11  and  N_12
REMARK    4  A    between atoms: N_12  and  C_13
REMARK    5  A    between atoms: C_15  and  C_16
REMARK                            x       y       z     vdW  Elec       q    Type
REMARK                         _______ _______ _______ _____ _____    ______ ____
ROOT
ATOM      1  C   UNL     1       4.295   5.609  18.949  0.00  0.00    +0.000 A 
ATOM      2  N   UNL     1       5.136   5.304  17.946  0.00  0.00    +0.000 NA
ATOM      3  C   UNL     1       5.193   6.109  16.862  0.00  0.00    +0.000 A 
ATOM      4  N   UNL     1       4.457   7.206  16.640  0.00  0.00    +0.000 NA
ATOM      5  C   UNL     1       3.572   7.435  17.622  0.00  0.00    +0.000 A 
ATOM      6  S   UNL     1       2.477   8.737  17.507  0.00  0.00    +0.000 S 
ATOM      7  C   UNL     1       1.773   8.357  19.017  0.00  0.00    +0.000 A 
ATOM      8  C   UNL     1       2.374   7.263  19.602  0.00  0.00    +0.000 A 
ATOM      9  C   UNL     1       3.422   6.703  18.790  0.00  0.00    +0.000 A 
ENDROOT
BRANCH   3  10
ATOM     10  C   UNL     1       6.155   5.726  15.820  0.00  0.00    +0.000 A 
ATOM     11  N   UNL     1       7.452   6.090  15.888  0.00  0.00    +0.000 NA
ATOM     12  N   UNL     1       8.007   5.556  14.788  0.00  0.00    +0.000 N 
ATOM     13  C   UNL     1       7.131   4.865  14.010  0.00  0.00    +0.000 A 
ATOM     14  N   UNL     1       7.423   4.229  12.856  0.00  0.00    +0.000 NA
ATOM     15  C   UNL     1       6.332   3.639  12.304  0.00  0.00    +0.000 A 
ATOM     16  C   UNL     1       5.049   3.668  12.829  0.00  0.00    +0.000 A 
ATOM     17  F   UNL     1       4.045   3.056  12.188  0.00  0.00    +0.000 F 
ATOM     18  C   UNL     1       4.801   4.338  14.023  0.00  0.00    +0.000 A 
ATOM     19  C   UNL     1       5.900   4.957  14.642  0.00  0.00    +0.000 A 
ATOM     20  H   UNL     1       8.998   5.696  14.619  0.00  0.00    +0.000 HD
ENDBRANCH   3  10
BRANCH   1  21
ATOM     21  N   UNL     1       4.296   4.796  20.074  0.00  0.00    +0.000 N 
ATOM     22  H   UNL     1       5.205   4.718  20.521  0.00  0.00    +0.000 HD
BRANCH  21  30
ATOM     23  C   UNL     1       2.611   3.538  18.761  0.00  0.00    +0.000 C 
ATOM     24  C   UNL     1       1.147   3.254  19.212  0.00  0.00    +0.000 C 
ATOM     25  C   UNL     1       0.779   4.366  20.181  0.00  0.00    +0.000 C 
ATOM     26  C   UNL     1       1.566   4.437  21.267  0.00  0.00    +0.000 C 
ATOM     27  C   UNL     1       2.669   3.390  21.308  0.00  0.00    +0.000 C 
ATOM     28  C   UNL     1       1.979   2.011  21.264  0.00  0.00    +0.000 C 
ATOM     29  C   UNL     1       1.075   1.928  20.017  0.00  0.00    +0.000 C 
ATOM     30  C   UNL     1       3.537   3.528  20.011  0.00  0.00    +0.000 C 
BRANCH  23  32
ATOM     31  O   UNL     1       2.292   2.024  16.891  0.00  0.00    +0.000 OA
ATOM     32  C   UNL     1       3.047   2.558  17.692  0.00  0.00    +0.000 C 
BRANCH  32  33
ATOM     33  O   UNL     1       4.382   2.377  17.611  0.00  0.00    +0.000 OA
ATOM     34  H   UNL     1       4.928   3.183  17.450  0.00  0.00    +0.000 HD
ENDBRANCH  32  33
ENDBRANCH  23  32
ENDBRANCH  21  30
ENDBRANCH   1  21
TORSDOF 5
ENDMDL
MODEL 7
REMARK VINA RESULT:      -7.9      4.041      7.619
REMARK  Name = 
REMARK  5 active torsions:
REMARK  status: ('A' for Active; 'I' for Inactive)
REMARK    1  A    between atoms: C_2  and  O_3
REMARK    2  A    between atoms: C_2  and  C_4
REMARK    3  A    between atoms: C_11  and  N_12
REMARK    4  A    between atoms: N_12  and  C_13
REMARK    5  A    between atoms: C_15  and  C_16
REMARK                            x       y       z     vdW  Elec       q    Type
REMARK                         _______ _______ _______ _____ _____    ______ ____
ROOT
ATOM      1  C   UNL     1       3.178   5.033  18.188  0.00  0.00    +0.000 A 
ATOM      2  N   UNL     1       2.721   6.296  18.250  0.00  0.00    +0.000 NA
ATOM      3  C   UNL     1       2.113   6.724  19.378  0.00  0.00    +0.000 A 
ATOM      4  N   UNL     1       1.868   6.004  20.479  0.00  0.00    +0.000 NA
ATOM      5  C   UNL     1       2.262   4.727  20.353  0.00  0.00    +0.000 A 
ATOM      6  S   UNL     1       1.975   3.609  21.608  0.00  0.00    +0.000 S 
ATOM      7  C   UNL     1       2.712   2.343  20.729  0.00  0.00    +0.000 A 
ATOM      8  C   UNL     1       3.180   2.772  19.505  0.00  0.00    +0.000 A 
ATOM      9  C   UNL     1       2.911   4.165  19.265  0.00  0.00    +0.000 A 
ENDROOT
BRANCH   3  10
ATOM     10  C   UNL     1       1.665   8.124  19.381  0.00  0.00    +0.000 A 
ATOM     11  N   UNL     1       1.764   8.898  18.281  0.00  0.00    +0.000 NA
ATOM     12  N   UNL     1       1.255  10.082  18.659  0.00  0.00    +0.000 N 
ATOM     13  C   UNL     1       0.831  10.111  19.951  0.00  0.00    +0.000 A 
ATOM     14  N   UNL     1       0.277  11.168  20.583  0.00  0.00    +0.000 NA
ATOM     15  C   UNL     1      -0.030  10.890  21.876  0.00  0.00    +0.000 A 
ATOM     16  C   UNL     1       0.189   9.678  22.513  0.00  0.00    +0.000 A 
ATOM     17  F   UNL     1      -0.148   9.523  23.800  0.00  0.00    +0.000 F 
ATOM     18  C   UNL     1       0.762   8.619  21.815  0.00  0.00    +0.000 A 
ATOM     19  C   UNL     1       1.090   8.851  20.469  0.00  0.00    +0.000 A 
ATOM     20  H   UNL     1       1.219  10.841  17.986  0.00  0.00    +0.000 HD
ENDBRANCH   3  10
BRANCH   1  21
ATOM     21  N   UNL     1       3.849   4.636  17.040  0.00  0.00    +0.000 N 
ATOM     22  H   UNL     1       3.974   3.630  16.967  0.00  0.00    +0.000 HD
BRANCH  21  30
ATOM     23  C   UNL     1       6.170   4.471  16.185  0.00  0.00    +0.000 C 
ATOM     24  C   UNL     1       7.454   4.821  16.994  0.00  0.00    +0.000 C 
ATOM     25  C   UNL     1       7.097   4.631  18.460  0.00  0.00    +0.000 C 
ATOM     26  C   UNL     1       6.084   5.403  18.888  0.00  0.00    +0.000 C 
ATOM     27  C   UNL     1       5.500   6.313  17.819  0.00  0.00    +0.000 C 
ATOM     28  C   UNL     1       6.649   7.208  17.313  0.00  0.00    +0.000 C 
ATOM     29  C   UNL     1       7.813   6.322  16.821  0.00  0.00    +0.000 C 
ATOM     30  C   UNL     1       5.023   5.429  16.616  0.00  0.00    +0.000 C 
BRANCH  23  32
ATOM     31  O   UNL     1       6.878   5.476  14.093  0.00  0.00    +0.000 OA
ATOM     32  C   UNL     1       6.443   4.505  14.696  0.00  0.00    +0.000 C 
BRANCH  32  33
ATOM     33  O   UNL     1       6.263   3.324  14.068  0.00  0.00    +0.000 OA
ATOM     34  H   UNL     1       6.424   2.510  14.602  0.00  0.00    +0.000 HD
ENDBRANCH  32  33
ENDBRANCH  23  32
ENDBRANCH  21  30
ENDBRANCH   1  21
TORSDOF 5
ENDMDL
MODEL 8
REMARK VINA RESULT:      -7.9      3.123      6.895
REMARK  Name = 
REMARK  5 active torsions:
REMARK  status: ('A' for Active; 'I' for Inactive)
REMARK    1  A    between atoms: C_2  and  O_3
REMARK    2  A    between atoms: C_2  and  C_4
REMARK    3  A    between atoms: C_11  and  N_12
REMARK    4  A    between atoms: N_12  and  C_13
REMARK    5  A    between atoms: C_15  and  C_16
REMARK                            x       y       z     vdW  Elec       q    Type
REMARK                         _______ _______ _______ _____ _____    ______ ____
ROOT
ATOM      1  C   UNL     1       2.636   5.366  18.482  0.00  0.00    +0.000 A 
ATOM      2  N   UNL     1       2.272   6.561  18.978  0.00  0.00    +0.000 NA
ATOM      3  C   UNL     1       1.700   6.624  20.201  0.00  0.00    +0.000 A 
ATOM      4  N   UNL     1       1.408   5.593  21.002  0.00  0.00    +0.000 NA
ATOM      5  C   UNL     1       1.708   4.410  20.444  0.00  0.00    +0.000 A 
ATOM      6  S   UNL     1       1.346   2.956  21.258  0.00  0.00    +0.000 S 
ATOM      7  C   UNL     1       1.986   2.014  19.985  0.00  0.00    +0.000 A 
ATOM      8  C   UNL     1       2.479   2.798  18.963  0.00  0.00    +0.000 A 
ATOM      9  C   UNL     1       2.311   4.205  19.212  0.00  0.00    +0.000 A 
ENDROOT
BRANCH   3  10
ATOM     10  C   UNL     1       1.355   7.968  20.686  0.00  0.00    +0.000 A 
ATOM     11  N   UNL     1       0.867   8.166  21.928  0.00  0.00    +0.000 NA
ATOM     12  N   UNL     1       0.687   9.494  22.008  0.00  0.00    +0.000 N 
ATOM     13  C   UNL     1       1.035  10.166  20.878  0.00  0.00    +0.000 A 
ATOM     14  N   UNL     1       0.960  11.501  20.690  0.00  0.00    +0.000 NA
ATOM     15  C   UNL     1       1.368  11.869  19.449  0.00  0.00    +0.000 A 
ATOM     16  C   UNL     1       1.812  11.006  18.457  0.00  0.00    +0.000 A 
ATOM     17  F   UNL     1       2.181  11.485  17.263  0.00  0.00    +0.000 F 
ATOM     18  C   UNL     1       1.872   9.637  18.703  0.00  0.00    +0.000 A 
ATOM     19  C   UNL     1       1.470   9.204  19.977  0.00  0.00    +0.000 A 
ATOM     20  H   UNL     1       0.323   9.891  22.868  0.00  0.00    +0.000 HD
ENDBRANCH   3  10
BRANCH   1  21
ATOM     21  N   UNL     1       3.271   5.335  17.249  0.00  0.00    +0.000 N 
ATOM     22  H   UNL     1       2.648   5.129  16.473  0.00  0.00    +0.000 HD
BRANCH  21  30
ATOM     23  C   UNL     1       5.651   5.517  17.918  0.00  0.00    +0.000 C 
ATOM     24  C   UNL     1       6.837   5.812  16.953  0.00  0.00    +0.000 C 
ATOM     25  C   UNL     1       6.248   6.576  15.778  0.00  0.00    +0.000 C 
ATOM     26  C   UNL     1       5.293   5.910  15.108  0.00  0.00    +0.000 C 
ATOM     27  C   UNL     1       4.994   4.526  15.661  0.00  0.00    +0.000 C 
ATOM     28  C   UNL     1       6.312   3.726  15.605  0.00  0.00    +0.000 C 
ATOM     29  C   UNL     1       7.409   4.490  16.374  0.00  0.00    +0.000 C 
ATOM     30  C   UNL     1       4.588   4.666  17.167  0.00  0.00    +0.000 C 
BRANCH  23  32
ATOM     31  O   UNL     1       6.869   5.405  20.014  0.00  0.00    +0.000 OA
ATOM     32  C   UNL     1       6.141   4.864  19.193  0.00  0.00    +0.000 C 
BRANCH  32  33
ATOM     33  O   UNL     1       5.630   3.636  19.425  0.00  0.00    +0.000 OA
ATOM     34  H   UNL     1       6.275   2.925  19.652  0.00  0.00    +0.000 HD
ENDBRANCH  32  33
ENDBRANCH  23  32
ENDBRANCH  21  30
ENDBRANCH   1  21
TORSDOF 5
ENDMDL
MODEL 9
REMARK VINA RESULT:      -7.8      2.764      4.988
REMARK  Name = 
REMARK  5 active torsions:
REMARK  status: ('A' for Active; 'I' for Inactive)
REMARK    1  A    between atoms: C_2  and  O_3
REMARK    2  A    between atoms: C_2  and  C_4
REMARK    3  A    between atoms: C_11  and  N_12
REMARK    4  A    between atoms: N_12  and  C_13
REMARK    5  A    between atoms: C_15  and  C_16
REMARK                            x       y       z     vdW  Elec       q    Type
REMARK                         _______ _______ _______ _____ _____    ______ ____
ROOT
ATOM      1  C   UNL     1       3.002   6.445  19.627  0.00  0.00    +0.000 A 
ATOM      2  N   UNL     1       4.082   6.171  18.876  0.00  0.00    +0.000 NA
ATOM      3  C   UNL     1       4.448   7.034  17.902  0.00  0.00    +0.000 A 
ATOM      4  N   UNL     1       3.818   8.164  17.557  0.00  0.00    +0.000 NA
ATOM      5  C   UNL     1       2.700   8.365  18.269  0.00  0.00    +0.000 A 
ATOM      6  S   UNL     1       1.698   9.705  17.940  0.00  0.00    +0.000 S 
ATOM      7  C   UNL     1       0.599   9.262  19.172  0.00  0.00    +0.000 A 
ATOM      8  C   UNL     1       1.000   8.118  19.830  0.00  0.00    +0.000 A 
ATOM      9  C   UNL     1       2.223   7.573  19.303  0.00  0.00    +0.000 A 
ENDROOT
BRANCH   3  10
ATOM     10  C   UNL     1       5.655   6.680  17.142  0.00  0.00    +0.000 A 
ATOM     11  N   UNL     1       6.867   7.166  17.477  0.00  0.00    +0.000 NA
ATOM     12  N   UNL     1       7.705   6.622  16.579  0.00  0.00    +0.000 N 
ATOM     13  C   UNL     1       7.092   5.807  15.679  0.00  0.00    +0.000 A 
ATOM     14  N   UNL     1       7.695   5.133  14.676  0.00  0.00    +0.000 NA
ATOM     15  C   UNL     1       6.813   4.413  13.938  0.00  0.00    +0.000 A 
ATOM     16  C   UNL     1       5.443   4.355  14.150  0.00  0.00    +0.000 A 
ATOM     17  F   UNL     1       4.668   3.615  13.346  0.00  0.00    +0.000 F 
ATOM     18  C   UNL     1       4.872   5.068  15.199  0.00  0.00    +0.000 A 
ATOM     19  C   UNL     1       5.743   5.822  16.002  0.00  0.00    +0.000 A 
ATOM     20  H   UNL     1       8.694   6.842  16.632  0.00  0.00    +0.000 HD
ENDBRANCH   3  10
BRANCH   1  21
ATOM     21  N   UNL     1       2.681   5.570  20.656  0.00  0.00    +0.000 N 
ATOM     22  H   UNL     1       3.082   5.828  21.552  0.00  0.00    +0.000 HD
BRANCH  21  30
ATOM     23  C   UNL     1       3.632   3.858  19.136  0.00  0.00    +0.000 C 
ATOM     24  C   UNL     1       2.830   3.056  18.069  0.00  0.00    +0.000 C 
ATOM     25  C   UNL     1       1.638   3.922  17.696  0.00  0.00    +0.000 C 
ATOM     26  C   UNL     1       0.825   4.218  18.724  0.00  0.00    +0.000 C 
ATOM     27  C   UNL     1       1.263   3.627  20.055  0.00  0.00    +0.000 C 
ATOM     28  C   UNL     1       1.319   2.097  19.869  0.00  0.00    +0.000 C 
ATOM     29  C   UNL     1       2.252   1.755  18.689  0.00  0.00    +0.000 C 
ATOM     30  C   UNL     1       2.718   4.120  20.366  0.00  0.00    +0.000 C 
BRANCH  23  32
ATOM     31  O   UNL     1       4.988   2.167  20.226  0.00  0.00    +0.000 OA
ATOM     32  C   UNL     1       4.919   3.144  19.495  0.00  0.00    +0.000 C 
BRANCH  32  33
ATOM     33  O   UNL     1       6.014   3.611  18.857  0.00  0.00    +0.000 OA
ATOM     34  H   UNL     1       5.858   4.253  18.124  0.00  0.00    +0.000 HD
ENDBRANCH  32  33
ENDBRANCH  23  32
ENDBRANCH  21  30
ENDBRANCH   1  21
TORSDOF 5
ENDMDL
