MODEL 1
REMARK VINA RESULT:      -7.3      0.000      0.000
REMARK  Name = 
REMARK  7 active torsions:
REMARK  status: ('A' for Active; 'I' for Inactive)
REMARK    1  A    between atoms: C_1  and  C_2
REMARK    2  A    between atoms: C_2  and  C_3
REMARK    3  A    between atoms: C_3  and  C_4
REMARK    4  A    between atoms: C_4  and  C_5
REMARK    5  A    between atoms: N_6  and  N_7
REMARK    6  A    between atoms: C_10  and  C_11
REMARK    7  A    between atoms: C_17  and  C_18
REMARK                            x       y       z     vdW  Elec       q    Type
REMARK                         _______ _______ _______ _____ _____    ______ ____
ROOT
ATOM      1  N   UNL     1       6.279   4.488  13.685  0.00  0.00    +0.000 N 
ATOM      2  C   UNL     1       5.730   4.642  14.915  0.00  0.00    +0.000 A 
ATOM      3  N   UNL     1       4.919   3.793  15.493  0.00  0.00    +0.000 NA
ATOM      4  C   UNL     1       4.463   4.273  16.708  0.00  0.00    +0.000 A 
ATOM      5  C   UNL     1       5.070   5.446  17.129  0.00  0.00    +0.000 A 
ATOM      6  C   UNL     1       4.990   6.223  18.396  0.00  0.00    +0.000 C 
ATOM      7  S   UNL     1       6.074   6.040  15.858  0.00  0.00    +0.000 S 
ATOM      8  H   UNL     1       6.541   5.339  13.204  0.00  0.00    +0.000 HD
ENDROOT
BRANCH   4   9
ATOM      9  C   UNL     1       3.430   3.511  17.404  0.00  0.00    +0.000 A 
ATOM     10  C   UNL     1       2.168   4.095  17.590  0.00  0.00    +0.000 A 
ATOM     11  C   UNL     1       1.172   3.439  18.320  0.00  0.00    +0.000 A 
ATOM     12  C   UNL     1       1.425   2.184  18.863  0.00  0.00    +0.000 A 
ATOM     13  C   UNL     1       2.679   1.598  18.700  0.00  0.00    +0.000 A 
ATOM     14  C   UNL     1       3.683   2.264  17.987  0.00  0.00    +0.000 A 
ENDBRANCH   4   9
BRANCH   1  17
ATOM     15  C   UNL     1       5.591   3.020  12.055  0.00  0.00    +0.000 C 
ATOM     16  C   UNL     1       5.751   1.646  11.443  0.00  0.00    +0.000 C 
ATOM     17  N   UNL     1       6.355   3.281  13.071  0.00  0.00    +0.000 NA
BRANCH  15  18
ATOM     18  C   UNL     1       4.545   3.948  11.461  0.00  0.00    +0.000 C 
BRANCH  18  20
ATOM     19  C   UNL     1       2.865   4.134   9.553  0.00  0.00    +0.000 C 
ATOM     20  C   UNL     1       3.449   3.259  10.648  0.00  0.00    +0.000 C 
ENDBRANCH  18  20
ENDBRANCH  15  18
ENDBRANCH   1  17
TORSDOF 4
ENDMDL
MODEL 2
REMARK VINA RESULT:      -7.2      3.379      5.548
REMARK  Name = 
REMARK  7 active torsions:
REMARK  status: ('A' for Active; 'I' for Inactive)
REMARK    1  A    between atoms: C_1  and  C_2
REMARK    2  A    between atoms: C_2  and  C_3
REMARK    3  A    between atoms: C_3  and  C_4
REMARK    4  A    between atoms: C_4  and  C_5
REMARK    5  A    between atoms: N_6  and  N_7
REMARK    6  A    between atoms: C_10  and  C_11
REMARK    7  A    between atoms: C_17  and  C_18
REMARK                            x       y       z     vdW  Elec       q    Type
REMARK                         _______ _______ _______ _____ _____    ______ ____
ROOT
ATOM      1  N   UNL     1       5.016   3.303  17.229  0.00  0.00    +0.000 N 
ATOM      2  C   UNL     1       4.023   3.883  17.948  0.00  0.00    +0.000 A 
ATOM      3  N   UNL     1       3.658   5.136  17.860  0.00  0.00    +0.000 NA
ATOM      4  C   UNL     1       2.676   5.445  18.784  0.00  0.00    +0.000 A 
ATOM      5  C   UNL     1       2.177   4.355  19.481  0.00  0.00    +0.000 A 
ATOM      6  C   UNL     1       1.053   4.206  20.445  0.00  0.00    +0.000 C 
ATOM      7  S   UNL     1       3.124   2.966  19.094  0.00  0.00    +0.000 S 
ATOM      8  H   UNL     1       5.456   2.493  17.647  0.00  0.00    +0.000 HD
ENDROOT
BRANCH   4   9
ATOM      9  C   UNL     1       2.272   6.842  18.916  0.00  0.00    +0.000 A 
ATOM     10  C   UNL     1       1.864   7.313  20.175  0.00  0.00    +0.000 A 
ATOM     11  C   UNL     1       1.392   8.619  20.336  0.00  0.00    +0.000 A 
ATOM     12  C   UNL     1       1.332   9.472  19.240  0.00  0.00    +0.000 A 
ATOM     13  C   UNL     1       1.717   9.015  17.982  0.00  0.00    +0.000 A 
ATOM     14  C   UNL     1       2.171   7.701  17.817  0.00  0.00    +0.000 A 
ENDBRANCH   4   9
BRANCH   1  17
ATOM     15  C   UNL     1       6.656   4.414  16.061  0.00  0.00    +0.000 C 
ATOM     16  C   UNL     1       7.091   4.990  14.732  0.00  0.00    +0.000 C 
ATOM     17  N   UNL     1       5.490   3.846  16.079  0.00  0.00    +0.000 NA
BRANCH  15  18
ATOM     18  C   UNL     1       7.589   4.577  17.250  0.00  0.00    +0.000 C 
BRANCH  18  20
ATOM     19  C   UNL     1       7.486   7.113  17.495  0.00  0.00    +0.000 C 
ATOM     20  C   UNL     1       7.279   5.765  18.162  0.00  0.00    +0.000 C 
ENDBRANCH  18  20
ENDBRANCH  15  18
ENDBRANCH   1  17
TORSDOF 4
ENDMDL
MODEL 3
REMARK VINA RESULT:      -7.2      3.368      5.545
REMARK  Name = 
REMARK  7 active torsions:
REMARK  status: ('A' for Active; 'I' for Inactive)
REMARK    1  A    between atoms: C_1  and  C_2
REMARK    2  A    between atoms: C_2  and  C_3
REMARK    3  A    between atoms: C_3  and  C_4
REMARK    4  A    between atoms: C_4  and  C_5
REMARK    5  A    between atoms: N_6  and  N_7
REMARK    6  A    between atoms: C_10  and  C_11
REMARK    7  A    between atoms: C_17  and  C_18
REMARK                            x       y       z     vdW  Elec       q    Type
REMARK                         _______ _______ _______ _____ _____    ______ ____
ROOT
ATOM      1  N   UNL     1       5.051   3.206  17.319  0.00  0.00    +0.000 N 
ATOM      2  C   UNL     1       4.045   3.767  18.035  0.00  0.00    +0.000 A 
ATOM      3  N   UNL     1       3.634   5.004  17.922  0.00  0.00    +0.000 NA
ATOM      4  C   UNL     1       2.651   5.300  18.850  0.00  0.00    +0.000 A 
ATOM      5  C   UNL     1       2.199   4.210  19.577  0.00  0.00    +0.000 A 
ATOM      6  C   UNL     1       1.090   4.043  20.557  0.00  0.00    +0.000 C 
ATOM      7  S   UNL     1       3.191   2.847  19.213  0.00  0.00    +0.000 S 
ATOM      8  H   UNL     1       5.523   2.423  17.751  0.00  0.00    +0.000 HD
ENDROOT
BRANCH   4   9
ATOM      9  C   UNL     1       2.198   6.684  18.953  0.00  0.00    +0.000 A 
ATOM     10  C   UNL     1       2.222   7.492  17.805  0.00  0.00    +0.000 A 
ATOM     11  C   UNL     1       1.875   8.845  17.870  0.00  0.00    +0.000 A 
ATOM     12  C   UNL     1       1.489   9.402  19.083  0.00  0.00    +0.000 A 
ATOM     13  C   UNL     1       1.475   8.617  20.235  0.00  0.00    +0.000 A 
ATOM     14  C   UNL     1       1.842   7.268  20.174  0.00  0.00    +0.000 A 
ENDBRANCH   4   9
BRANCH   1  17
ATOM     15  C   UNL     1       6.595   4.423  16.126  0.00  0.00    +0.000 C 
ATOM     16  C   UNL     1       6.999   4.974  14.777  0.00  0.00    +0.000 C 
ATOM     17  N   UNL     1       5.492   3.738  16.152  0.00  0.00    +0.000 NA
BRANCH  15  18
ATOM     18  C   UNL     1       7.478   4.740  17.321  0.00  0.00    +0.000 C 
BRANCH  18  20
ATOM     19  C   UNL     1       7.670   7.258  17.676  0.00  0.00    +0.000 C 
ATOM     20  C   UNL     1       7.047   5.954  18.145  0.00  0.00    +0.000 C 
ENDBRANCH  18  20
ENDBRANCH  15  18
ENDBRANCH   1  17
TORSDOF 4
ENDMDL
MODEL 4
REMARK VINA RESULT:      -7.1      0.149      1.115
REMARK  Name = 
REMARK  7 active torsions:
REMARK  status: ('A' for Active; 'I' for Inactive)
REMARK    1  A    between atoms: C_1  and  C_2
REMARK    2  A    between atoms: C_2  and  C_3
REMARK    3  A    between atoms: C_3  and  C_4
REMARK    4  A    between atoms: C_4  and  C_5
REMARK    5  A    between atoms: N_6  and  N_7
REMARK    6  A    between atoms: C_10  and  C_11
REMARK    7  A    between atoms: C_17  and  C_18
REMARK                            x       y       z     vdW  Elec       q    Type
REMARK                         _______ _______ _______ _____ _____    ______ ____
ROOT
ATOM      1  N   UNL     1       6.375   4.542  13.703  0.00  0.00    +0.000 N 
ATOM      2  C   UNL     1       5.837   4.718  14.936  0.00  0.00    +0.000 A 
ATOM      3  N   UNL     1       5.013   3.891  15.527  0.00  0.00    +0.000 NA
ATOM      4  C   UNL     1       4.575   4.391  16.741  0.00  0.00    +0.000 A 
ATOM      5  C   UNL     1       5.208   5.555  17.146  0.00  0.00    +0.000 A 
ATOM      6  C   UNL     1       5.152   6.345  18.407  0.00  0.00    +0.000 C 
ATOM      7  S   UNL     1       6.215   6.118  15.863  0.00  0.00    +0.000 S 
ATOM      8  H   UNL     1       6.650   5.383  13.213  0.00  0.00    +0.000 HD
ENDROOT
BRANCH   4   9
ATOM      9  C   UNL     1       3.532   3.655  17.450  0.00  0.00    +0.000 A 
ATOM     10  C   UNL     1       3.811   2.357  17.906  0.00  0.00    +0.000 A 
ATOM     11  C   UNL     1       2.822   1.582  18.519  0.00  0.00    +0.000 A 
ATOM     12  C   UNL     1       1.544   2.103  18.693  0.00  0.00    +0.000 A 
ATOM     13  C   UNL     1       1.248   3.384  18.231  0.00  0.00    +0.000 A 
ATOM     14  C   UNL     1       2.233   4.152  17.599  0.00  0.00    +0.000 A 
ENDBRANCH   4   9
BRANCH   1  17
ATOM     15  C   UNL     1       5.602   3.049  12.134  0.00  0.00    +0.000 C 
ATOM     16  C   UNL     1       5.736   1.670  11.530  0.00  0.00    +0.000 C 
ATOM     17  N   UNL     1       6.423   3.328  13.100  0.00  0.00    +0.000 NA
BRANCH  15  18
ATOM     18  C   UNL     1       4.516   3.964  11.592  0.00  0.00    +0.000 C 
BRANCH  18  20
ATOM     19  C   UNL     1       2.960   4.160   9.582  0.00  0.00    +0.000 C 
ATOM     20  C   UNL     1       3.469   3.281  10.712  0.00  0.00    +0.000 C 
ENDBRANCH  18  20
ENDBRANCH  15  18
ENDBRANCH   1  17
TORSDOF 4
ENDMDL
MODEL 5
REMARK VINA RESULT:      -7.0      2.552      4.134
REMARK  Name = 
REMARK  7 active torsions:
REMARK  status: ('A' for Active; 'I' for Inactive)
REMARK    1  A    between atoms: C_1  and  C_2
REMARK    2  A    between atoms: C_2  and  C_3
REMARK    3  A    between atoms: C_3  and  C_4
REMARK    4  A    between atoms: C_4  and  C_5
REMARK    5  A    between atoms: N_6  and  N_7
REMARK    6  A    between atoms: C_10  and  C_11
REMARK    7  A    between atoms: C_17  and  C_18
REMARK                            x       y       z     vdW  Elec       q    Type
REMARK                         _______ _______ _______ _____ _____    ______ ____
ROOT
ATOM      1  N   UNL     1       6.056   3.663  16.715  0.00  0.00    +0.000 N 
ATOM      2  C   UNL     1       4.866   4.043  17.244  0.00  0.00    +0.000 A 
ATOM      3  N   UNL     1       4.459   5.279  17.381  0.00  0.00    +0.000 NA
ATOM      4  C   UNL     1       3.240   5.342  18.032  0.00  0.00    +0.000 A 
ATOM      5  C   UNL     1       2.639   4.112  18.252  0.00  0.00    +0.000 A 
ATOM      6  C   UNL     1       1.303   3.725  18.781  0.00  0.00    +0.000 C 
ATOM      7  S   UNL     1       3.745   2.865  17.808  0.00  0.00    +0.000 S 
ATOM      8  H   UNL     1       6.414   2.767  17.018  0.00  0.00    +0.000 HD
ENDROOT
BRANCH   4   9
ATOM      9  C   UNL     1       2.724   6.659  18.398  0.00  0.00    +0.000 A 
ATOM     10  C   UNL     1       2.313   6.881  19.721  0.00  0.00    +0.000 A 
ATOM     11  C   UNL     1       1.738   8.097  20.102  0.00  0.00    +0.000 A 
ATOM     12  C   UNL     1       1.577   9.109  19.163  0.00  0.00    +0.000 A 
ATOM     13  C   UNL     1       1.965   8.898  17.841  0.00  0.00    +0.000 A 
ATOM     14  C   UNL     1       2.522   7.674  17.456  0.00  0.00    +0.000 A 
ENDBRANCH   4   9
BRANCH   1  17
ATOM     15  C   UNL     1       6.645   4.460  14.640  0.00  0.00    +0.000 C 
ATOM     16  C   UNL     1       7.517   5.414  13.854  0.00  0.00    +0.000 C 
ATOM     17  N   UNL     1       6.795   4.486  15.929  0.00  0.00    +0.000 NA
BRANCH  15  18
ATOM     18  C   UNL     1       5.711   3.544  13.867  0.00  0.00    +0.000 C 
BRANCH  18  20
ATOM     19  C   UNL     1       4.649   3.203  11.574  0.00  0.00    +0.000 C 
ATOM     20  C   UNL     1       5.910   3.540  12.351  0.00  0.00    +0.000 C 
ENDBRANCH  18  20
ENDBRANCH  15  18
ENDBRANCH   1  17
TORSDOF 4
ENDMDL
MODEL 6
REMARK VINA RESULT:      -6.8      3.371      5.265
REMARK  Name = 
REMARK  7 active torsions:
REMARK  status: ('A' for Active; 'I' for Inactive)
REMARK    1  A    between atoms: C_1  and  C_2
REMARK    2  A    between atoms: C_2  and  C_3
REMARK    3  A    between atoms: C_3  and  C_4
REMARK    4  A    between atoms: C_4  and  C_5
REMARK    5  A    between atoms: N_6  and  N_7
REMARK    6  A    between atoms: C_10  and  C_11
REMARK    7  A    between atoms: C_17  and  C_18
REMARK                            x       y       z     vdW  Elec       q    Type
REMARK                         _______ _______ _______ _____ _____    ______ ____
ROOT
ATOM      1  N   UNL     1       5.934   3.843  18.948  0.00  0.00    +0.000 N 
ATOM      2  C   UNL     1       4.663   4.240  19.204  0.00  0.00    +0.000 A 
ATOM      3  N   UNL     1       4.220   5.468  19.114  0.00  0.00    +0.000 NA
ATOM      4  C   UNL     1       2.902   5.564  19.522  0.00  0.00    +0.000 A 
ATOM      5  C   UNL     1       2.288   4.348  19.780  0.00  0.00    +0.000 A 
ATOM      6  C   UNL     1       0.883   3.979  20.105  0.00  0.00    +0.000 C 
ATOM      7  S   UNL     1       3.474   3.098  19.699  0.00  0.00    +0.000 S 
ATOM      8  H   UNL     1       6.243   3.002  19.418  0.00  0.00    +0.000 HD
ENDROOT
BRANCH   4   9
ATOM      9  C   UNL     1       2.310   6.895  19.625  0.00  0.00    +0.000 A 
ATOM     10  C   UNL     1       1.717   7.280  20.838  0.00  0.00    +0.000 A 
ATOM     11  C   UNL     1       1.066   8.511  20.962  0.00  0.00    +0.000 A 
ATOM     12  C   UNL     1       1.012   9.377  19.875  0.00  0.00    +0.000 A 
ATOM     13  C   UNL     1       1.583   9.003  18.660  0.00  0.00    +0.000 A 
ATOM     14  C   UNL     1       2.216   7.761  18.530  0.00  0.00    +0.000 A 
ENDBRANCH   4   9
BRANCH   1  17
ATOM     15  C   UNL     1       6.702   4.601  16.918  0.00  0.00    +0.000 C 
ATOM     16  C   UNL     1       7.706   5.467  16.190  0.00  0.00    +0.000 C 
ATOM     17  N   UNL     1       6.793   4.593  18.212  0.00  0.00    +0.000 NA
BRANCH  15  18
ATOM     18  C   UNL     1       5.713   3.801  16.086  0.00  0.00    +0.000 C 
BRANCH  18  20
ATOM     19  C   UNL     1       5.887   3.730  13.543  0.00  0.00    +0.000 C 
ATOM     20  C   UNL     1       5.313   4.442  14.756  0.00  0.00    +0.000 C 
ENDBRANCH  18  20
ENDBRANCH  15  18
ENDBRANCH   1  17
TORSDOF 4
ENDMDL
MODEL 7
REMARK VINA RESULT:      -6.7      3.808      5.063
REMARK  Name = 
REMARK  7 active torsions:
REMARK  status: ('A' for Active; 'I' for Inactive)
REMARK    1  A    between atoms: C_1  and  C_2
REMARK    2  A    between atoms: C_2  and  C_3
REMARK    3  A    between atoms: C_3  and  C_4
REMARK    4  A    between atoms: C_4  and  C_5
REMARK    5  A    between atoms: N_6  and  N_7
REMARK    6  A    between atoms: C_10  and  C_11
REMARK    7  A    between atoms: C_17  and  C_18
REMARK                            x       y       z     vdW  Elec       q    Type
REMARK                         _______ _______ _______ _____ _____    ______ ____
ROOT
ATOM      1  N   UNL     1       4.462   6.917  16.176  0.00  0.00    +0.000 N 
ATOM      2  C   UNL     1       3.720   6.826  17.307  0.00  0.00    +0.000 A 
ATOM      3  N   UNL     1       3.451   5.717  17.948  0.00  0.00    +0.000 NA
ATOM      4  C   UNL     1       2.600   5.941  19.016  0.00  0.00    +0.000 A 
ATOM      5  C   UNL     1       2.347   7.279  19.279  0.00  0.00    +0.000 A 
ATOM      6  C   UNL     1       1.619   7.967  20.381  0.00  0.00    +0.000 C 
ATOM      7  S   UNL     1       3.036   8.235  18.020  0.00  0.00    +0.000 S 
ATOM      8  H   UNL     1       4.272   7.713  15.580  0.00  0.00    +0.000 HD
ENDROOT
BRANCH   4   9
ATOM      9  C   UNL     1       2.083   4.782  19.737  0.00  0.00    +0.000 A 
ATOM     10  C   UNL     1       2.514   4.557  21.054  0.00  0.00    +0.000 A 
ATOM     11  C   UNL     1       2.112   3.419  21.759  0.00  0.00    +0.000 A 
ATOM     12  C   UNL     1       1.263   2.497  21.156  0.00  0.00    +0.000 A 
ATOM     13  C   UNL     1       0.839   2.698  19.844  0.00  0.00    +0.000 A 
ATOM     14  C   UNL     1       1.258   3.828  19.132  0.00  0.00    +0.000 A 
ENDBRANCH   4   9
BRANCH   1  17
ATOM     15  C   UNL     1       6.508   5.876  16.302  0.00  0.00    +0.000 C 
ATOM     16  C   UNL     1       7.385   4.749  15.804  0.00  0.00    +0.000 C 
ATOM     17  N   UNL     1       5.318   5.938  15.790  0.00  0.00    +0.000 NA
BRANCH  15  18
ATOM     18  C   UNL     1       7.096   6.843  17.316  0.00  0.00    +0.000 C 
BRANCH  18  20
ATOM     19  C   UNL     1       6.691   5.476  19.430  0.00  0.00    +0.000 C 
ATOM     20  C   UNL     1       7.707   6.193  18.558  0.00  0.00    +0.000 C 
ENDBRANCH  18  20
ENDBRANCH  15  18
ENDBRANCH   1  17
TORSDOF 4
ENDMDL
MODEL 8
REMARK VINA RESULT:      -6.7      2.406      6.735
REMARK  Name = 
REMARK  7 active torsions:
REMARK  status: ('A' for Active; 'I' for Inactive)
REMARK    1  A    between atoms: C_1  and  C_2
REMARK    2  A    between atoms: C_2  and  C_3
REMARK    3  A    between atoms: C_3  and  C_4
REMARK    4  A    between atoms: C_4  and  C_5
REMARK    5  A    between atoms: N_6  and  N_7
REMARK    6  A    between atoms: C_10  and  C_11
REMARK    7  A    between atoms: C_17  and  C_18
REMARK                            x       y       z     vdW  Elec       q    Type
REMARK                         _______ _______ _______ _____ _____    ______ ____
ROOT
ATOM      1  N   UNL     1       4.837   3.289  19.220  0.00  0.00    +0.000 N 
ATOM      2  C   UNL     1       5.473   4.091  18.330  0.00  0.00    +0.000 A 
ATOM      3  N   UNL     1       5.472   3.932  17.032  0.00  0.00    +0.000 NA
ATOM      4  C   UNL     1       6.282   4.862  16.405  0.00  0.00    +0.000 A 
ATOM      5  C   UNL     1       6.784   5.846  17.242  0.00  0.00    +0.000 A 
ATOM      6  C   UNL     1       7.566   7.086  16.983  0.00  0.00    +0.000 C 
ATOM      7  S   UNL     1       6.382   5.449  18.872  0.00  0.00    +0.000 S 
ATOM      8  H   UNL     1       5.221   3.267  20.155  0.00  0.00    +0.000 HD
ENDROOT
BRANCH   4   9
ATOM      9  C   UNL     1       6.507   4.721  14.969  0.00  0.00    +0.000 A 
ATOM     10  C   UNL     1       5.686   3.849  14.238  0.00  0.00    +0.000 A 
ATOM     11  C   UNL     1       5.912   3.617  12.878  0.00  0.00    +0.000 A 
ATOM     12  C   UNL     1       6.958   4.266  12.231  0.00  0.00    +0.000 A 
ATOM     13  C   UNL     1       7.792   5.122  12.947  0.00  0.00    +0.000 A 
ATOM     14  C   UNL     1       7.578   5.338  14.313  0.00  0.00    +0.000 A 
ENDBRANCH   4   9
BRANCH   1  17
ATOM     15  C   UNL     1       2.593   2.828  19.022  0.00  0.00    +0.000 C 
ATOM     16  C   UNL     1       1.542   1.832  18.584  0.00  0.00    +0.000 C 
ATOM     17  N   UNL     1       3.827   2.461  18.854  0.00  0.00    +0.000 NA
BRANCH  15  18
ATOM     18  C   UNL     1       2.126   4.134  19.642  0.00  0.00    +0.000 C 
BRANCH  18  20
ATOM     19  C   UNL     1       1.751   2.834  21.803  0.00  0.00    +0.000 C 
ATOM     20  C   UNL     1       2.122   4.165  21.171  0.00  0.00    +0.000 C 
ENDBRANCH  18  20
ENDBRANCH  15  18
ENDBRANCH   1  17
TORSDOF 4
ENDMDL
MODEL 9
REMARK VINA RESULT:      -6.7      2.425      6.172
REMARK  Name = 
REMARK  7 active torsions:
REMARK  status: ('A' for Active; 'I' for Inactive)
REMARK    1  A    between atoms: C_1  and  C_2
REMARK    2  A    between atoms: C_2  and  C_3
REMARK    3  A    between atoms: C_3  and  C_4
REMARK    4  A    between atoms: C_4  and  C_5
REMARK    5  A    between atoms: N_6  and  N_7
REMARK    6  A    between atoms: C_10  and  C_11
REMARK    7  A    between atoms: C_17  and  C_18
REMARK                            x       y       z     vdW  Elec       q    Type
REMARK                         _______ _______ _______ _____ _____    ______ ____
ROOT
ATOM      1  N   UNL     1       4.881   3.305  19.429  0.00  0.00    +0.000 N 
ATOM      2  C   UNL     1       5.490   4.104  18.517  0.00  0.00    +0.000 A 
ATOM      3  N   UNL     1       5.457   3.934  17.220  0.00  0.00    +0.000 NA
ATOM      4  C   UNL     1       6.244   4.864  16.565  0.00  0.00    +0.000 A 
ATOM      5  C   UNL     1       6.761   5.858  17.382  0.00  0.00    +0.000 A 
ATOM      6  C   UNL     1       7.527   7.101  17.093  0.00  0.00    +0.000 C 
ATOM      7  S   UNL     1       6.403   5.471  19.024  0.00  0.00    +0.000 S 
ATOM      8  H   UNL     1       5.289   3.293  20.354  0.00  0.00    +0.000 HD
ENDROOT
BRANCH   4   9
ATOM      9  C   UNL     1       6.434   4.712  15.126  0.00  0.00    +0.000 A 
ATOM     10  C   UNL     1       5.551   3.888  14.410  0.00  0.00    +0.000 A 
ATOM     11  C   UNL     1       5.738   3.646  13.046  0.00  0.00    +0.000 A 
ATOM     12  C   UNL     1       6.807   4.236  12.380  0.00  0.00    +0.000 A 
ATOM     13  C   UNL     1       7.701   5.043  13.079  0.00  0.00    +0.000 A 
ATOM     14  C   UNL     1       7.525   5.269  14.450  0.00  0.00    +0.000 A 
ENDBRANCH   4   9
BRANCH   1  17
ATOM     15  C   UNL     1       2.652   2.915  19.024  0.00  0.00    +0.000 C 
ATOM     16  C   UNL     1       1.595   1.901  18.647  0.00  0.00    +0.000 C 
ATOM     17  N   UNL     1       3.868   2.467  19.095  0.00  0.00    +0.000 NA
BRANCH  15  18
ATOM     18  C   UNL     1       2.205   4.338  19.315  0.00  0.00    +0.000 C 
BRANCH  18  20
ATOM     19  C   UNL     1       2.785   6.551  18.189  0.00  0.00    +0.000 C 
ATOM     20  C   UNL     1       2.037   5.232  18.086  0.00  0.00    +0.000 C 
ENDBRANCH  18  20
ENDBRANCH  15  18
ENDBRANCH   1  17
TORSDOF 4
ENDMDL
