MODEL 1
REMARK VINA RESULT:      -7.2      0.000      0.000
REMARK  Name = 
REMARK  3 active torsions:
REMARK  status: ('A' for Active; 'I' for Inactive)
REMARK    1  A    between atoms: C_2  and  C_3
REMARK    2  A    between atoms: C_6  and  O_7
REMARK    3  A    between atoms: O_7  and  C_8
REMARK                            x       y       z     vdW  Elec       q    Type
REMARK                         _______ _______ _______ _____ _____    ______ ____
ROOT
ATOM      1  O   UNL     1       4.948   5.746  19.119  0.00  0.00    +0.000 OA
ENDROOT
BRANCH   1   2
ATOM      2  C   UNL     1       3.667   5.414  19.448  0.00  0.00    +0.000 A 
ATOM      3  C   UNL     1       2.794   6.387  19.882  0.00  0.00    +0.000 A 
ATOM      4  S   UNL     1       1.420   5.677  20.611  0.00  0.00    +0.000 S 
ATOM      5  C   UNL     1       1.700   4.193  19.781  0.00  0.00    +0.000 A 
ATOM      6  C   UNL     1       0.816   3.100  19.692  0.00  0.00    +0.000 A 
ATOM      7  C   UNL     1       1.107   2.079  18.790  0.00  0.00    +0.000 A 
ATOM      8  C   UNL     1       2.283   2.107  18.052  0.00  0.00    +0.000 A 
ATOM      9  C   UNL     1       3.211   3.139  18.235  0.00  0.00    +0.000 A 
ATOM     10  C   UNL     1       2.932   4.216  19.113  0.00  0.00    +0.000 A 
ENDBRANCH   1   2
BRANCH   1  14
ATOM     11  C   UNL     1       6.615   5.068  15.320  0.00  0.00    +0.000 A 
ATOM     12  C   UNL     1       5.485   5.868  15.445  0.00  0.00    +0.000 A 
ATOM     13  C   UNL     1       4.902   6.072  16.705  0.00  0.00    +0.000 A 
ATOM     14  C   UNL     1       5.439   5.483  17.850  0.00  0.00    +0.000 A 
ATOM     15  C   UNL     1       6.578   4.677  17.719  0.00  0.00    +0.000 A 
ATOM     16  C   UNL     1       7.164   4.459  16.457  0.00  0.00    +0.000 A 
BRANCH  11  18
ATOM     17  O   UNL     1       8.107   5.651  13.557  0.00  0.00    +0.000 OA
ATOM     18  C   UNL     1       7.233   4.890  13.989  0.00  0.00    +0.000 C 
ENDBRANCH  11  18
ENDBRANCH   1  14
TORSDOF 3
ENDMDL
MODEL 2
REMARK VINA RESULT:      -7.2      0.182      1.148
REMARK  Name = 
REMARK  3 active torsions:
REMARK  status: ('A' for Active; 'I' for Inactive)
REMARK    1  A    between atoms: C_2  and  C_3
REMARK    2  A    between atoms: C_6  and  O_7
REMARK    3  A    between atoms: O_7  and  C_8
REMARK                            x       y       z     vdW  Elec       q    Type
REMARK                         _______ _______ _______ _____ _____    ______ ____
ROOT
ATOM      1  O   UNL     1       5.067   5.674  19.272  0.00  0.00    +0.000 OA
ENDROOT
BRANCH   1   2
ATOM      2  C   UNL     1       3.767   5.353  19.530  0.00  0.00    +0.000 A 
ATOM      3  C   UNL     1       2.878   6.335  19.908  0.00  0.00    +0.000 A 
ATOM      4  S   UNL     1       1.461   5.639  20.563  0.00  0.00    +0.000 S 
ATOM      5  C   UNL     1       1.775   4.149  19.758  0.00  0.00    +0.000 A 
ATOM      6  C   UNL     1       0.889   3.061  19.626  0.00  0.00    +0.000 A 
ATOM      7  C   UNL     1       1.223   2.033  18.746  0.00  0.00    +0.000 A 
ATOM      8  C   UNL     1       2.439   2.049  18.076  0.00  0.00    +0.000 A 
ATOM      9  C   UNL     1       3.362   3.075  18.305  0.00  0.00    +0.000 A 
ATOM     10  C   UNL     1       3.043   4.159  19.160  0.00  0.00    +0.000 A 
ENDBRANCH   1   2
BRANCH   1  14
ATOM     11  C   UNL     1       6.473   5.083  15.354  0.00  0.00    +0.000 A 
ATOM     12  C   UNL     1       7.112   4.458  16.419  0.00  0.00    +0.000 A 
ATOM     13  C   UNL     1       6.671   4.677  17.733  0.00  0.00    +0.000 A 
ATOM     14  C   UNL     1       5.590   5.517  17.998  0.00  0.00    +0.000 A 
ATOM     15  C   UNL     1       4.948   6.146  16.922  0.00  0.00    +0.000 A 
ATOM     16  C   UNL     1       5.391   5.940  15.601  0.00  0.00    +0.000 A 
BRANCH  11  18
ATOM     17  O   UNL     1       7.798   5.507  13.422  0.00  0.00    +0.000 OA
ATOM     18  C   UNL     1       6.933   4.818  13.976  0.00  0.00    +0.000 C 
ENDBRANCH  11  18
ENDBRANCH   1  14
TORSDOF 3
ENDMDL
MODEL 3
REMARK VINA RESULT:      -6.9      2.135      3.165
REMARK  Name = 
REMARK  3 active torsions:
REMARK  status: ('A' for Active; 'I' for Inactive)
REMARK    1  A    between atoms: C_2  and  C_3
REMARK    2  A    between atoms: C_6  and  O_7
REMARK    3  A    between atoms: O_7  and  C_8
REMARK                            x       y       z     vdW  Elec       q    Type
REMARK                         _______ _______ _______ _____ _____    ______ ____
ROOT
ATOM      1  O   UNL     1       4.602   3.826  16.759  0.00  0.00    +0.000 OA
ENDROOT
BRANCH   1   2
ATOM      2  C   UNL     1       3.680   3.474  17.701  0.00  0.00    +0.000 A 
ATOM      3  C   UNL     1       3.543   2.155  18.071  0.00  0.00    +0.000 A 
ATOM      4  S   UNL     1       2.082   1.921  18.928  0.00  0.00    +0.000 S 
ATOM      5  C   UNL     1       2.010   3.594  19.334  0.00  0.00    +0.000 A 
ATOM      6  C   UNL     1       1.143   4.196  20.268  0.00  0.00    +0.000 A 
ATOM      7  C   UNL     1       1.379   5.518  20.640  0.00  0.00    +0.000 A 
ATOM      8  C   UNL     1       2.401   6.244  20.045  0.00  0.00    +0.000 A 
ATOM      9  C   UNL     1       3.182   5.673  19.033  0.00  0.00    +0.000 A 
ATOM     10  C   UNL     1       2.999   4.319  18.655  0.00  0.00    +0.000 A 
ENDBRANCH   1   2
BRANCH   1  14
ATOM     11  C   UNL     1       7.286   6.912  17.728  0.00  0.00    +0.000 A 
ATOM     12  C   UNL     1       6.211   7.171  16.885  0.00  0.00    +0.000 A 
ATOM     13  C   UNL     1       5.330   6.139  16.529  0.00  0.00    +0.000 A 
ATOM     14  C   UNL     1       5.510   4.842  17.010  0.00  0.00    +0.000 A 
ATOM     15  C   UNL     1       6.595   4.585  17.859  0.00  0.00    +0.000 A 
ATOM     16  C   UNL     1       7.490   5.613  18.213  0.00  0.00    +0.000 A 
BRANCH  11  18
ATOM     17  O   UNL     1       7.910   9.204  17.897  0.00  0.00    +0.000 OA
ATOM     18  C   UNL     1       8.186   8.018  18.116  0.00  0.00    +0.000 C 
ENDBRANCH  11  18
ENDBRANCH   1  14
TORSDOF 3
ENDMDL
MODEL 4
REMARK VINA RESULT:      -6.8      1.565      1.770
REMARK  Name = 
REMARK  3 active torsions:
REMARK  status: ('A' for Active; 'I' for Inactive)
REMARK    1  A    between atoms: C_2  and  C_3
REMARK    2  A    between atoms: C_6  and  O_7
REMARK    3  A    between atoms: O_7  and  C_8
REMARK                            x       y       z     vdW  Elec       q    Type
REMARK                         _______ _______ _______ _____ _____    ______ ____
ROOT
ATOM      1  O   UNL     1       5.656   4.912  18.515  0.00  0.00    +0.000 OA
ENDROOT
BRANCH   1   2
ATOM      2  C   UNL     1       4.396   5.243  18.919  0.00  0.00    +0.000 A 
ATOM      3  C   UNL     1       3.827   6.424  18.497  0.00  0.00    +0.000 A 
ATOM      4  S   UNL     1       2.456   6.800  19.446  0.00  0.00    +0.000 S 
ATOM      5  C   UNL     1       2.284   5.153  19.919  0.00  0.00    +0.000 A 
ATOM      6  C   UNL     1       1.182   4.579  20.583  0.00  0.00    +0.000 A 
ATOM      7  C   UNL     1       1.110   3.191  20.679  0.00  0.00    +0.000 A 
ATOM      8  C   UNL     1       2.142   2.399  20.195  0.00  0.00    +0.000 A 
ATOM      9  C   UNL     1       3.287   2.984  19.642  0.00  0.00    +0.000 A 
ATOM     10  C   UNL     1       3.379   4.390  19.490  0.00  0.00    +0.000 A 
ENDBRANCH   1   2
BRANCH   1  14
ATOM     11  C   UNL     1       6.391   4.212  14.436  0.00  0.00    +0.000 A 
ATOM     12  C   UNL     1       5.269   3.658  15.040  0.00  0.00    +0.000 A 
ATOM     13  C   UNL     1       5.034   3.858  16.409  0.00  0.00    +0.000 A 
ATOM     14  C   UNL     1       5.912   4.611  17.187  0.00  0.00    +0.000 A 
ATOM     15  C   UNL     1       7.044   5.168  16.574  0.00  0.00    +0.000 A 
ATOM     16  C   UNL     1       7.292   4.964  15.203  0.00  0.00    +0.000 A 
BRANCH  11  18
ATOM     17  O   UNL     1       5.985   3.168  12.334  0.00  0.00    +0.000 OA
ATOM     18  C   UNL     1       6.606   4.016  12.987  0.00  0.00    +0.000 C 
ENDBRANCH  11  18
ENDBRANCH   1  14
TORSDOF 3
ENDMDL
MODEL 5
REMARK VINA RESULT:      -6.8      2.326      3.137
REMARK  Name = 
REMARK  3 active torsions:
REMARK  status: ('A' for Active; 'I' for Inactive)
REMARK    1  A    between atoms: C_2  and  C_3
REMARK    2  A    between atoms: C_6  and  O_7
REMARK    3  A    between atoms: O_7  and  C_8
REMARK                            x       y       z     vdW  Elec       q    Type
REMARK                         _______ _______ _______ _____ _____    ______ ____
ROOT
ATOM      1  O   UNL     1       5.203   3.720  17.959  0.00  0.00    +0.000 OA
ENDROOT
BRANCH   1   2
ATOM      2  C   UNL     1       3.859   3.714  18.186  0.00  0.00    +0.000 A 
ATOM      3  C   UNL     1       2.981   3.733  17.125  0.00  0.00    +0.000 A 
ATOM      4  S   UNL     1       1.407   4.135  17.656  0.00  0.00    +0.000 S 
ATOM      5  C   UNL     1       1.784   3.646  19.264  0.00  0.00    +0.000 A 
ATOM      6  C   UNL     1       0.873   3.469  20.324  0.00  0.00    +0.000 A 
ATOM      7  C   UNL     1       1.319   2.847  21.489  0.00  0.00    +0.000 A 
ATOM      8  C   UNL     1       2.651   2.481  21.624  0.00  0.00    +0.000 A 
ATOM      9  C   UNL     1       3.573   2.767  20.611  0.00  0.00    +0.000 A 
ATOM     10  C   UNL     1       3.150   3.362  19.395  0.00  0.00    +0.000 A 
ENDBRANCH   1   2
BRANCH   1  14
ATOM     11  C   UNL     1       7.440   7.276  17.799  0.00  0.00    +0.000 A 
ATOM     12  C   UNL     1       7.764   6.297  18.732  0.00  0.00    +0.000 A 
ATOM     13  C   UNL     1       7.002   5.123  18.815  0.00  0.00    +0.000 A 
ATOM     14  C   UNL     1       5.912   4.911  17.971  0.00  0.00    +0.000 A 
ATOM     15  C   UNL     1       5.588   5.900  17.032  0.00  0.00    +0.000 A 
ATOM     16  C   UNL     1       6.343   7.086  16.948  0.00  0.00    +0.000 A 
BRANCH  11  18
ATOM     17  O   UNL     1       7.845   9.613  18.011  0.00  0.00    +0.000 OA
ATOM     18  C   UNL     1       8.273   8.493  17.706  0.00  0.00    +0.000 C 
ENDBRANCH  11  18
ENDBRANCH   1  14
TORSDOF 3
ENDMDL
MODEL 6
REMARK VINA RESULT:      -6.8      1.191      1.329
REMARK  Name = 
REMARK  3 active torsions:
REMARK  status: ('A' for Active; 'I' for Inactive)
REMARK    1  A    between atoms: C_2  and  C_3
REMARK    2  A    between atoms: C_6  and  O_7
REMARK    3  A    between atoms: O_7  and  C_8
REMARK                            x       y       z     vdW  Elec       q    Type
REMARK                         _______ _______ _______ _____ _____    ______ ____
ROOT
ATOM      1  O   UNL     1       5.677   4.240  18.708  0.00  0.00    +0.000 OA
ENDROOT
BRANCH   1   2
ATOM      2  C   UNL     1       4.419   4.621  19.068  0.00  0.00    +0.000 A 
ATOM      3  C   UNL     1       4.048   5.945  18.977  0.00  0.00    +0.000 A 
ATOM      4  S   UNL     1       2.609   6.225  19.857  0.00  0.00    +0.000 S 
ATOM      5  C   UNL     1       2.191   4.556  19.778  0.00  0.00    +0.000 A 
ATOM      6  C   UNL     1       0.950   3.983  20.121  0.00  0.00    +0.000 A 
ATOM      7  C   UNL     1       0.712   2.654  19.776  0.00  0.00    +0.000 A 
ATOM      8  C   UNL     1       1.707   1.895  19.175  0.00  0.00    +0.000 A 
ATOM      9  C   UNL     1       2.975   2.440  18.946  0.00  0.00    +0.000 A 
ATOM     10  C   UNL     1       3.243   3.799  19.245  0.00  0.00    +0.000 A 
ENDBRANCH   1   2
BRANCH   1  14
ATOM     11  C   UNL     1       6.865   4.807  14.716  0.00  0.00    +0.000 A 
ATOM     12  C   UNL     1       5.891   3.862  15.019  0.00  0.00    +0.000 A 
ATOM     13  C   UNL     1       5.513   3.642  16.352  0.00  0.00    +0.000 A 
ATOM     14  C   UNL     1       6.099   4.361  17.394  0.00  0.00    +0.000 A 
ATOM     15  C   UNL     1       7.081   5.313  17.084  0.00  0.00    +0.000 A 
ATOM     16  C   UNL     1       7.473   5.533  15.749  0.00  0.00    +0.000 A 
BRANCH  11  18
ATOM     17  O   UNL     1       8.243   5.674  12.978  0.00  0.00    +0.000 OA
ATOM     18  C   UNL     1       7.228   5.046  13.303  0.00  0.00    +0.000 C 
ENDBRANCH  11  18
ENDBRANCH   1  14
TORSDOF 3
ENDMDL
MODEL 7
REMARK VINA RESULT:      -6.8      1.586      1.919
REMARK  Name = 
REMARK  3 active torsions:
REMARK  status: ('A' for Active; 'I' for Inactive)
REMARK    1  A    between atoms: C_2  and  C_3
REMARK    2  A    between atoms: C_6  and  O_7
REMARK    3  A    between atoms: O_7  and  C_8
REMARK                            x       y       z     vdW  Elec       q    Type
REMARK                         _______ _______ _______ _____ _____    ______ ____
ROOT
ATOM      1  O   UNL     1       5.604   5.011  18.326  0.00  0.00    +0.000 OA
ENDROOT
BRANCH   1   2
ATOM      2  C   UNL     1       4.360   5.320  18.793  0.00  0.00    +0.000 A 
ATOM      3  C   UNL     1       3.761   6.504  18.424  0.00  0.00    +0.000 A 
ATOM      4  S   UNL     1       2.431   6.844  19.442  0.00  0.00    +0.000 S 
ATOM      5  C   UNL     1       2.296   5.185  19.884  0.00  0.00    +0.000 A 
ATOM      6  C   UNL     1       1.230   4.585  20.584  0.00  0.00    +0.000 A 
ATOM      7  C   UNL     1       1.176   3.194  20.651  0.00  0.00    +0.000 A 
ATOM      8  C   UNL     1       2.193   2.424  20.104  0.00  0.00    +0.000 A 
ATOM      9  C   UNL     1       3.306   3.034  19.513  0.00  0.00    +0.000 A 
ATOM     10  C   UNL     1       3.378   4.444  19.389  0.00  0.00    +0.000 A 
ENDBRANCH   1   2
BRANCH   1  14
ATOM     11  C   UNL     1       6.279   4.167  14.263  0.00  0.00    +0.000 A 
ATOM     12  C   UNL     1       7.195   4.939  14.970  0.00  0.00    +0.000 A 
ATOM     13  C   UNL     1       6.960   5.254  16.316  0.00  0.00    +0.000 A 
ATOM     14  C   UNL     1       5.814   4.803  16.972  0.00  0.00    +0.000 A 
ATOM     15  C   UNL     1       4.893   4.026  16.256  0.00  0.00    +0.000 A 
ATOM     16  C   UNL     1       5.116   3.713  14.901  0.00  0.00    +0.000 A 
BRANCH  11  18
ATOM     17  O   UNL     1       5.738   3.225  12.144  0.00  0.00    +0.000 OA
ATOM     18  C   UNL     1       6.557   3.821  12.854  0.00  0.00    +0.000 C 
ENDBRANCH  11  18
ENDBRANCH   1  14
TORSDOF 3
ENDMDL
MODEL 8
REMARK VINA RESULT:      -6.7      2.265      2.917
REMARK  Name = 
REMARK  3 active torsions:
REMARK  status: ('A' for Active; 'I' for Inactive)
REMARK    1  A    between atoms: C_2  and  C_3
REMARK    2  A    between atoms: C_6  and  O_7
REMARK    3  A    between atoms: O_7  and  C_8
REMARK                            x       y       z     vdW  Elec       q    Type
REMARK                         _______ _______ _______ _____ _____    ______ ____
ROOT
ATOM      1  O   UNL     1       5.075   3.443  17.640  0.00  0.00    +0.000 OA
ENDROOT
BRANCH   1   2
ATOM      2  C   UNL     1       3.765   3.546  18.003  0.00  0.00    +0.000 A 
ATOM      3  C   UNL     1       2.788   3.637  17.036  0.00  0.00    +0.000 A 
ATOM      4  S   UNL     1       1.314   4.166  17.721  0.00  0.00    +0.000 S 
ATOM      5  C   UNL     1       1.813   3.648  19.287  0.00  0.00    +0.000 A 
ATOM      6  C   UNL     1       1.004   3.547  20.436  0.00  0.00    +0.000 A 
ATOM      7  C   UNL     1       1.514   2.891  21.554  0.00  0.00    +0.000 A 
ATOM      8  C   UNL     1       2.819   2.417  21.556  0.00  0.00    +0.000 A 
ATOM      9  C   UNL     1       3.652   2.627  20.452  0.00  0.00    +0.000 A 
ATOM     10  C   UNL     1       3.158   3.253  19.281  0.00  0.00    +0.000 A 
ENDBRANCH   1   2
BRANCH   1  14
ATOM     11  C   UNL     1       7.437   6.916  17.830  0.00  0.00    +0.000 A 
ATOM     12  C   UNL     1       6.713   6.635  16.676  0.00  0.00    +0.000 A 
ATOM     13  C   UNL     1       5.950   5.461  16.591  0.00  0.00    +0.000 A 
ATOM     14  C   UNL     1       5.898   4.558  17.653  0.00  0.00    +0.000 A 
ATOM     15  C   UNL     1       6.630   4.844  18.814  0.00  0.00    +0.000 A 
ATOM     16  C   UNL     1       7.406   6.016  18.904  0.00  0.00    +0.000 A 
BRANCH  11  18
ATOM     17  O   UNL     1       7.680   9.285  17.816  0.00  0.00    +0.000 OA
ATOM     18  C   UNL     1       8.211   8.171  17.912  0.00  0.00    +0.000 C 
ENDBRANCH  11  18
ENDBRANCH   1  14
TORSDOF 3
ENDMDL
MODEL 9
REMARK VINA RESULT:      -6.7      3.420      5.935
REMARK  Name = 
REMARK  3 active torsions:
REMARK  status: ('A' for Active; 'I' for Inactive)
REMARK    1  A    between atoms: C_2  and  C_3
REMARK    2  A    between atoms: C_6  and  O_7
REMARK    3  A    between atoms: O_7  and  C_8
REMARK                            x       y       z     vdW  Elec       q    Type
REMARK                         _______ _______ _______ _____ _____    ______ ____
ROOT
ATOM      1  O   UNL     1       3.258   6.943  18.882  0.00  0.00    +0.000 OA
ENDROOT
BRANCH   1   2
ATOM      2  C   UNL     1       2.971   5.630  18.656  0.00  0.00    +0.000 A 
ATOM      3  C   UNL     1       3.447   5.005  17.524  0.00  0.00    +0.000 A 
ATOM      4  S   UNL     1       2.627   3.528  17.264  0.00  0.00    +0.000 S 
ATOM      5  C   UNL     1       2.165   3.450  18.922  0.00  0.00    +0.000 A 
ATOM      6  C   UNL     1       1.600   2.343  19.585  0.00  0.00    +0.000 A 
ATOM      7  C   UNL     1       1.505   2.377  20.976  0.00  0.00    +0.000 A 
ATOM      8  C   UNL     1       1.890   3.510  21.679  0.00  0.00    +0.000 A 
ATOM      9  C   UNL     1       2.341   4.648  21.000  0.00  0.00    +0.000 A 
ATOM     10  C   UNL     1       2.490   4.638  19.591  0.00  0.00    +0.000 A 
ENDBRANCH   1   2
BRANCH   1  14
ATOM     11  C   UNL     1       0.313   9.915  19.292  0.00  0.00    +0.000 A 
ATOM     12  C   UNL     1       0.706   9.175  20.401  0.00  0.00    +0.000 A 
ATOM     13  C   UNL     1       1.663   8.158  20.267  0.00  0.00    +0.000 A 
ATOM     14  C   UNL     1       2.238   7.870  19.029  0.00  0.00    +0.000 A 
ATOM     15  C   UNL     1       1.838   8.619  17.913  0.00  0.00    +0.000 A 
ATOM     16  C   UNL     1       0.871   9.635  18.038  0.00  0.00    +0.000 A 
BRANCH  11  18
ATOM     17  O   UNL     1      -1.554  11.231  18.620  0.00  0.00    +0.000 OA
ATOM     18  C   UNL     1      -0.674  11.002  19.459  0.00  0.00    +0.000 C 
ENDBRANCH  11  18
ENDBRANCH   1  14
TORSDOF 3
ENDMDL
