MODEL 1
REMARK VINA RESULT:      -7.7      0.000      0.000
REMARK  Name = 
REMARK  16 active torsions:
REMARK  status: ('A' for Active; 'I' for Inactive)
REMARK    1  A    between atoms: C_1  and  O_2
REMARK    2  A    between atoms: O_2  and  C_3
REMARK    3  A    between atoms: C_5  and  N_6
REMARK    4  A    between atoms: N_6  and  C_7
REMARK    5  A    between atoms: C_7  and  N_9
REMARK    6  A    between atoms: N_9  and  C_10
REMARK    7  A    between atoms: C_10  and  C_11
REMARK    8  A    between atoms: C_11  and  C_12
REMARK    9  A    between atoms: C_12  and  N_13
REMARK   10  A    between atoms: C_17  and  C_18
REMARK   11  A    between atoms: C_21  and  O_22
REMARK   12  A    between atoms: O_22  and  C_23
REMARK   13  A    between atoms: C_23  and  C_24
REMARK   14  A    between atoms: C_24  and  C_25
REMARK   15  A    between atoms: C_25  and  C_26
REMARK   16  A    between atoms: N_29  and  C_30
REMARK                            x       y       z     vdW  Elec       q    Type
REMARK                         _______ _______ _______ _____ _____    ______ ____
ROOT
ATOM      1  C   UNL     1       6.139   5.672  16.803  0.00  0.00    +0.000 A 
ATOM      2  C   UNL     1       5.476   4.639  17.469  0.00  0.00    +0.000 A 
ATOM      3  C   UNL     1       5.768   4.346  18.806  0.00  0.00    +0.000 A 
ATOM      4  C   UNL     1       6.792   5.029  19.458  0.00  0.00    +0.000 A 
ATOM      5  C   UNL     1       7.435   6.086  18.819  0.00  0.00    +0.000 A 
ATOM      6  C   UNL     1       7.066   6.452  17.523  0.00  0.00    +0.000 A 
ENDROOT
BRANCH   1   8
ATOM      7  C   UNL     1       5.932   4.980  14.496  0.00  0.00    +0.000 C 
ATOM      8  O   UNL     1       5.927   5.995  15.491  0.00  0.00    +0.000 OA
ENDBRANCH   1   8
BRANCH   3   9
ATOM      9  N   UNL     1       5.046   3.305  19.417  0.00  0.00    +0.000 N 
ATOM     10  H   UNL     1       5.599   2.541  19.784  0.00  0.00    +0.000 HD
BRANCH   9  11
ATOM     11  C   UNL     1       3.721   2.988  19.269  0.00  0.00    +0.000 C 
ATOM     12  S   UNL     1       2.959   2.341  17.934  0.00  0.00    +0.000 S 
BRANCH  11  13
ATOM     13  N   UNL     1       2.960   3.211  20.389  0.00  0.00    +0.000 N 
ATOM     14  H   UNL     1       2.663   2.356  20.848  0.00  0.00    +0.000 HD
BRANCH  13  15
ATOM     15  C   UNL     1       2.186   4.417  20.646  0.00  0.00    +0.000 C 
BRANCH  15  16
ATOM     16  C   UNL     1       2.066   5.322  19.416  0.00  0.00    +0.000 C 
BRANCH  16  17
ATOM     17  C   UNL     1       2.797   6.649  19.600  0.00  0.00    +0.000 C 
BRANCH  17  18
ATOM     18  N   UNL     1       1.890   7.741  19.900  0.00  0.00    +0.000 N 
ATOM     19  C   UNL     1       1.192   7.879  21.068  0.00  0.00    +0.000 A 
ATOM     20  N   UNL     1       0.493   8.990  21.081  0.00  0.00    +0.000 NA
ATOM     21  C   UNL     1       0.745   9.591  19.883  0.00  0.00    +0.000 A 
ATOM     22  C   UNL     1       1.609   8.829  19.113  0.00  0.00    +0.000 A 
ATOM     23  C   UNL     1       2.154   9.065  17.761  0.00  0.00    +0.000 C 
ENDBRANCH  17  18
ENDBRANCH  16  17
ENDBRANCH  15  16
ENDBRANCH  13  15
ENDBRANCH  11  13
ENDBRANCH   9  11
ENDBRANCH   3   9
BRANCH   6  24
ATOM     24  O   UNL     1       7.685   7.592  17.068  0.00  0.00    +0.000 OA
BRANCH  24  25
ATOM     25  C   UNL     1       8.243   8.398  18.108  0.00  0.00    +0.000 C 
BRANCH  25  26
ATOM     26  C   UNL     1       8.265   9.864  17.684  0.00  0.00    +0.000 C 
BRANCH  26  27
ATOM     27  C   UNL     1       9.241  10.623  18.589  0.00  0.00    +0.000 C 
BRANCH  27  28
ATOM     28  C   UNL     1       9.883  11.855  17.945  0.00  0.00    +0.000 C 
ATOM     29  C   UNL     1      11.415  11.814  17.967  0.00  0.00    +0.000 C 
ATOM     30  C   UNL     1      11.999  13.097  17.371  0.00  0.00    +0.000 C 
ATOM     31  N   UNL     1      11.516  14.295  18.072  0.00  0.00    +0.000 NA
ATOM     32  C   UNL     1      12.084  15.496  17.458  0.00  0.00    +0.000 C 
ATOM     33  C   UNL     1      10.050  14.373  18.071  0.00  0.00    +0.000 C 
ATOM     34  C   UNL     1       9.418  13.122  18.679  0.00  0.00    +0.000 C 
ENDBRANCH  27  28
ENDBRANCH  26  27
ENDBRANCH  25  26
ENDBRANCH  24  25
ENDBRANCH   6  24
TORSDOF 13
ENDMDL
MODEL 2
REMARK VINA RESULT:      -7.5      1.130      1.680
REMARK  Name = 
REMARK  16 active torsions:
REMARK  status: ('A' for Active; 'I' for Inactive)
REMARK    1  A    between atoms: C_1  and  O_2
REMARK    2  A    between atoms: O_2  and  C_3
REMARK    3  A    between atoms: C_5  and  N_6
REMARK    4  A    between atoms: N_6  and  C_7
REMARK    5  A    between atoms: C_7  and  N_9
REMARK    6  A    between atoms: N_9  and  C_10
REMARK    7  A    between atoms: C_10  and  C_11
REMARK    8  A    between atoms: C_11  and  C_12
REMARK    9  A    between atoms: C_12  and  N_13
REMARK   10  A    between atoms: C_17  and  C_18
REMARK   11  A    between atoms: C_21  and  O_22
REMARK   12  A    between atoms: O_22  and  C_23
REMARK   13  A    between atoms: C_23  and  C_24
REMARK   14  A    between atoms: C_24  and  C_25
REMARK   15  A    between atoms: C_25  and  C_26
REMARK   16  A    between atoms: N_29  and  C_30
REMARK                            x       y       z     vdW  Elec       q    Type
REMARK                         _______ _______ _______ _____ _____    ______ ____
ROOT
ATOM      1  C   UNL     1       6.213   6.060  16.783  0.00  0.00    +0.000 A 
ATOM      2  C   UNL     1       5.497   5.042  17.417  0.00  0.00    +0.000 A 
ATOM      3  C   UNL     1       5.833   4.629  18.711  0.00  0.00    +0.000 A 
ATOM      4  C   UNL     1       6.948   5.173  19.345  0.00  0.00    +0.000 A 
ATOM      5  C   UNL     1       7.647   6.215  18.741  0.00  0.00    +0.000 A 
ATOM      6  C   UNL     1       7.243   6.703  17.497  0.00  0.00    +0.000 A 
ENDROOT
BRANCH   1   8
ATOM      7  C   UNL     1       5.540   5.573  14.514  0.00  0.00    +0.000 C 
ATOM      8  O   UNL     1       5.961   6.493  15.511  0.00  0.00    +0.000 OA
ENDBRANCH   1   8
BRANCH   3   9
ATOM      9  N   UNL     1       5.055   3.612  19.294  0.00  0.00    +0.000 N 
ATOM     10  H   UNL     1       5.524   3.037  19.982  0.00  0.00    +0.000 HD
BRANCH   9  11
ATOM     11  C   UNL     1       3.899   3.049  18.819  0.00  0.00    +0.000 C 
ATOM     12  S   UNL     1       3.605   1.447  18.461  0.00  0.00    +0.000 S 
BRANCH  11  13
ATOM     13  N   UNL     1       2.864   3.935  18.662  0.00  0.00    +0.000 N 
ATOM     14  H   UNL     1       3.149   4.815  18.244  0.00  0.00    +0.000 HD
BRANCH  13  15
ATOM     15  C   UNL     1       1.631   3.925  19.437  0.00  0.00    +0.000 C 
BRANCH  15  16
ATOM     16  C   UNL     1       1.485   5.154  20.339  0.00  0.00    +0.000 C 
BRANCH  16  17
ATOM     17  C   UNL     1       2.642   6.135  20.173  0.00  0.00    +0.000 C 
BRANCH  17  18
ATOM     18  N   UNL     1       2.242   7.349  19.486  0.00  0.00    +0.000 N 
ATOM     19  C   UNL     1       2.423   7.587  18.152  0.00  0.00    +0.000 A 
ATOM     20  N   UNL     1       1.915   8.743  17.797  0.00  0.00    +0.000 NA
ATOM     21  C   UNL     1       1.387   9.273  18.938  0.00  0.00    +0.000 A 
ATOM     22  C   UNL     1       1.584   8.428  20.019  0.00  0.00    +0.000 A 
ATOM     23  C   UNL     1       1.200   8.576  21.437  0.00  0.00    +0.000 C 
ENDBRANCH  17  18
ENDBRANCH  16  17
ENDBRANCH  15  16
ENDBRANCH  13  15
ENDBRANCH  11  13
ENDBRANCH   9  11
ENDBRANCH   3   9
BRANCH   6  24
ATOM     24  O   UNL     1       7.937   7.817  17.084  0.00  0.00    +0.000 OA
BRANCH  24  25
ATOM     25  C   UNL     1       7.563   9.014  17.769  0.00  0.00    +0.000 C 
BRANCH  25  26
ATOM     26  C   UNL     1       8.736   9.992  17.798  0.00  0.00    +0.000 C 
BRANCH  26  27
ATOM     27  C   UNL     1       9.288  10.054  19.225  0.00  0.00    +0.000 C 
BRANCH  27  28
ATOM     28  C   UNL     1      10.302  11.175  19.471  0.00  0.00    +0.000 C 
ATOM     29  C   UNL     1       9.685  12.406  20.144  0.00  0.00    +0.000 C 
ATOM     30  C   UNL     1      10.728  13.514  20.304  0.00  0.00    +0.000 C 
ATOM     31  N   UNL     1      11.328  13.891  19.016  0.00  0.00    +0.000 NA
ATOM     32  C   UNL     1      12.331  14.938  19.220  0.00  0.00    +0.000 C 
ATOM     33  C   UNL     1      11.934  12.738  18.339  0.00  0.00    +0.000 C 
ATOM     34  C   UNL     1      10.924  11.610  18.135  0.00  0.00    +0.000 C 
ENDBRANCH  27  28
ENDBRANCH  26  27
ENDBRANCH  25  26
ENDBRANCH  24  25
ENDBRANCH   6  24
TORSDOF 13
ENDMDL
MODEL 3
REMARK VINA RESULT:      -7.2      1.349      2.141
REMARK  Name = 
REMARK  16 active torsions:
REMARK  status: ('A' for Active; 'I' for Inactive)
REMARK    1  A    between atoms: C_1  and  O_2
REMARK    2  A    between atoms: O_2  and  C_3
REMARK    3  A    between atoms: C_5  and  N_6
REMARK    4  A    between atoms: N_6  and  C_7
REMARK    5  A    between atoms: C_7  and  N_9
REMARK    6  A    between atoms: N_9  and  C_10
REMARK    7  A    between atoms: C_10  and  C_11
REMARK    8  A    between atoms: C_11  and  C_12
REMARK    9  A    between atoms: C_12  and  N_13
REMARK   10  A    between atoms: C_17  and  C_18
REMARK   11  A    between atoms: C_21  and  O_22
REMARK   12  A    between atoms: O_22  and  C_23
REMARK   13  A    between atoms: C_23  and  C_24
REMARK   14  A    between atoms: C_24  and  C_25
REMARK   15  A    between atoms: C_25  and  C_26
REMARK   16  A    between atoms: N_29  and  C_30
REMARK                            x       y       z     vdW  Elec       q    Type
REMARK                         _______ _______ _______ _____ _____    ______ ____
ROOT
ATOM      1  C   UNL     1       7.206   5.493  17.957  0.00  0.00    +0.000 A 
ATOM      2  C   UNL     1       6.331   4.405  17.904  0.00  0.00    +0.000 A 
ATOM      3  C   UNL     1       5.220   4.421  17.055  0.00  0.00    +0.000 A 
ATOM      4  C   UNL     1       4.926   5.567  16.317  0.00  0.00    +0.000 A 
ATOM      5  C   UNL     1       5.810   6.643  16.331  0.00  0.00    +0.000 A 
ATOM      6  C   UNL     1       6.978   6.582  17.093  0.00  0.00    +0.000 A 
ENDROOT
BRANCH   1   8
ATOM      7  C   UNL     1       8.120   5.537  20.194  0.00  0.00    +0.000 C 
ATOM      8  O   UNL     1       8.293   5.559  18.784  0.00  0.00    +0.000 OA
ENDBRANCH   1   8
BRANCH   3   9
ATOM      9  N   UNL     1       4.394   3.283  17.040  0.00  0.00    +0.000 N 
ATOM     10  H   UNL     1       4.217   2.877  16.130  0.00  0.00    +0.000 HD
BRANCH   9  11
ATOM     11  C   UNL     1       3.507   2.864  17.997  0.00  0.00    +0.000 C 
ATOM     12  S   UNL     1       3.825   2.010  19.394  0.00  0.00    +0.000 S 
BRANCH  11  13
ATOM     13  N   UNL     1       2.208   3.238  17.764  0.00  0.00    +0.000 N 
ATOM     14  H   UNL     1       1.731   2.637  17.099  0.00  0.00    +0.000 HD
BRANCH  13  15
ATOM     15  C   UNL     1       1.676   4.578  17.962  0.00  0.00    +0.000 C 
BRANCH  15  16
ATOM     16  C   UNL     1       2.259   5.274  19.196  0.00  0.00    +0.000 C 
BRANCH  16  17
ATOM     17  C   UNL     1       2.717   6.698  18.894  0.00  0.00    +0.000 C 
BRANCH  17  18
ATOM     18  N   UNL     1       1.932   7.692  19.604  0.00  0.00    +0.000 N 
ATOM     19  C   UNL     1       1.439   7.539  20.869  0.00  0.00    +0.000 A 
ATOM     20  N   UNL     1       0.814   8.619  21.275  0.00  0.00    +0.000 NA
ATOM     21  C   UNL     1       0.906   9.502  20.239  0.00  0.00    +0.000 A 
ATOM     22  C   UNL     1       1.592   8.948  19.170  0.00  0.00    +0.000 A 
ATOM     23  C   UNL     1       1.928   9.511  17.847  0.00  0.00    +0.000 C 
ENDBRANCH  17  18
ENDBRANCH  16  17
ENDBRANCH  15  16
ENDBRANCH  13  15
ENDBRANCH  11  13
ENDBRANCH   9  11
ENDBRANCH   3   9
BRANCH   6  24
ATOM     24  O   UNL     1       7.820   7.653  16.908  0.00  0.00    +0.000 OA
BRANCH  24  25
ATOM     25  C   UNL     1       7.646   8.696  17.868  0.00  0.00    +0.000 C 
BRANCH  25  26
ATOM     26  C   UNL     1       8.846   9.640  17.845  0.00  0.00    +0.000 C 
BRANCH  26  27
ATOM     27  C   UNL     1       9.134  10.104  19.276  0.00  0.00    +0.000 C 
BRANCH  27  28
ATOM     28  C   UNL     1      10.225  11.172  19.395  0.00  0.00    +0.000 C 
ATOM     29  C   UNL     1       9.806  12.366  20.260  0.00  0.00    +0.000 C 
ATOM     30  C   UNL     1      10.908  13.426  20.288  0.00  0.00    +0.000 C 
ATOM     31  N   UNL     1      11.264  13.883  18.938  0.00  0.00    +0.000 NA
ATOM     32  C   UNL     1      12.333  14.880  19.013  0.00  0.00    +0.000 C 
ATOM     33  C   UNL     1      11.676  12.767  18.077  0.00  0.00    +0.000 C 
ATOM     34  C   UNL     1      10.596  11.689  17.996  0.00  0.00    +0.000 C 
ENDBRANCH  27  28
ENDBRANCH  26  27
ENDBRANCH  25  26
ENDBRANCH  24  25
ENDBRANCH   6  24
TORSDOF 13
ENDMDL
MODEL 4
REMARK VINA RESULT:      -7.1      1.435      2.151
REMARK  Name = 
REMARK  16 active torsions:
REMARK  status: ('A' for Active; 'I' for Inactive)
REMARK    1  A    between atoms: C_1  and  O_2
REMARK    2  A    between atoms: O_2  and  C_3
REMARK    3  A    between atoms: C_5  and  N_6
REMARK    4  A    between atoms: N_6  and  C_7
REMARK    5  A    between atoms: C_7  and  N_9
REMARK    6  A    between atoms: N_9  and  C_10
REMARK    7  A    between atoms: C_10  and  C_11
REMARK    8  A    between atoms: C_11  and  C_12
REMARK    9  A    between atoms: C_12  and  N_13
REMARK   10  A    between atoms: C_17  and  C_18
REMARK   11  A    between atoms: C_21  and  O_22
REMARK   12  A    between atoms: O_22  and  C_23
REMARK   13  A    between atoms: C_23  and  C_24
REMARK   14  A    between atoms: C_24  and  C_25
REMARK   15  A    between atoms: C_25  and  C_26
REMARK   16  A    between atoms: N_29  and  C_30
REMARK                            x       y       z     vdW  Elec       q    Type
REMARK                         _______ _______ _______ _____ _____    ______ ____
ROOT
ATOM      1  C   UNL     1       6.233   5.409  16.189  0.00  0.00    +0.000 A 
ATOM      2  C   UNL     1       5.052   4.688  16.383  0.00  0.00    +0.000 A 
ATOM      3  C   UNL     1       4.097   5.114  17.312  0.00  0.00    +0.000 A 
ATOM      4  C   UNL     1       4.360   6.219  18.120  0.00  0.00    +0.000 A 
ATOM      5  C   UNL     1       5.514   6.968  17.911  0.00  0.00    +0.000 A 
ATOM      6  C   UNL     1       6.415   6.607  16.907  0.00  0.00    +0.000 A 
ENDROOT
BRANCH   1   8
ATOM      7  C   UNL     1       6.892   4.435  14.077  0.00  0.00    +0.000 C 
ATOM      8  O   UNL     1       7.222   5.036  15.322  0.00  0.00    +0.000 OA
ENDBRANCH   1   8
BRANCH   3   9
ATOM      9  N   UNL     1       2.924   4.349  17.439  0.00  0.00    +0.000 N 
ATOM     10  H   UNL     1       2.227   4.484  16.717  0.00  0.00    +0.000 HD
BRANCH   9  11
ATOM     11  C   UNL     1       2.425   3.738  18.559  0.00  0.00    +0.000 C 
ATOM     12  S   UNL     1       2.824   2.243  19.183  0.00  0.00    +0.000 S 
BRANCH  11  13
ATOM     13  N   UNL     1       1.509   4.490  19.251  0.00  0.00    +0.000 N 
ATOM     14  H   UNL     1       0.811   4.920  18.653  0.00  0.00    +0.000 HD
BRANCH  13  15
ATOM     15  C   UNL     1       1.736   5.086  20.559  0.00  0.00    +0.000 C 
BRANCH  15  16
ATOM     16  C   UNL     1       1.888   6.609  20.502  0.00  0.00    +0.000 C 
BRANCH  16  17
ATOM     17  C   UNL     1       0.767   7.331  21.243  0.00  0.00    +0.000 C 
BRANCH  17  18
ATOM     18  N   UNL     1       0.759   8.758  20.977  0.00  0.00    +0.000 N 
ATOM     19  C   UNL     1       1.055   9.329  19.771  0.00  0.00    +0.000 A 
ATOM     20  N   UNL     1       0.914  10.633  19.810  0.00  0.00    +0.000 NA
ATOM     21  C   UNL     1       0.514  10.917  21.082  0.00  0.00    +0.000 A 
ATOM     22  C   UNL     1       0.417   9.764  21.845  0.00  0.00    +0.000 A 
ATOM     23  C   UNL     1       0.035   9.575  23.259  0.00  0.00    +0.000 C 
ENDBRANCH  17  18
ENDBRANCH  16  17
ENDBRANCH  15  16
ENDBRANCH  13  15
ENDBRANCH  11  13
ENDBRANCH   9  11
ENDBRANCH   3   9
BRANCH   6  24
ATOM     24  O   UNL     1       7.436   7.510  16.724  0.00  0.00    +0.000 OA
BRANCH  24  25
ATOM     25  C   UNL     1       7.952   8.050  17.941  0.00  0.00    +0.000 C 
BRANCH  25  26
ATOM     26  C   UNL     1       8.468   9.469  17.712  0.00  0.00    +0.000 C 
BRANCH  26  27
ATOM     27  C   UNL     1       9.066   9.992  19.021  0.00  0.00    +0.000 C 
BRANCH  27  28
ATOM     28  C   UNL     1       9.734  11.366  18.915  0.00  0.00    +0.000 C 
ATOM     29  C   UNL     1       8.752  12.485  18.554  0.00  0.00    +0.000 C 
ATOM     30  C   UNL     1       9.486  13.819  18.398  0.00  0.00    +0.000 C 
ATOM     31  N   UNL     1      10.554  13.742  17.392  0.00  0.00    +0.000 NA
ATOM     32  C   UNL     1      11.239  15.031  17.291  0.00  0.00    +0.000 C 
ATOM     33  C   UNL     1      11.520  12.681  17.704  0.00  0.00    +0.000 C 
ATOM     34  C   UNL     1      10.838  11.321  17.847  0.00  0.00    +0.000 C 
ENDBRANCH  27  28
ENDBRANCH  26  27
ENDBRANCH  25  26
ENDBRANCH  24  25
ENDBRANCH   6  24
TORSDOF 13
ENDMDL
MODEL 5
REMARK VINA RESULT:      -7.1      1.554      2.421
REMARK  Name = 
REMARK  16 active torsions:
REMARK  status: ('A' for Active; 'I' for Inactive)
REMARK    1  A    between atoms: C_1  and  O_2
REMARK    2  A    between atoms: O_2  and  C_3
REMARK    3  A    between atoms: C_5  and  N_6
REMARK    4  A    between atoms: N_6  and  C_7
REMARK    5  A    between atoms: C_7  and  N_9
REMARK    6  A    between atoms: N_9  and  C_10
REMARK    7  A    between atoms: C_10  and  C_11
REMARK    8  A    between atoms: C_11  and  C_12
REMARK    9  A    between atoms: C_12  and  N_13
REMARK   10  A    between atoms: C_17  and  C_18
REMARK   11  A    between atoms: C_21  and  O_22
REMARK   12  A    between atoms: O_22  and  C_23
REMARK   13  A    between atoms: C_23  and  C_24
REMARK   14  A    between atoms: C_24  and  C_25
REMARK   15  A    between atoms: C_25  and  C_26
REMARK   16  A    between atoms: N_29  and  C_30
REMARK                            x       y       z     vdW  Elec       q    Type
REMARK                         _______ _______ _______ _____ _____    ______ ____
ROOT
ATOM      1  C   UNL     1       7.162   5.362  18.160  0.00  0.00    +0.000 A 
ATOM      2  C   UNL     1       6.154   4.437  17.878  0.00  0.00    +0.000 A 
ATOM      3  C   UNL     1       5.081   4.777  17.047  0.00  0.00    +0.000 A 
ATOM      4  C   UNL     1       4.963   6.079  16.565  0.00  0.00    +0.000 A 
ATOM      5  C   UNL     1       5.979   7.000  16.807  0.00  0.00    +0.000 A 
ATOM      6  C   UNL     1       7.105   6.627  17.543  0.00  0.00    +0.000 A 
ENDROOT
BRANCH   1   8
ATOM      7  C   UNL     1       8.163   5.478  20.357  0.00  0.00    +0.000 C 
ATOM      8  O   UNL     1       8.222   5.110  18.986  0.00  0.00    +0.000 OA
ENDBRANCH   1   8
BRANCH   3   9
ATOM      9  N   UNL     1       4.115   3.787  16.792  0.00  0.00    +0.000 N 
ATOM     10  H   UNL     1       3.833   3.684  15.825  0.00  0.00    +0.000 HD
BRANCH   9  11
ATOM     11  C   UNL     1       3.240   3.207  17.672  0.00  0.00    +0.000 C 
ATOM     12  S   UNL     1       3.392   1.748  18.466  0.00  0.00    +0.000 S 
BRANCH  11  13
ATOM     13  N   UNL     1       2.125   3.961  17.939  0.00  0.00    +0.000 N 
ATOM     14  H   UNL     1       1.654   4.289  17.102  0.00  0.00    +0.000 HD
BRANCH  13  15
ATOM     15  C   UNL     1       1.886   4.690  19.176  0.00  0.00    +0.000 C 
BRANCH  15  16
ATOM     16  C   UNL     1       2.711   5.977  19.278  0.00  0.00    +0.000 C 
BRANCH  16  17
ATOM     17  C   UNL     1       1.977   7.075  20.042  0.00  0.00    +0.000 C 
BRANCH  17  18
ATOM     18  N   UNL     1       1.842   8.292  19.264  0.00  0.00    +0.000 N 
ATOM     19  C   UNL     1       2.350   8.477  18.008  0.00  0.00    +0.000 A 
ATOM     20  N   UNL     1       2.028   9.655  17.528  0.00  0.00    +0.000 NA
ATOM     21  C   UNL     1       1.286  10.254  18.504  0.00  0.00    +0.000 A 
ATOM     22  C   UNL     1       1.159   9.431  19.611  0.00  0.00    +0.000 A 
ATOM     23  C   UNL     1       0.464   9.647  20.896  0.00  0.00    +0.000 C 
ENDBRANCH  17  18
ENDBRANCH  16  17
ENDBRANCH  15  16
ENDBRANCH  13  15
ENDBRANCH  11  13
ENDBRANCH   9  11
ENDBRANCH   3   9
BRANCH   6  24
ATOM     24  O   UNL     1       8.085   7.591  17.588  0.00  0.00    +0.000 OA
BRANCH  24  25
ATOM     25  C   UNL     1       7.583   8.914  17.786  0.00  0.00    +0.000 C 
BRANCH  25  26
ATOM     26  C   UNL     1       8.727   9.925  17.735  0.00  0.00    +0.000 C 
BRANCH  26  27
ATOM     27  C   UNL     1       9.197  10.205  19.165  0.00  0.00    +0.000 C 
BRANCH  27  28
ATOM     28  C   UNL     1       9.515  11.675  19.457  0.00  0.00    +0.000 C 
ATOM     29  C   UNL     1       9.244  12.596  18.263  0.00  0.00    +0.000 C 
ATOM     30  C   UNL     1       9.640  14.037  18.591  0.00  0.00    +0.000 C 
ATOM     31  N   UNL     1      11.049  14.139  18.998  0.00  0.00    +0.000 NA
ATOM     32  C   UNL     1      11.376  15.529  19.320  0.00  0.00    +0.000 C 
ATOM     33  C   UNL     1      11.348  13.272  20.145  0.00  0.00    +0.000 C 
ATOM     34  C   UNL     1      10.992  11.814  19.857  0.00  0.00    +0.000 C 
ENDBRANCH  27  28
ENDBRANCH  26  27
ENDBRANCH  25  26
ENDBRANCH  24  25
ENDBRANCH   6  24
TORSDOF 13
ENDMDL
MODEL 6
REMARK VINA RESULT:      -7.0      1.627      2.162
REMARK  Name = 
REMARK  16 active torsions:
REMARK  status: ('A' for Active; 'I' for Inactive)
REMARK    1  A    between atoms: C_1  and  O_2
REMARK    2  A    between atoms: O_2  and  C_3
REMARK    3  A    between atoms: C_5  and  N_6
REMARK    4  A    between atoms: N_6  and  C_7
REMARK    5  A    between atoms: C_7  and  N_9
REMARK    6  A    between atoms: N_9  and  C_10
REMARK    7  A    between atoms: C_10  and  C_11
REMARK    8  A    between atoms: C_11  and  C_12
REMARK    9  A    between atoms: C_12  and  N_13
REMARK   10  A    between atoms: C_17  and  C_18
REMARK   11  A    between atoms: C_21  and  O_22
REMARK   12  A    between atoms: O_22  and  C_23
REMARK   13  A    between atoms: C_23  and  C_24
REMARK   14  A    between atoms: C_24  and  C_25
REMARK   15  A    between atoms: C_25  and  C_26
REMARK   16  A    between atoms: N_29  and  C_30
REMARK                            x       y       z     vdW  Elec       q    Type
REMARK                         _______ _______ _______ _____ _____    ______ ____
ROOT
ATOM      1  C   UNL     1       6.832   5.404  16.358  0.00  0.00    +0.000 A 
ATOM      2  C   UNL     1       5.871   4.461  16.727  0.00  0.00    +0.000 A 
ATOM      3  C   UNL     1       5.450   4.349  18.057  0.00  0.00    +0.000 A 
ATOM      4  C   UNL     1       6.058   5.123  19.044  0.00  0.00    +0.000 A 
ATOM      5  C   UNL     1       6.990   6.093  18.685  0.00  0.00    +0.000 A 
ATOM      6  C   UNL     1       7.327   6.281  17.343  0.00  0.00    +0.000 A 
ENDROOT
BRANCH   1   8
ATOM      7  C   UNL     1       6.833   4.710  14.043  0.00  0.00    +0.000 C 
ATOM      8  O   UNL     1       7.312   5.548  15.086  0.00  0.00    +0.000 OA
ENDBRANCH   1   8
BRANCH   3   9
ATOM      9  N   UNL     1       4.464   3.390  18.351  0.00  0.00    +0.000 N 
ATOM     10  H   UNL     1       4.277   2.712  17.623  0.00  0.00    +0.000 HD
BRANCH   9  11
ATOM     11  C   UNL     1       3.474   3.452  19.297  0.00  0.00    +0.000 C 
ATOM     12  S   UNL     1       3.308   2.528  20.676  0.00  0.00    +0.000 S 
BRANCH  11  13
ATOM     13  N   UNL     1       2.538   4.428  19.070  0.00  0.00    +0.000 N 
ATOM     14  H   UNL     1       2.104   4.363  18.154  0.00  0.00    +0.000 HD
BRANCH  13  15
ATOM     15  C   UNL     1       2.494   5.716  19.746  0.00  0.00    +0.000 C 
BRANCH  15  16
ATOM     16  C   UNL     1       2.887   6.882  18.833  0.00  0.00    +0.000 C 
BRANCH  16  17
ATOM     17  C   UNL     1       1.671   7.585  18.236  0.00  0.00    +0.000 C 
BRANCH  17  18
ATOM     18  N   UNL     1       1.555   8.960  18.683  0.00  0.00    +0.000 N 
ATOM     19  C   UNL     1       1.983  10.050  17.977  0.00  0.00    +0.000 A 
ATOM     20  N   UNL     1       1.700  11.168  18.601  0.00  0.00    +0.000 NA
ATOM     21  C   UNL     1       1.066  10.793  19.749  0.00  0.00    +0.000 A 
ATOM     22  C   UNL     1       0.968   9.413  19.838  0.00  0.00    +0.000 A 
ATOM     23  C   UNL     1       0.380   8.556  20.886  0.00  0.00    +0.000 C 
ENDBRANCH  17  18
ENDBRANCH  16  17
ENDBRANCH  15  16
ENDBRANCH  13  15
ENDBRANCH  11  13
ENDBRANCH   9  11
ENDBRANCH   3   9
BRANCH   6  24
ATOM     24  O   UNL     1       8.153   7.358  17.122  0.00  0.00    +0.000 OA
BRANCH  24  25
ATOM     25  C   UNL     1       7.634   8.593  17.620  0.00  0.00    +0.000 C 
BRANCH  25  26
ATOM     26  C   UNL     1       8.648   9.254  18.551  0.00  0.00    +0.000 C 
BRANCH  26  27
ATOM     27  C   UNL     1       9.106  10.573  17.923  0.00  0.00    +0.000 C 
BRANCH  27  28
ATOM     28  C   UNL     1       9.720  11.572  18.908  0.00  0.00    +0.000 C 
ATOM     29  C   UNL     1       9.422  11.230  20.372  0.00  0.00    +0.000 C 
ATOM     30  C   UNL     1      10.003  12.296  21.304  0.00  0.00    +0.000 C 
ATOM     31  N   UNL     1       9.495  13.638  20.986  0.00  0.00    +0.000 NA
ATOM     32  C   UNL     1      10.092  14.625  21.887  0.00  0.00    +0.000 C 
ATOM     33  C   UNL     1       9.765  14.005  19.589  0.00  0.00    +0.000 C 
ATOM     34  C   UNL     1       9.182  12.981  18.616  0.00  0.00    +0.000 C 
ENDBRANCH  27  28
ENDBRANCH  26  27
ENDBRANCH  25  26
ENDBRANCH  24  25
ENDBRANCH   6  24
TORSDOF 13
ENDMDL
MODEL 7
REMARK VINA RESULT:      -6.8      5.281      9.497
REMARK  Name = 
REMARK  16 active torsions:
REMARK  status: ('A' for Active; 'I' for Inactive)
REMARK    1  A    between atoms: C_1  and  O_2
REMARK    2  A    between atoms: O_2  and  C_3
REMARK    3  A    between atoms: C_5  and  N_6
REMARK    4  A    between atoms: N_6  and  C_7
REMARK    5  A    between atoms: C_7  and  N_9
REMARK    6  A    between atoms: N_9  and  C_10
REMARK    7  A    between atoms: C_10  and  C_11
REMARK    8  A    between atoms: C_11  and  C_12
REMARK    9  A    between atoms: C_12  and  N_13
REMARK   10  A    between atoms: C_17  and  C_18
REMARK   11  A    between atoms: C_21  and  O_22
REMARK   12  A    between atoms: O_22  and  C_23
REMARK   13  A    between atoms: C_23  and  C_24
REMARK   14  A    between atoms: C_24  and  C_25
REMARK   15  A    between atoms: C_25  and  C_26
REMARK   16  A    between atoms: N_29  and  C_30
REMARK                            x       y       z     vdW  Elec       q    Type
REMARK                         _______ _______ _______ _____ _____    ______ ____
ROOT
ATOM      1  C   UNL     1       0.820   9.173  20.847  0.00  0.00    +0.000 A 
ATOM      2  C   UNL     1       1.329   7.899  21.111  0.00  0.00    +0.000 A 
ATOM      3  C   UNL     1       2.011   7.181  20.123  0.00  0.00    +0.000 A 
ATOM      4  C   UNL     1       2.109   7.699  18.833  0.00  0.00    +0.000 A 
ATOM      5  C   UNL     1       1.641   8.983  18.566  0.00  0.00    +0.000 A 
ATOM      6  C   UNL     1       1.060   9.744  19.582  0.00  0.00    +0.000 A 
ENDROOT
BRANCH   1   8
ATOM      7  C   UNL     1      -0.438   9.302  22.907  0.00  0.00    +0.000 C 
ATOM      8  O   UNL     1       0.119   9.918  21.754  0.00  0.00    +0.000 OA
ENDBRANCH   1   8
BRANCH   3   9
ATOM      9  N   UNL     1       2.512   5.913  20.467  0.00  0.00    +0.000 N 
ATOM     10  H   UNL     1       3.461   5.893  20.820  0.00  0.00    +0.000 HD
BRANCH   9  11
ATOM     11  C   UNL     1       2.064   4.683  20.060  0.00  0.00    +0.000 C 
ATOM     12  S   UNL     1       1.309   3.508  20.971  0.00  0.00    +0.000 S 
BRANCH  11  13
ATOM     13  N   UNL     1       2.244   4.432  18.723  0.00  0.00    +0.000 N 
ATOM     14  H   UNL     1       1.837   5.143  18.124  0.00  0.00    +0.000 HD
BRANCH  13  15
ATOM     15  C   UNL     1       2.478   3.117  18.145  0.00  0.00    +0.000 C 
BRANCH  15  16
ATOM     16  C   UNL     1       3.615   3.111  17.119  0.00  0.00    +0.000 C 
BRANCH  16  17
ATOM     17  C   UNL     1       4.179   4.507  16.871  0.00  0.00    +0.000 C 
BRANCH  17  18
ATOM     18  N   UNL     1       5.623   4.552  17.009  0.00  0.00    +0.000 N 
ATOM     19  C   UNL     1       6.511   4.332  15.994  0.00  0.00    +0.000 A 
ATOM     20  N   UNL     1       7.750   4.491  16.398  0.00  0.00    +0.000 NA
ATOM     21  C   UNL     1       7.662   4.825  17.717  0.00  0.00    +0.000 A 
ATOM     22  C   UNL     1       6.341   4.861  18.137  0.00  0.00    +0.000 A 
ATOM     23  C   UNL     1       5.760   5.163  19.460  0.00  0.00    +0.000 C 
ENDBRANCH  17  18
ENDBRANCH  16  17
ENDBRANCH  15  16
ENDBRANCH  13  15
ENDBRANCH  11  13
ENDBRANCH   9  11
ENDBRANCH   3   9
BRANCH   6  24
ATOM     24  O   UNL     1       0.768  11.036  19.213  0.00  0.00    +0.000 OA
BRANCH  24  25
ATOM     25  C   UNL     1      -0.584  11.223  18.792  0.00  0.00    +0.000 C 
BRANCH  25  26
ATOM     26  C   UNL     1      -0.958  12.702  18.862  0.00  0.00    +0.000 C 
BRANCH  26  27
ATOM     27  C   UNL     1      -0.898  13.156  20.323  0.00  0.00    +0.000 C 
BRANCH  27  28
ATOM     28  C   UNL     1      -2.083  12.705  21.182  0.00  0.00    +0.000 C 
ATOM     29  C   UNL     1      -3.423  13.274  20.702  0.00  0.00    +0.000 C 
ATOM     30  C   UNL     1      -4.557  12.844  21.635  0.00  0.00    +0.000 C 
ATOM     31  N   UNL     1      -4.307  13.248  23.025  0.00  0.00    +0.000 NA
ATOM     32  C   UNL     1      -5.406  12.799  23.882  0.00  0.00    +0.000 C 
ATOM     33  C   UNL     1      -3.031  12.719  23.524  0.00  0.00    +0.000 C 
ATOM     34  C   UNL     1      -1.860  13.142  22.638  0.00  0.00    +0.000 C 
ENDBRANCH  27  28
ENDBRANCH  26  27
ENDBRANCH  25  26
ENDBRANCH  24  25
ENDBRANCH   6  24
TORSDOF 13
ENDMDL
MODEL 8
REMARK VINA RESULT:      -6.7      5.704      9.066
REMARK  Name = 
REMARK  16 active torsions:
REMARK  status: ('A' for Active; 'I' for Inactive)
REMARK    1  A    between atoms: C_1  and  O_2
REMARK    2  A    between atoms: O_2  and  C_3
REMARK    3  A    between atoms: C_5  and  N_6
REMARK    4  A    between atoms: N_6  and  C_7
REMARK    5  A    between atoms: C_7  and  N_9
REMARK    6  A    between atoms: N_9  and  C_10
REMARK    7  A    between atoms: C_10  and  C_11
REMARK    8  A    between atoms: C_11  and  C_12
REMARK    9  A    between atoms: C_12  and  N_13
REMARK   10  A    between atoms: C_17  and  C_18
REMARK   11  A    between atoms: C_21  and  O_22
REMARK   12  A    between atoms: O_22  and  C_23
REMARK   13  A    between atoms: C_23  and  C_24
REMARK   14  A    between atoms: C_24  and  C_25
REMARK   15  A    between atoms: C_25  and  C_26
REMARK   16  A    between atoms: N_29  and  C_30
REMARK                            x       y       z     vdW  Elec       q    Type
REMARK                         _______ _______ _______ _____ _____    ______ ____
ROOT
ATOM      1  C   UNL     1       1.293   8.649  20.612  0.00  0.00    +0.000 A 
ATOM      2  C   UNL     1       0.627   9.668  19.928  0.00  0.00    +0.000 A 
ATOM      3  C   UNL     1       0.712   9.772  18.536  0.00  0.00    +0.000 A 
ATOM      4  C   UNL     1       1.542   8.906  17.826  0.00  0.00    +0.000 A 
ATOM      5  C   UNL     1       2.181   7.862  18.489  0.00  0.00    +0.000 A 
ATOM      6  C   UNL     1       2.005   7.691  19.864  0.00  0.00    +0.000 A 
ENDROOT
BRANCH   1   8
ATOM      7  C   UNL     1       0.421   9.312  22.767  0.00  0.00    +0.000 C 
ATOM      8  O   UNL     1       1.278   8.504  21.972  0.00  0.00    +0.000 OA
ENDBRANCH   1   8
BRANCH   3   9
ATOM      9  N   UNL     1      -0.001  10.813  17.914  0.00  0.00    +0.000 N 
ATOM     10  H   UNL     1       0.546  11.443  17.342  0.00  0.00    +0.000 HD
BRANCH   9  11
ATOM     11  C   UNL     1      -1.230  11.319  18.249  0.00  0.00    +0.000 C 
ATOM     12  S   UNL     1      -1.577  12.589  19.274  0.00  0.00    +0.000 S 
BRANCH  11  13
ATOM     13  N   UNL     1      -2.283  10.705  17.621  0.00  0.00    +0.000 N 
ATOM     14  H   UNL     1      -2.021   9.848  17.143  0.00  0.00    +0.000 HD
BRANCH  13  15
ATOM     15  C   UNL     1      -3.500  11.373  17.185  0.00  0.00    +0.000 C 
BRANCH  15  16
ATOM     16  C   UNL     1      -4.758  10.824  17.864  0.00  0.00    +0.000 C 
BRANCH  16  17
ATOM     17  C   UNL     1      -5.807  11.907  18.102  0.00  0.00    +0.000 C 
BRANCH  17  18
ATOM     18  N   UNL     1      -5.877  12.310  19.495  0.00  0.00    +0.000 N 
ATOM     19  C   UNL     1      -5.274  13.420  20.017  0.00  0.00    +0.000 A 
ATOM     20  N   UNL     1      -5.553  13.562  21.292  0.00  0.00    +0.000 NA
ATOM     21  C   UNL     1      -6.363  12.511  21.606  0.00  0.00    +0.000 A 
ATOM     22  C   UNL     1      -6.578  11.698  20.503  0.00  0.00    +0.000 A 
ATOM     23  C   UNL     1      -7.367  10.458  20.361  0.00  0.00    +0.000 C 
ENDBRANCH  17  18
ENDBRANCH  16  17
ENDBRANCH  15  16
ENDBRANCH  13  15
ENDBRANCH  11  13
ENDBRANCH   9  11
ENDBRANCH   3   9
BRANCH   6  24
ATOM     24  O   UNL     1       2.582   6.546  20.361  0.00  0.00    +0.000 OA
BRANCH  24  25
ATOM     25  C   UNL     1       1.661   5.469  20.543  0.00  0.00    +0.000 C 
BRANCH  25  26
ATOM     26  C   UNL     1       1.886   4.397  19.479  0.00  0.00    +0.000 C 
BRANCH  26  27
ATOM     27  C   UNL     1       3.363   3.994  19.492  0.00  0.00    +0.000 C 
BRANCH  27  28
ATOM     28  C   UNL     1       4.179   4.516  18.305  0.00  0.00    +0.000 C 
ATOM     29  C   UNL     1       4.013   3.663  17.043  0.00  0.00    +0.000 C 
ATOM     30  C   UNL     1       4.899   4.193  15.913  0.00  0.00    +0.000 C 
ATOM     31  N   UNL     1       6.315   4.244  16.305  0.00  0.00    +0.000 NA
ATOM     32  C   UNL     1       7.120   4.773  15.204  0.00  0.00    +0.000 C 
ATOM     33  C   UNL     1       6.517   5.056  17.512  0.00  0.00    +0.000 C 
ATOM     34  C   UNL     1       5.669   4.551  18.679  0.00  0.00    +0.000 C 
ENDBRANCH  27  28
ENDBRANCH  26  27
ENDBRANCH  25  26
ENDBRANCH  24  25
ENDBRANCH   6  24
TORSDOF 13
ENDMDL
MODEL 9
REMARK VINA RESULT:      -6.7      5.046      9.074
REMARK  Name = 
REMARK  16 active torsions:
REMARK  status: ('A' for Active; 'I' for Inactive)
REMARK    1  A    between atoms: C_1  and  O_2
REMARK    2  A    between atoms: O_2  and  C_3
REMARK    3  A    between atoms: C_5  and  N_6
REMARK    4  A    between atoms: N_6  and  C_7
REMARK    5  A    between atoms: C_7  and  N_9
REMARK    6  A    between atoms: N_9  and  C_10
REMARK    7  A    between atoms: C_10  and  C_11
REMARK    8  A    between atoms: C_11  and  C_12
REMARK    9  A    between atoms: C_12  and  N_13
REMARK   10  A    between atoms: C_17  and  C_18
REMARK   11  A    between atoms: C_21  and  O_22
REMARK   12  A    between atoms: O_22  and  C_23
REMARK   13  A    between atoms: C_23  and  C_24
REMARK   14  A    between atoms: C_24  and  C_25
REMARK   15  A    between atoms: C_25  and  C_26
REMARK   16  A    between atoms: N_29  and  C_30
REMARK                            x       y       z     vdW  Elec       q    Type
REMARK                         _______ _______ _______ _____ _____    ______ ____
ROOT
ATOM      1  C   UNL     1       0.944   9.082  20.661  0.00  0.00    +0.000 A 
ATOM      2  C   UNL     1       0.298  10.102  19.959  0.00  0.00    +0.000 A 
ATOM      3  C   UNL     1       0.496  10.262  18.583  0.00  0.00    +0.000 A 
ATOM      4  C   UNL     1       1.417   9.455  17.917  0.00  0.00    +0.000 A 
ATOM      5  C   UNL     1       2.039   8.411  18.595  0.00  0.00    +0.000 A 
ATOM      6  C   UNL     1       1.756   8.181  19.943  0.00  0.00    +0.000 A 
ENDROOT
BRANCH   1   8
ATOM      7  C   UNL     1      -0.331   9.352  22.696  0.00  0.00    +0.000 C 
ATOM      8  O   UNL     1       0.821   8.886  22.008  0.00  0.00    +0.000 OA
ENDBRANCH   1   8
BRANCH   3   9
ATOM      9  N   UNL     1      -0.204  11.299  17.940  0.00  0.00    +0.000 N 
ATOM     10  H   UNL     1       0.339  11.869  17.303  0.00  0.00    +0.000 HD
BRANCH   9  11
ATOM     11  C   UNL     1      -1.388  11.881  18.308  0.00  0.00    +0.000 C 
ATOM     12  S   UNL     1      -2.904  11.188  18.364  0.00  0.00    +0.000 S 
BRANCH  11  13
ATOM     13  N   UNL     1      -1.273  13.188  18.709  0.00  0.00    +0.000 N 
ATOM     14  H   UNL     1      -1.082  13.827  17.943  0.00  0.00    +0.000 HD
BRANCH  13  15
ATOM     15  C   UNL     1      -0.916  13.622  20.052  0.00  0.00    +0.000 C 
BRANCH  15  16
ATOM     16  C   UNL     1      -0.514  15.098  20.115  0.00  0.00    +0.000 C 
BRANCH  16  17
ATOM     17  C   UNL     1      -0.057  15.631  18.760  0.00  0.00    +0.000 C 
BRANCH  17  18
ATOM     18  N   UNL     1       1.343  16.015  18.763  0.00  0.00    +0.000 N 
ATOM     19  C   UNL     1       1.809  17.269  19.042  0.00  0.00    +0.000 A 
ATOM     20  N   UNL     1       3.120  17.310  19.022  0.00  0.00    +0.000 NA
ATOM     21  C   UNL     1       3.518  16.041  18.720  0.00  0.00    +0.000 A 
ATOM     22  C   UNL     1       2.428  15.205  18.539  0.00  0.00    +0.000 A 
ATOM     23  C   UNL     1       2.362  13.770  18.197  0.00  0.00    +0.000 C 
ENDBRANCH  17  18
ENDBRANCH  16  17
ENDBRANCH  15  16
ENDBRANCH  13  15
ENDBRANCH  11  13
ENDBRANCH   9  11
ENDBRANCH   3   9
BRANCH   6  24
ATOM     24  O   UNL     1       2.334   7.040  20.447  0.00  0.00    +0.000 OA
BRANCH  24  25
ATOM     25  C   UNL     1       2.006   5.857  19.716  0.00  0.00    +0.000 C 
BRANCH  25  26
ATOM     26  C   UNL     1       2.202   4.624  20.595  0.00  0.00    +0.000 C 
BRANCH  26  27
ATOM     27  C   UNL     1       3.256   3.721  19.947  0.00  0.00    +0.000 C 
BRANCH  27  28
ATOM     28  C   UNL     1       3.988   4.346  18.755  0.00  0.00    +0.000 C 
ATOM     29  C   UNL     1       3.968   3.458  17.507  0.00  0.00    +0.000 C 
ATOM     30  C   UNL     1       4.767   4.103  16.373  0.00  0.00    +0.000 C 
ATOM     31  N   UNL     1       6.154   4.383  16.770  0.00  0.00    +0.000 NA
ATOM     32  C   UNL     1       6.873   5.016  15.664  0.00  0.00    +0.000 C 
ATOM     33  C   UNL     1       6.216   5.236  17.964  0.00  0.00    +0.000 C 
ATOM     34  C   UNL     1       5.450   4.622  19.136  0.00  0.00    +0.000 C 
ENDBRANCH  27  28
ENDBRANCH  26  27
ENDBRANCH  25  26
ENDBRANCH  24  25
ENDBRANCH   6  24
TORSDOF 13
ENDMDL
