MODEL 1
REMARK VINA RESULT:      -8.4      0.000      0.000
REMARK  Name = 
REMARK  7 active torsions:
REMARK  status: ('A' for Active; 'I' for Inactive)
REMARK    1  A    between atoms: C_1  and  C_2
REMARK    2  A    between atoms: C_2  and  O_4
REMARK    3  A    between atoms: O_4  and  C_5
REMARK    4  A    between atoms: C_7  and  O_8
REMARK    5  A    between atoms: C_12  and  C_13
REMARK    6  A    between atoms: C_16  and  O_17
REMARK    7  A    between atoms: C_18  and  O_19
REMARK                            x       y       z     vdW  Elec       q    Type
REMARK                         _______ _______ _______ _____ _____    ______ ____
ROOT
ATOM      1  C   UNL     1       0.556  10.508  19.853  0.00  0.00    +0.000 A 
ATOM      2  C   UNL     1       0.071  10.935  21.094  0.00  0.00    +0.000 A 
ATOM      3  C   UNL     1       0.161  10.085  22.191  0.00  0.00    +0.000 A 
ATOM      4  C   UNL     1       0.754   8.833  22.079  0.00  0.00    +0.000 A 
ATOM      5  C   UNL     1       1.280   8.427  20.852  0.00  0.00    +0.000 A 
ATOM      6  O   UNL     1       1.876   7.186  20.830  0.00  0.00    +0.000 OA
ATOM      7  C   UNL     1       2.452   6.767  19.648  0.00  0.00    +0.000 A 
ATOM      8  C   UNL     1       2.449   7.464  18.506  0.00  0.00    +0.000 A 
ATOM      9  C   UNL     1       1.792   8.783  18.468  0.00  0.00    +0.000 A 
ATOM     10  O   UNL     1       1.775   9.422  17.425  0.00  0.00    +0.000 OA
ATOM     11  C   UNL     1       1.191   9.261  19.732  0.00  0.00    +0.000 A 
ENDROOT
BRANCH   7  12
ATOM     12  C   UNL     1       3.121   5.462  19.714  0.00  0.00    +0.000 A 
ATOM     13  C   UNL     1       2.473   4.355  20.288  0.00  0.00    +0.000 A 
ATOM     14  C   UNL     1       3.080   3.091  20.285  0.00  0.00    +0.000 A 
ATOM     15  C   UNL     1       4.334   2.942  19.704  0.00  0.00    +0.000 A 
ATOM     16  C   UNL     1       4.983   4.041  19.150  0.00  0.00    +0.000 A 
ATOM     17  C   UNL     1       4.393   5.298  19.151  0.00  0.00    +0.000 A 
BRANCH  15  18
ATOM     18  O   UNL     1       4.968   1.732  19.648  0.00  0.00    +0.000 OA
ATOM     19  H   UNL     1       5.677   1.729  20.313  0.00  0.00    +0.000 HD
ENDBRANCH  15  18
BRANCH  16  20
ATOM     20  O   UNL     1       6.216   3.886  18.579  0.00  0.00    +0.000 OA
ATOM     21  H   UNL     1       6.030   3.733  17.632  0.00  0.00    +0.000 HD
ENDBRANCH  16  20
ENDBRANCH   7  12
BRANCH   3  22
ATOM     22  O   UNL     1      -0.330  10.454  23.409  0.00  0.00    +0.000 OA
ATOM     23  H   UNL     1       0.356  10.300  24.083  0.00  0.00    +0.000 HD
ENDBRANCH   3  22
BRANCH   1  24
ATOM     24  O   UNL     1       0.475  11.360  18.728  0.00  0.00    +0.000 OA
BRANCH  24  26
ATOM     25  C   UNL     1      -1.635  10.829  17.803  0.00  0.00    +0.000 C 
ATOM     26  C   UNL     1      -0.750  11.909  18.347  0.00  0.00    +0.000 C 
ATOM     27  O   UNL     1      -1.077  13.086  18.426  0.00  0.00    +0.000 OA
ENDBRANCH  24  26
ENDBRANCH   1  24
TORSDOF 6
ENDMDL
MODEL 2
REMARK VINA RESULT:      -8.2      0.866      1.050
REMARK  Name = 
REMARK  7 active torsions:
REMARK  status: ('A' for Active; 'I' for Inactive)
REMARK    1  A    between atoms: C_1  and  C_2
REMARK    2  A    between atoms: C_2  and  O_4
REMARK    3  A    between atoms: O_4  and  C_5
REMARK    4  A    between atoms: C_7  and  O_8
REMARK    5  A    between atoms: C_12  and  C_13
REMARK    6  A    between atoms: C_16  and  O_17
REMARK    7  A    between atoms: C_18  and  O_19
REMARK                            x       y       z     vdW  Elec       q    Type
REMARK                         _______ _______ _______ _____ _____    ______ ____
ROOT
ATOM      1  C   UNL     1       0.496  10.582  19.828  0.00  0.00    +0.000 A 
ATOM      2  C   UNL     1      -0.041  10.995  21.053  0.00  0.00    +0.000 A 
ATOM      3  C   UNL     1       0.001  10.130  22.141  0.00  0.00    +0.000 A 
ATOM      4  C   UNL     1       0.598   8.879  22.039  0.00  0.00    +0.000 A 
ATOM      5  C   UNL     1       1.174   8.487  20.830  0.00  0.00    +0.000 A 
ATOM      6  O   UNL     1       1.770   7.247  20.817  0.00  0.00    +0.000 OA
ATOM      7  C   UNL     1       2.396   6.841  19.656  0.00  0.00    +0.000 A 
ATOM      8  C   UNL     1       2.441   7.553  18.524  0.00  0.00    +0.000 A 
ATOM      9  C   UNL     1       1.788   8.873  18.475  0.00  0.00    +0.000 A 
ATOM     10  O   UNL     1       1.816   9.525  17.440  0.00  0.00    +0.000 OA
ATOM     11  C   UNL     1       1.134   9.336  19.718  0.00  0.00    +0.000 A 
ENDROOT
BRANCH   7  12
ATOM     12  C   UNL     1       3.060   5.535  19.734  0.00  0.00    +0.000 A 
ATOM     13  C   UNL     1       2.417   4.440  20.337  0.00  0.00    +0.000 A 
ATOM     14  C   UNL     1       3.017   3.174  20.346  0.00  0.00    +0.000 A 
ATOM     15  C   UNL     1       4.261   3.010  19.747  0.00  0.00    +0.000 A 
ATOM     16  C   UNL     1       4.906   4.095  19.165  0.00  0.00    +0.000 A 
ATOM     17  C   UNL     1       4.321   5.356  19.153  0.00  0.00    +0.000 A 
BRANCH  15  18
ATOM     18  O   UNL     1       4.890   1.796  19.702  0.00  0.00    +0.000 OA
ATOM     19  H   UNL     1       5.003   1.477  20.614  0.00  0.00    +0.000 HD
ENDBRANCH  15  18
BRANCH  16  20
ATOM     20  O   UNL     1       6.129   3.925  18.577  0.00  0.00    +0.000 OA
ATOM     21  H   UNL     1       6.477   3.101  18.969  0.00  0.00    +0.000 HD
ENDBRANCH  16  20
ENDBRANCH   7  12
BRANCH   3  22
ATOM     22  O   UNL     1      -0.540  10.484  23.342  0.00  0.00    +0.000 OA
ATOM     23  H   UNL     1       0.109  11.019  23.833  0.00  0.00    +0.000 HD
ENDBRANCH   3  22
BRANCH   1  24
ATOM     24  O   UNL     1       0.463  11.448  18.712  0.00  0.00    +0.000 OA
BRANCH  24  26
ATOM     25  C   UNL     1      -0.089  13.741  18.540  0.00  0.00    +0.000 C 
ATOM     26  C   UNL     1       0.991  12.737  18.803  0.00  0.00    +0.000 C 
ATOM     27  O   UNL     1       2.153  13.032  19.052  0.00  0.00    +0.000 OA
ENDBRANCH  24  26
ENDBRANCH   1  24
TORSDOF 6
ENDMDL
MODEL 3
REMARK VINA RESULT:      -8.0      1.165      1.192
REMARK  Name = 
REMARK  7 active torsions:
REMARK  status: ('A' for Active; 'I' for Inactive)
REMARK    1  A    between atoms: C_1  and  C_2
REMARK    2  A    between atoms: C_2  and  O_4
REMARK    3  A    between atoms: O_4  and  C_5
REMARK    4  A    between atoms: C_7  and  O_8
REMARK    5  A    between atoms: C_12  and  C_13
REMARK    6  A    between atoms: C_16  and  O_17
REMARK    7  A    between atoms: C_18  and  O_19
REMARK                            x       y       z     vdW  Elec       q    Type
REMARK                         _______ _______ _______ _____ _____    ______ ____
ROOT
ATOM      1  C   UNL     1       0.919  10.632  20.096  0.00  0.00    +0.000 A 
ATOM      2  C   UNL     1       0.563  10.823  21.436  0.00  0.00    +0.000 A 
ATOM      3  C   UNL     1       0.577   9.739  22.306  0.00  0.00    +0.000 A 
ATOM      4  C   UNL     1       0.972   8.479  21.873  0.00  0.00    +0.000 A 
ATOM      5  C   UNL     1       1.371   8.299  20.548  0.00  0.00    +0.000 A 
ATOM      6  O   UNL     1       1.774   7.029  20.205  0.00  0.00    +0.000 OA
ATOM      7  C   UNL     1       2.225   6.819  18.917  0.00  0.00    +0.000 A 
ATOM      8  C   UNL     1       2.272   7.755  17.961  0.00  0.00    +0.000 A 
ATOM      9  C   UNL     1       1.817   9.123  18.269  0.00  0.00    +0.000 A 
ATOM     10  O   UNL     1       1.845   9.982  17.398  0.00  0.00    +0.000 OA
ATOM     11  C   UNL     1       1.355   9.374  19.651  0.00  0.00    +0.000 A 
ENDROOT
BRANCH   7  12
ATOM     12  C   UNL     1       2.695   5.457  18.639  0.00  0.00    +0.000 A 
ATOM     13  C   UNL     1       1.931   4.587  17.842  0.00  0.00    +0.000 A 
ATOM     14  C   UNL     1       2.411   3.311  17.513  0.00  0.00    +0.000 A 
ATOM     15  C   UNL     1       3.658   2.915  17.983  0.00  0.00    +0.000 A 
ATOM     16  C   UNL     1       4.407   3.769  18.786  0.00  0.00    +0.000 A 
ATOM     17  C   UNL     1       3.939   5.034  19.121  0.00  0.00    +0.000 A 
BRANCH  15  18
ATOM     18  O   UNL     1       4.193   1.694  17.680  0.00  0.00    +0.000 OA
ATOM     19  H   UNL     1       3.463   1.066  17.545  0.00  0.00    +0.000 HD
ENDBRANCH  15  18
BRANCH  16  20
ATOM     20  O   UNL     1       5.633   3.372  19.243  0.00  0.00    +0.000 OA
ATOM     21  H   UNL     1       5.704   2.435  18.975  0.00  0.00    +0.000 HD
ENDBRANCH  16  20
ENDBRANCH   7  12
BRANCH   3  22
ATOM     22  O   UNL     1       0.206   9.879  23.611  0.00  0.00    +0.000 OA
ATOM     23  H   UNL     1       1.004  10.010  24.152  0.00  0.00    +0.000 HD
ENDBRANCH   3  22
BRANCH   1  24
ATOM     24  O   UNL     1       0.912  11.723  19.198  0.00  0.00    +0.000 OA
BRANCH  24  26
ATOM     25  C   UNL     1      -1.259  11.740  18.262  0.00  0.00    +0.000 C 
ATOM     26  C   UNL     1      -0.235  12.504  19.045  0.00  0.00    +0.000 C 
ATOM     27  O   UNL     1      -0.404  13.640  19.467  0.00  0.00    +0.000 OA
ENDBRANCH  24  26
ENDBRANCH   1  24
TORSDOF 6
ENDMDL
MODEL 4
REMARK VINA RESULT:      -8.0      0.972      1.477
REMARK  Name = 
REMARK  7 active torsions:
REMARK  status: ('A' for Active; 'I' for Inactive)
REMARK    1  A    between atoms: C_1  and  C_2
REMARK    2  A    between atoms: C_2  and  O_4
REMARK    3  A    between atoms: O_4  and  C_5
REMARK    4  A    between atoms: C_7  and  O_8
REMARK    5  A    between atoms: C_12  and  C_13
REMARK    6  A    between atoms: C_16  and  O_17
REMARK    7  A    between atoms: C_18  and  O_19
REMARK                            x       y       z     vdW  Elec       q    Type
REMARK                         _______ _______ _______ _____ _____    ______ ____
ROOT
ATOM      1  C   UNL     1       0.841  10.459  19.941  0.00  0.00    +0.000 A 
ATOM      2  C   UNL     1       0.429  10.756  21.245  0.00  0.00    +0.000 A 
ATOM      3  C   UNL     1       0.468   9.761  22.215  0.00  0.00    +0.000 A 
ATOM      4  C   UNL     1       0.939   8.489  21.917  0.00  0.00    +0.000 A 
ATOM      5  C   UNL     1       1.393   8.206  20.627  0.00  0.00    +0.000 A 
ATOM      6  O   UNL     1       1.870   6.933  20.419  0.00  0.00    +0.000 OA
ATOM      7  C   UNL     1       2.375   6.627  19.171  0.00  0.00    +0.000 A 
ATOM      8  C   UNL     1       2.407   7.470  18.132  0.00  0.00    +0.000 A 
ATOM      9  C   UNL     1       1.875   8.834  18.294  0.00  0.00    +0.000 A 
ATOM     10  O   UNL     1       1.890   9.607  17.345  0.00  0.00    +0.000 OA
ATOM     11  C   UNL     1       1.353   9.189  19.631  0.00  0.00    +0.000 A 
ENDROOT
BRANCH   7  12
ATOM     12  C   UNL     1       2.920   5.271  19.039  0.00  0.00    +0.000 A 
ATOM     13  C   UNL     1       4.284   5.023  19.271  0.00  0.00    +0.000 A 
ATOM     14  C   UNL     1       4.794   3.719  19.217  0.00  0.00    +0.000 A 
ATOM     15  C   UNL     1       3.931   2.665  18.934  0.00  0.00    +0.000 A 
ATOM     16  C   UNL     1       2.585   2.911  18.688  0.00  0.00    +0.000 A 
ATOM     17  C   UNL     1       2.070   4.201  18.734  0.00  0.00    +0.000 A 
BRANCH  15  18
ATOM     18  O   UNL     1       4.361   1.368  18.890  0.00  0.00    +0.000 OA
ATOM     19  H   UNL     1       4.931   1.261  18.110  0.00  0.00    +0.000 HD
ENDBRANCH  15  18
BRANCH  16  20
ATOM     20  O   UNL     1       1.742   1.870  18.411  0.00  0.00    +0.000 OA
ATOM     21  H   UNL     1       1.769   1.312  19.214  0.00  0.00    +0.000 HD
ENDBRANCH  16  20
ENDBRANCH   7  12
BRANCH   3  22
ATOM     22  O   UNL     1       0.045  10.004  23.489  0.00  0.00    +0.000 OA
ATOM     23  H   UNL     1      -0.317  10.907  23.533  0.00  0.00    +0.000 HD
ENDBRANCH   3  22
BRANCH   1  24
ATOM     24  O   UNL     1       0.810  11.459  18.942  0.00  0.00    +0.000 OA
BRANCH  24  26
ATOM     25  C   UNL     1      -1.341  10.932  18.114  0.00  0.00    +0.000 C 
ATOM     26  C   UNL     1      -0.404  12.020  18.542  0.00  0.00    +0.000 C 
ATOM     27  O   UNL     1      -0.686  13.211  18.527  0.00  0.00    +0.000 OA
ENDBRANCH  24  26
ENDBRANCH   1  24
TORSDOF 6
ENDMDL
MODEL 5
REMARK VINA RESULT:      -7.8      1.531      1.772
REMARK  Name = 
REMARK  7 active torsions:
REMARK  status: ('A' for Active; 'I' for Inactive)
REMARK    1  A    between atoms: C_1  and  C_2
REMARK    2  A    between atoms: C_2  and  O_4
REMARK    3  A    between atoms: O_4  and  C_5
REMARK    4  A    between atoms: C_7  and  O_8
REMARK    5  A    between atoms: C_12  and  C_13
REMARK    6  A    between atoms: C_16  and  O_17
REMARK    7  A    between atoms: C_18  and  O_19
REMARK                            x       y       z     vdW  Elec       q    Type
REMARK                         _______ _______ _______ _____ _____    ______ ____
ROOT
ATOM      1  C   UNL     1       0.958  10.656  20.076  0.00  0.00    +0.000 A 
ATOM      2  C   UNL     1       0.554  10.861  21.400  0.00  0.00    +0.000 A 
ATOM      3  C   UNL     1       0.508   9.780  22.273  0.00  0.00    +0.000 A 
ATOM      4  C   UNL     1       0.889   8.509  21.860  0.00  0.00    +0.000 A 
ATOM      5  C   UNL     1       1.335   8.314  20.552  0.00  0.00    +0.000 A 
ATOM      6  O   UNL     1       1.720   7.034  20.228  0.00  0.00    +0.000 OA
ATOM      7  C   UNL     1       2.216   6.808  18.960  0.00  0.00    +0.000 A 
ATOM      8  C   UNL     1       2.322   7.739  18.004  0.00  0.00    +0.000 A 
ATOM      9  C   UNL     1       1.889   9.118  18.290  0.00  0.00    +0.000 A 
ATOM     10  O   UNL     1       1.972   9.973  17.417  0.00  0.00    +0.000 OA
ATOM     11  C   UNL     1       1.379   9.385  19.652  0.00  0.00    +0.000 A 
ENDROOT
BRANCH   7  12
ATOM     12  C   UNL     1       2.662   5.434  18.704  0.00  0.00    +0.000 A 
ATOM     13  C   UNL     1       1.873   4.556  17.942  0.00  0.00    +0.000 A 
ATOM     14  C   UNL     1       2.331   3.267  17.634  0.00  0.00    +0.000 A 
ATOM     15  C   UNL     1       3.581   2.865  18.090  0.00  0.00    +0.000 A 
ATOM     16  C   UNL     1       4.356   3.727  18.858  0.00  0.00    +0.000 A 
ATOM     17  C   UNL     1       3.910   5.005  19.173  0.00  0.00    +0.000 A 
BRANCH  15  18
ATOM     18  O   UNL     1       4.095   1.630  17.804  0.00  0.00    +0.000 OA
ATOM     19  H   UNL     1       3.912   1.042  18.556  0.00  0.00    +0.000 HD
ENDBRANCH  15  18
BRANCH  16  20
ATOM     20  O   UNL     1       5.585   3.325  19.302  0.00  0.00    +0.000 OA
ATOM     21  H   UNL     1       6.215   3.930  18.863  0.00  0.00    +0.000 HD
ENDBRANCH  16  20
ENDBRANCH   7  12
BRANCH   3  22
ATOM     22  O   UNL     1       0.090   9.935  23.562  0.00  0.00    +0.000 OA
ATOM     23  H   UNL     1       0.848  10.212  24.107  0.00  0.00    +0.000 HD
ENDBRANCH   3  22
BRANCH   1  24
ATOM     24  O   UNL     1       1.012  11.743  19.175  0.00  0.00    +0.000 OA
BRANCH  24  26
ATOM     25  C   UNL     1       2.236  13.433  18.062  0.00  0.00    +0.000 C 
ATOM     26  C   UNL     1       1.925  12.780  19.374  0.00  0.00    +0.000 C 
ATOM     27  O   UNL     1       2.418  13.121  20.441  0.00  0.00    +0.000 OA
ENDBRANCH  24  26
ENDBRANCH   1  24
TORSDOF 6
ENDMDL
MODEL 6
REMARK VINA RESULT:      -7.8      0.823      1.563
REMARK  Name = 
REMARK  7 active torsions:
REMARK  status: ('A' for Active; 'I' for Inactive)
REMARK    1  A    between atoms: C_1  and  C_2
REMARK    2  A    between atoms: C_2  and  O_4
REMARK    3  A    between atoms: O_4  and  C_5
REMARK    4  A    between atoms: C_7  and  O_8
REMARK    5  A    between atoms: C_12  and  C_13
REMARK    6  A    between atoms: C_16  and  O_17
REMARK    7  A    between atoms: C_18  and  O_19
REMARK                            x       y       z     vdW  Elec       q    Type
REMARK                         _______ _______ _______ _____ _____    ______ ____
ROOT
ATOM      1  C   UNL     1       0.524  10.697  19.891  0.00  0.00    +0.000 A 
ATOM      2  C   UNL     1      -0.034  11.044  21.126  0.00  0.00    +0.000 A 
ATOM      3  C   UNL     1      -0.037  10.112  22.159  0.00  0.00    +0.000 A 
ATOM      4  C   UNL     1       0.535   8.857  21.992  0.00  0.00    +0.000 A 
ATOM      5  C   UNL     1       1.133   8.529  20.774  0.00  0.00    +0.000 A 
ATOM      6  O   UNL     1       1.703   7.278  20.697  0.00  0.00    +0.000 OA
ATOM      7  C   UNL     1       2.348   6.932  19.528  0.00  0.00    +0.000 A 
ATOM      8  C   UNL     1       2.437   7.712  18.444  0.00  0.00    +0.000 A 
ATOM      9  C   UNL     1       1.812   9.047  18.463  0.00  0.00    +0.000 A 
ATOM     10  O   UNL     1       1.879   9.762  17.472  0.00  0.00    +0.000 OA
ATOM     11  C   UNL     1       1.138   9.446  19.717  0.00  0.00    +0.000 A 
ENDROOT
BRANCH   7  12
ATOM     12  C   UNL     1       2.983   5.609  19.538  0.00  0.00    +0.000 A 
ATOM     13  C   UNL     1       4.040   5.316  18.660  0.00  0.00    +0.000 A 
ATOM     14  C   UNL     1       4.697   4.079  18.718  0.00  0.00    +0.000 A 
ATOM     15  C   UNL     1       4.291   3.140  19.661  0.00  0.00    +0.000 A 
ATOM     16  C   UNL     1       3.234   3.423  20.519  0.00  0.00    +0.000 A 
ATOM     17  C   UNL     1       2.574   4.644  20.467  0.00  0.00    +0.000 A 
BRANCH  15  18
ATOM     18  O   UNL     1       4.905   1.925  19.784  0.00  0.00    +0.000 OA
ATOM     19  H   UNL     1       5.510   1.964  20.544  0.00  0.00    +0.000 HD
ENDBRANCH  15  18
BRANCH  16  20
ATOM     20  O   UNL     1       2.841   2.495  21.443  0.00  0.00    +0.000 OA
ATOM     21  H   UNL     1       2.855   2.975  22.295  0.00  0.00    +0.000 HD
ENDBRANCH  16  20
ENDBRANCH   7  12
BRANCH   3  22
ATOM     22  O   UNL     1      -0.600  10.403  23.366  0.00  0.00    +0.000 OA
ATOM     23  H   UNL     1      -1.404   9.865  23.476  0.00  0.00    +0.000 HD
ENDBRANCH   3  22
BRANCH   1  24
ATOM     24  O   UNL     1       0.537  11.631  18.831  0.00  0.00    +0.000 OA
BRANCH  24  26
ATOM     25  C   UNL     1      -0.375  13.802  18.609  0.00  0.00    +0.000 C 
ATOM     26  C   UNL     1      -0.624  12.329  18.492  0.00  0.00    +0.000 C 
ATOM     27  O   UNL     1      -1.694  11.841  18.154  0.00  0.00    +0.000 OA
ENDBRANCH  24  26
ENDBRANCH   1  24
TORSDOF 6
ENDMDL
MODEL 7
REMARK VINA RESULT:      -7.8      1.307      1.884
REMARK  Name = 
REMARK  7 active torsions:
REMARK  status: ('A' for Active; 'I' for Inactive)
REMARK    1  A    between atoms: C_1  and  C_2
REMARK    2  A    between atoms: C_2  and  O_4
REMARK    3  A    between atoms: O_4  and  C_5
REMARK    4  A    between atoms: C_7  and  O_8
REMARK    5  A    between atoms: C_12  and  C_13
REMARK    6  A    between atoms: C_16  and  O_17
REMARK    7  A    between atoms: C_18  and  O_19
REMARK                            x       y       z     vdW  Elec       q    Type
REMARK                         _______ _______ _______ _____ _____    ______ ____
ROOT
ATOM      1  C   UNL     1       0.829  10.511  19.905  0.00  0.00    +0.000 A 
ATOM      2  C   UNL     1       0.410  10.817  21.204  0.00  0.00    +0.000 A 
ATOM      3  C   UNL     1       0.447   9.830  22.182  0.00  0.00    +0.000 A 
ATOM      4  C   UNL     1       0.925   8.556  21.897  0.00  0.00    +0.000 A 
ATOM      5  C   UNL     1       1.387   8.266  20.612  0.00  0.00    +0.000 A 
ATOM      6  O   UNL     1       1.871   6.992  20.417  0.00  0.00    +0.000 OA
ATOM      7  C   UNL     1       2.384   6.679  19.174  0.00  0.00    +0.000 A 
ATOM      8  C   UNL     1       2.418   7.514  18.129  0.00  0.00    +0.000 A 
ATOM      9  C   UNL     1       1.879   8.877  18.277  0.00  0.00    +0.000 A 
ATOM     10  O   UNL     1       1.897   9.643  17.322  0.00  0.00    +0.000 OA
ATOM     11  C   UNL     1       1.349   9.241  19.608  0.00  0.00    +0.000 A 
ENDROOT
BRANCH   7  12
ATOM     12  C   UNL     1       2.936   5.325  19.055  0.00  0.00    +0.000 A 
ATOM     13  C   UNL     1       4.299   5.084  19.299  0.00  0.00    +0.000 A 
ATOM     14  C   UNL     1       4.814   3.781  19.258  0.00  0.00    +0.000 A 
ATOM     15  C   UNL     1       3.958   2.722  18.977  0.00  0.00    +0.000 A 
ATOM     16  C   UNL     1       2.612   2.961  18.720  0.00  0.00    +0.000 A 
ATOM     17  C   UNL     1       2.092   4.249  18.753  0.00  0.00    +0.000 A 
BRANCH  15  18
ATOM     18  O   UNL     1       4.393   1.427  18.946  0.00  0.00    +0.000 OA
ATOM     19  H   UNL     1       4.462   1.105  19.861  0.00  0.00    +0.000 HD
ENDBRANCH  15  18
BRANCH  16  20
ATOM     20  O   UNL     1       1.776   1.914  18.444  0.00  0.00    +0.000 OA
ATOM     21  H   UNL     1       1.892   1.752  17.487  0.00  0.00    +0.000 HD
ENDBRANCH  16  20
ENDBRANCH   7  12
BRANCH   3  22
ATOM     22  O   UNL     1       0.017  10.081  23.452  0.00  0.00    +0.000 OA
ATOM     23  H   UNL     1      -0.482   9.308  23.773  0.00  0.00    +0.000 HD
ENDBRANCH   3  22
BRANCH   1  24
ATOM     24  O   UNL     1       0.800  11.503  18.898  0.00  0.00    +0.000 OA
BRANCH  24  26
ATOM     25  C   UNL     1       0.358  13.815  19.121  0.00  0.00    +0.000 C 
ATOM     26  C   UNL     1       1.405  12.742  19.111  0.00  0.00    +0.000 C 
ATOM     27  O   UNL     1       2.601  12.953  19.264  0.00  0.00    +0.000 OA
ENDBRANCH  24  26
ENDBRANCH   1  24
TORSDOF 6
ENDMDL
MODEL 8
REMARK VINA RESULT:      -7.6      3.784      6.750
REMARK  Name = 
REMARK  7 active torsions:
REMARK  status: ('A' for Active; 'I' for Inactive)
REMARK    1  A    between atoms: C_1  and  C_2
REMARK    2  A    between atoms: C_2  and  O_4
REMARK    3  A    between atoms: O_4  and  C_5
REMARK    4  A    between atoms: C_7  and  O_8
REMARK    5  A    between atoms: C_12  and  C_13
REMARK    6  A    between atoms: C_16  and  O_17
REMARK    7  A    between atoms: C_18  and  O_19
REMARK                            x       y       z     vdW  Elec       q    Type
REMARK                         _______ _______ _______ _____ _____    ______ ____
ROOT
ATOM      1  C   UNL     1       2.874   4.696  20.111  0.00  0.00    +0.000 A 
ATOM      2  C   UNL     1       2.216   5.903  20.370  0.00  0.00    +0.000 A 
ATOM      3  C   UNL     1       2.353   6.959  19.477  0.00  0.00    +0.000 A 
ATOM      4  C   UNL     1       3.106   6.822  18.316  0.00  0.00    +0.000 A 
ATOM      5  C   UNL     1       3.723   5.602  18.036  0.00  0.00    +0.000 A 
ATOM      6  O   UNL     1       4.426   5.537  16.854  0.00  0.00    +0.000 OA
ATOM      7  C   UNL     1       5.011   4.334  16.514  0.00  0.00    +0.000 A 
ATOM      8  C   UNL     1       4.973   3.227  17.265  0.00  0.00    +0.000 A 
ATOM      9  C   UNL     1       4.263   3.256  18.557  0.00  0.00    +0.000 A 
ATOM     10  O   UNL     1       4.234   2.250  19.255  0.00  0.00    +0.000 OA
ATOM     11  C   UNL     1       3.608   4.528  18.926  0.00  0.00    +0.000 A 
ENDROOT
BRANCH   7  12
ATOM     12  C   UNL     1       5.692   4.321  15.215  0.00  0.00    +0.000 A 
ATOM     13  C   UNL     1       5.144   3.620  14.127  0.00  0.00    +0.000 A 
ATOM     14  C   UNL     1       5.753   3.667  12.865  0.00  0.00    +0.000 A 
ATOM     15  C   UNL     1       6.910   4.420  12.699  0.00  0.00    +0.000 A 
ATOM     16  C   UNL     1       7.462   5.101  13.779  0.00  0.00    +0.000 A 
ATOM     17  C   UNL     1       6.869   5.058  15.034  0.00  0.00    +0.000 A 
BRANCH  15  18
ATOM     18  O   UNL     1       7.539   4.526  11.490  0.00  0.00    +0.000 OA
ATOM     19  H   UNL     1       8.354   3.997  11.523  0.00  0.00    +0.000 HD
ENDBRANCH  15  18
BRANCH  16  20
ATOM     20  O   UNL     1       8.599   5.841  13.607  0.00  0.00    +0.000 OA
ATOM     21  H   UNL     1       8.282   6.711  13.296  0.00  0.00    +0.000 HD
ENDBRANCH  16  20
ENDBRANCH   7  12
BRANCH   3  22
ATOM     22  O   UNL     1       1.753   8.161  19.711  0.00  0.00    +0.000 OA
ATOM     23  H   UNL     1       1.259   8.426  18.915  0.00  0.00    +0.000 HD
ENDBRANCH   3  22
BRANCH   1  24
ATOM     24  O   UNL     1       2.745   3.611  21.008  0.00  0.00    +0.000 OA
BRANCH  24  26
ATOM     25  C   UNL     1       0.768   2.929  19.904  0.00  0.00    +0.000 C 
ATOM     26  C   UNL     1       1.503   3.005  21.207  0.00  0.00    +0.000 C 
ATOM     27  O   UNL     1       1.055   2.596  22.271  0.00  0.00    +0.000 OA
ENDBRANCH  24  26
ENDBRANCH   1  24
TORSDOF 6
ENDMDL
MODEL 9
REMARK VINA RESULT:      -7.5      2.123      3.803
REMARK  Name = 
REMARK  7 active torsions:
REMARK  status: ('A' for Active; 'I' for Inactive)
REMARK    1  A    between atoms: C_1  and  C_2
REMARK    2  A    between atoms: C_2  and  O_4
REMARK    3  A    between atoms: O_4  and  C_5
REMARK    4  A    between atoms: C_7  and  O_8
REMARK    5  A    between atoms: C_12  and  C_13
REMARK    6  A    between atoms: C_16  and  O_17
REMARK    7  A    between atoms: C_18  and  O_19
REMARK                            x       y       z     vdW  Elec       q    Type
REMARK                         _______ _______ _______ _____ _____    ______ ____
ROOT
ATOM      1  C   UNL     1       0.704   9.343  20.299  0.00  0.00    +0.000 A 
ATOM      2  C   UNL     1       0.484  10.596  19.717  0.00  0.00    +0.000 A 
ATOM      3  C   UNL     1       1.172  10.940  18.559  0.00  0.00    +0.000 A 
ATOM      4  C   UNL     1       2.047  10.046  17.954  0.00  0.00    +0.000 A 
ATOM      5  C   UNL     1       2.231   8.779  18.510  0.00  0.00    +0.000 A 
ATOM      6  O   UNL     1       3.092   7.942  17.837  0.00  0.00    +0.000 OA
ATOM      7  C   UNL     1       3.264   6.663  18.325  0.00  0.00    +0.000 A 
ATOM      8  C   UNL     1       2.678   6.180  19.427  0.00  0.00    +0.000 A 
ATOM      9  C   UNL     1       1.775   7.048  20.203  0.00  0.00    +0.000 A 
ATOM     10  O   UNL     1       1.244   6.618  21.218  0.00  0.00    +0.000 OA
ATOM     11  C   UNL     1       1.558   8.415  19.682  0.00  0.00    +0.000 A 
ENDROOT
BRANCH   7  12
ATOM     12  C   UNL     1       4.148   5.808  17.524  0.00  0.00    +0.000 A 
ATOM     13  C   UNL     1       3.787   4.482  17.231  0.00  0.00    +0.000 A 
ATOM     14  C   UNL     1       4.594   3.686  16.406  0.00  0.00    +0.000 A 
ATOM     15  C   UNL     1       5.760   4.227  15.874  0.00  0.00    +0.000 A 
ATOM     16  C   UNL     1       6.127   5.534  16.177  0.00  0.00    +0.000 A 
ATOM     17  C   UNL     1       5.336   6.329  16.997  0.00  0.00    +0.000 A 
BRANCH  15  18
ATOM     18  O   UNL     1       6.578   3.511  15.044  0.00  0.00    +0.000 OA
ATOM     19  H   UNL     1       7.063   2.861  15.580  0.00  0.00    +0.000 HD
ENDBRANCH  15  18
BRANCH  16  20
ATOM     20  O   UNL     1       7.274   6.058  15.650  0.00  0.00    +0.000 OA
ATOM     21  H   UNL     1       7.658   5.329  15.124  0.00  0.00    +0.000 HD
ENDBRANCH  16  20
ENDBRANCH   7  12
BRANCH   3  22
ATOM     22  O   UNL     1       1.007  12.164  17.980  0.00  0.00    +0.000 OA
ATOM     23  H   UNL     1       1.522  12.193  17.154  0.00  0.00    +0.000 HD
ENDBRANCH   3  22
BRANCH   1  24
ATOM     24  O   UNL     1       0.013   8.976  21.476  0.00  0.00    +0.000 OA
BRANCH  24  26
ATOM     25  C   UNL     1      -0.942  10.420  23.087  0.00  0.00    +0.000 C 
ATOM     26  C   UNL     1       0.268   9.636  22.679  0.00  0.00    +0.000 C 
ATOM     27  O   UNL     1       1.310   9.604  23.320  0.00  0.00    +0.000 OA
ENDBRANCH  24  26
ENDBRANCH   1  24
TORSDOF 6
ENDMDL
