MODEL 1
REMARK VINA RESULT:      -8.0      0.000      0.000
REMARK  Name = 
REMARK  4 active torsions:
REMARK  status: ('A' for Active; 'I' for Inactive)
REMARK    1  A    between atoms: C_1  and  C_2
REMARK    2  A    between atoms: C_8  and  C_9
REMARK    3  A    between atoms: C_12  and  C_13
REMARK    4  A    between atoms: C_13  and  N_15
REMARK                            x       y       z     vdW  Elec       q    Type
REMARK                         _______ _______ _______ _____ _____    ______ ____
ROOT
ATOM      1  C   UNL     1       3.706   5.267  17.812  0.00  0.00    +0.000 A 
ATOM      2  C   UNL     1       3.988   6.537  17.349  0.00  0.00    +0.000 A 
ATOM      3  C   UNL     1       5.183   6.448  16.597  0.00  0.00    +0.000 A 
ATOM      4  C   UNL     1       5.585   5.126  16.637  0.00  0.00    +0.000 A 
ATOM      5  O   UNL     1       4.686   4.407  17.386  0.00  0.00    +0.000 OA
ENDROOT
BRANCH   1  13
ATOM      6  C   UNL     1       2.524   6.629  20.260  0.00  0.00    +0.000 C 
ATOM      7  C   UNL     1       2.074   5.285  19.756  0.00  0.00    +0.000 A 
ATOM      8  C   UNL     1       1.053   4.629  20.475  0.00  0.00    +0.000 A 
ATOM      9  C   UNL     1       0.582   3.381  20.075  0.00  0.00    +0.000 A 
ATOM     10  C   UNL     1       1.127   2.784  18.951  0.00  0.00    +0.000 A 
ATOM     11  F   UNL     1       0.671   1.587  18.557  0.00  0.00    +0.000 F 
ATOM     12  C   UNL     1       2.137   3.405  18.226  0.00  0.00    +0.000 A 
ATOM     13  C   UNL     1       2.636   4.663  18.613  0.00  0.00    +0.000 A 
ENDBRANCH   1  13
BRANCH   4  14
ATOM     14  C   UNL     1       6.715   4.480  15.994  0.00  0.00    +0.000 C 
ATOM     15  O   UNL     1       7.863   4.554  16.432  0.00  0.00    +0.000 OA
BRANCH  14  16
ATOM     16  N   UNL     1       6.328   3.770  14.882  0.00  0.00    +0.000 NA
ATOM     17  C   UNL     1       6.697   4.169  13.715  0.00  0.00    +0.000 C 
ATOM     18  N   UNL     1       7.441   5.245  13.369  0.00  0.00    +0.000 N 
ATOM     19  N   UNL     1       6.389   3.421  12.631  0.00  0.00    +0.000 N 
ATOM     20  H   UNL     1       7.580   5.912  14.131  0.00  0.00    +0.000 HD
ATOM     21  H   UNL     1       7.246   5.691  12.486  0.00  0.00    +0.000 HD
ATOM     22  H   UNL     1       5.725   2.683  12.836  0.00  0.00    +0.000 HD
ATOM     23  H   UNL     1       6.204   3.903  11.764  0.00  0.00    +0.000 HD
ENDBRANCH  14  16
ENDBRANCH   4  14
TORSDOF 3
ENDMDL
MODEL 2
REMARK VINA RESULT:      -8.0      2.561      3.419
REMARK  Name = 
REMARK  4 active torsions:
REMARK  status: ('A' for Active; 'I' for Inactive)
REMARK    1  A    between atoms: C_1  and  C_2
REMARK    2  A    between atoms: C_8  and  C_9
REMARK    3  A    between atoms: C_12  and  C_13
REMARK    4  A    between atoms: C_13  and  N_15
REMARK                            x       y       z     vdW  Elec       q    Type
REMARK                         _______ _______ _______ _____ _____    ______ ____
ROOT
ATOM      1  C   UNL     1       3.911   4.045  17.656  0.00  0.00    +0.000 A 
ATOM      2  C   UNL     1       3.839   3.910  16.285  0.00  0.00    +0.000 A 
ATOM      3  C   UNL     1       5.098   4.291  15.764  0.00  0.00    +0.000 A 
ATOM      4  C   UNL     1       5.886   4.650  16.841  0.00  0.00    +0.000 A 
ATOM      5  O   UNL     1       5.157   4.506  17.996  0.00  0.00    +0.000 OA
ENDROOT
BRANCH   1  13
ATOM      6  C   UNL     1       3.367   1.267  18.765  0.00  0.00    +0.000 C 
ATOM      7  C   UNL     1       2.730   2.519  19.306  0.00  0.00    +0.000 A 
ATOM      8  C   UNL     1       1.828   2.378  20.380  0.00  0.00    +0.000 A 
ATOM      9  C   UNL     1       1.195   3.488  20.935  0.00  0.00    +0.000 A 
ATOM     10  C   UNL     1       1.465   4.745  20.422  0.00  0.00    +0.000 A 
ATOM     11  F   UNL     1       0.866   5.817  20.959  0.00  0.00    +0.000 F 
ATOM     12  C   UNL     1       2.348   4.912  19.361  0.00  0.00    +0.000 A 
ATOM     13  C   UNL     1       2.995   3.807  18.776  0.00  0.00    +0.000 A 
ENDBRANCH   1  13
BRANCH   4  14
ATOM     14  C   UNL     1       7.275   5.070  16.877  0.00  0.00    +0.000 C 
ATOM     15  O   UNL     1       8.207   4.278  17.021  0.00  0.00    +0.000 OA
BRANCH  14  16
ATOM     16  N   UNL     1       7.400   6.428  16.700  0.00  0.00    +0.000 NA
ATOM     17  C   UNL     1       7.796   7.162  17.681  0.00  0.00    +0.000 C 
ATOM     18  N   UNL     1       8.121   6.805  18.945  0.00  0.00    +0.000 N 
ATOM     19  N   UNL     1       8.001   8.483  17.479  0.00  0.00    +0.000 N 
ATOM     20  H   UNL     1       7.853   5.849  19.186  0.00  0.00    +0.000 HD
ATOM     21  H   UNL     1       7.936   7.464  19.684  0.00  0.00    +0.000 HD
ATOM     22  H   UNL     1       7.644   8.807  16.587  0.00  0.00    +0.000 HD
ATOM     23  H   UNL     1       7.808   9.112  18.244  0.00  0.00    +0.000 HD
ENDBRANCH  14  16
ENDBRANCH   4  14
TORSDOF 3
ENDMDL
MODEL 3
REMARK VINA RESULT:      -8.0      1.436      1.857
REMARK  Name = 
REMARK  4 active torsions:
REMARK  status: ('A' for Active; 'I' for Inactive)
REMARK    1  A    between atoms: C_1  and  C_2
REMARK    2  A    between atoms: C_8  and  C_9
REMARK    3  A    between atoms: C_12  and  C_13
REMARK    4  A    between atoms: C_13  and  N_15
REMARK                            x       y       z     vdW  Elec       q    Type
REMARK                         _______ _______ _______ _____ _____    ______ ____
ROOT
ATOM      1  C   UNL     1       3.886   5.067  18.452  0.00  0.00    +0.000 A 
ATOM      2  C   UNL     1       4.160   6.376  18.108  0.00  0.00    +0.000 A 
ATOM      3  C   UNL     1       5.326   6.359  17.307  0.00  0.00    +0.000 A 
ATOM      4  C   UNL     1       5.721   5.038  17.201  0.00  0.00    +0.000 A 
ATOM      5  O   UNL     1       4.844   4.251  17.906  0.00  0.00    +0.000 OA
ENDROOT
BRANCH   1  13
ATOM      6  C   UNL     1       1.279   4.119  17.208  0.00  0.00    +0.000 C 
ATOM      7  C   UNL     1       1.621   3.942  18.663  0.00  0.00    +0.000 A 
ATOM      8  C   UNL     1       0.666   3.306  19.483  0.00  0.00    +0.000 A 
ATOM      9  C   UNL     1       0.905   3.107  20.840  0.00  0.00    +0.000 A 
ATOM     10  C   UNL     1       2.104   3.536  21.384  0.00  0.00    +0.000 A 
ATOM     11  F   UNL     1       2.343   3.337  22.687  0.00  0.00    +0.000 F 
ATOM     12  C   UNL     1       3.062   4.169  20.599  0.00  0.00    +0.000 A 
ATOM     13  C   UNL     1       2.842   4.390  19.227  0.00  0.00    +0.000 A 
ENDBRANCH   1  13
BRANCH   4  14
ATOM     14  C   UNL     1       6.822   4.455  16.455  0.00  0.00    +0.000 C 
ATOM     15  O   UNL     1       7.991   4.514  16.838  0.00  0.00    +0.000 OA
BRANCH  14  16
ATOM     16  N   UNL     1       6.384   3.822  15.315  0.00  0.00    +0.000 NA
ATOM     17  C   UNL     1       6.760   4.259  14.164  0.00  0.00    +0.000 C 
ATOM     18  N   UNL     1       7.554   5.311  13.860  0.00  0.00    +0.000 N 
ATOM     19  N   UNL     1       6.399   3.582  13.049  0.00  0.00    +0.000 N 
ATOM     20  H   UNL     1       7.737   5.931  14.651  0.00  0.00    +0.000 HD
ATOM     21  H   UNL     1       7.372   5.809  13.003  0.00  0.00    +0.000 HD
ATOM     22  H   UNL     1       5.700   2.870  13.229  0.00  0.00    +0.000 HD
ATOM     23  H   UNL     1       6.229   4.115  12.210  0.00  0.00    +0.000 HD
ENDBRANCH  14  16
ENDBRANCH   4  14
TORSDOF 3
ENDMDL
MODEL 4
REMARK VINA RESULT:      -8.0      2.284      2.853
REMARK  Name = 
REMARK  4 active torsions:
REMARK  status: ('A' for Active; 'I' for Inactive)
REMARK    1  A    between atoms: C_1  and  C_2
REMARK    2  A    between atoms: C_8  and  C_9
REMARK    3  A    between atoms: C_12  and  C_13
REMARK    4  A    between atoms: C_13  and  N_15
REMARK                            x       y       z     vdW  Elec       q    Type
REMARK                         _______ _______ _______ _____ _____    ______ ____
ROOT
ATOM      1  C   UNL     1       3.621   5.266  17.952  0.00  0.00    +0.000 A 
ATOM      2  C   UNL     1       3.710   6.366  17.123  0.00  0.00    +0.000 A 
ATOM      3  C   UNL     1       5.057   6.459  16.701  0.00  0.00    +0.000 A 
ATOM      4  C   UNL     1       5.737   5.413  17.296  0.00  0.00    +0.000 A 
ATOM      5  O   UNL     1       4.861   4.689  18.065  0.00  0.00    +0.000 OA
ENDROOT
BRANCH   1  13
ATOM      6  C   UNL     1       2.368   6.474  20.444  0.00  0.00    +0.000 C 
ATOM      7  C   UNL     1       1.948   5.154  19.857  0.00  0.00    +0.000 A 
ATOM      8  C   UNL     1       0.920   4.447  20.515  0.00  0.00    +0.000 A 
ATOM      9  C   UNL     1       0.476   3.217  20.037  0.00  0.00    +0.000 A 
ATOM     10  C   UNL     1       1.052   2.690  18.893  0.00  0.00    +0.000 A 
ATOM     11  F   UNL     1       0.622   1.511  18.423  0.00  0.00    +0.000 F 
ATOM     12  C   UNL     1       2.069   3.364  18.227  0.00  0.00    +0.000 A 
ATOM     13  C   UNL     1       2.543   4.605  18.694  0.00  0.00    +0.000 A 
ENDBRANCH   1  13
BRANCH   4  14
ATOM     14  C   UNL     1       7.127   5.014  17.163  0.00  0.00    +0.000 C 
ATOM     15  O   UNL     1       7.728   5.042  16.088  0.00  0.00    +0.000 OA
BRANCH  14  16
ATOM     16  N   UNL     1       7.667   4.645  18.372  0.00  0.00    +0.000 NA
ATOM     17  C   UNL     1       8.166   5.545  19.146  0.00  0.00    +0.000 C 
ATOM     18  N   UNL     1       8.267   6.880  18.957  0.00  0.00    +0.000 N 
ATOM     19  N   UNL     1       8.617   5.190  20.370  0.00  0.00    +0.000 N 
ATOM     20  H   UNL     1       8.070   7.178  18.000  0.00  0.00    +0.000 HD
ATOM     21  H   UNL     1       9.057   7.357  19.362  0.00  0.00    +0.000 HD
ATOM     22  H   UNL     1       8.677   4.185  20.493  0.00  0.00    +0.000 HD
ATOM     23  H   UNL     1       9.408   5.692  20.744  0.00  0.00    +0.000 HD
ENDBRANCH  14  16
ENDBRANCH   4  14
TORSDOF 3
ENDMDL
MODEL 5
REMARK VINA RESULT:      -7.9      1.807      2.094
REMARK  Name = 
REMARK  4 active torsions:
REMARK  status: ('A' for Active; 'I' for Inactive)
REMARK    1  A    between atoms: C_1  and  C_2
REMARK    2  A    between atoms: C_8  and  C_9
REMARK    3  A    between atoms: C_12  and  C_13
REMARK    4  A    between atoms: C_13  and  N_15
REMARK                            x       y       z     vdW  Elec       q    Type
REMARK                         _______ _______ _______ _____ _____    ______ ____
ROOT
ATOM      1  C   UNL     1       4.413   4.920  17.493  0.00  0.00    +0.000 A 
ATOM      2  C   UNL     1       4.434   6.276  17.240  0.00  0.00    +0.000 A 
ATOM      3  C   UNL     1       5.287   6.478  16.129  0.00  0.00    +0.000 A 
ATOM      4  C   UNL     1       5.757   5.233  15.754  0.00  0.00    +0.000 A 
ATOM      5  O   UNL     1       5.228   4.283  16.591  0.00  0.00    +0.000 OA
ENDROOT
BRANCH   1  13
ATOM      6  C   UNL     1       1.390   4.603  17.574  0.00  0.00    +0.000 C 
ATOM      7  C   UNL     1       2.328   3.891  18.511  0.00  0.00    +0.000 A 
ATOM      8  C   UNL     1       1.757   3.040  19.481  0.00  0.00    +0.000 A 
ATOM      9  C   UNL     1       2.556   2.348  20.387  0.00  0.00    +0.000 A 
ATOM     10  C   UNL     1       3.931   2.497  20.325  0.00  0.00    +0.000 A 
ATOM     11  F   UNL     1       4.705   1.826  21.189  0.00  0.00    +0.000 F 
ATOM     12  C   UNL     1       4.520   3.333  19.382  0.00  0.00    +0.000 A 
ATOM     13  C   UNL     1       3.735   4.050  18.460  0.00  0.00    +0.000 A 
ENDBRANCH   1  13
BRANCH   4  14
ATOM     14  C   UNL     1       6.622   4.862  14.648  0.00  0.00    +0.000 C 
ATOM     15  O   UNL     1       7.676   5.450  14.400  0.00  0.00    +0.000 OA
BRANCH  14  16
ATOM     16  N   UNL     1       6.130   3.778  13.960  0.00  0.00    +0.000 NA
ATOM     17  C   UNL     1       6.430   3.627  12.717  0.00  0.00    +0.000 C 
ATOM     18  N   UNL     1       7.186   4.410  11.913  0.00  0.00    +0.000 N 
ATOM     19  N   UNL     1       6.017   2.516  12.066  0.00  0.00    +0.000 N 
ATOM     20  H   UNL     1       7.404   5.324  12.314  0.00  0.00    +0.000 HD
ATOM     21  H   UNL     1       6.946   4.456  10.936  0.00  0.00    +0.000 HD
ATOM     22  H   UNL     1       5.342   1.976  12.597  0.00  0.00    +0.000 HD
ATOM     23  H   UNL     1       5.788   2.600  11.088  0.00  0.00    +0.000 HD
ENDBRANCH  14  16
ENDBRANCH   4  14
TORSDOF 3
ENDMDL
MODEL 6
REMARK VINA RESULT:      -7.8      1.794      2.491
REMARK  Name = 
REMARK  4 active torsions:
REMARK  status: ('A' for Active; 'I' for Inactive)
REMARK    1  A    between atoms: C_1  and  C_2
REMARK    2  A    between atoms: C_8  and  C_9
REMARK    3  A    between atoms: C_12  and  C_13
REMARK    4  A    between atoms: C_13  and  N_15
REMARK                            x       y       z     vdW  Elec       q    Type
REMARK                         _______ _______ _______ _____ _____    ______ ____
ROOT
ATOM      1  C   UNL     1       3.020   5.914  18.541  0.00  0.00    +0.000 A 
ATOM      2  C   UNL     1       2.713   7.230  18.263  0.00  0.00    +0.000 A 
ATOM      3  C   UNL     1       3.776   7.749  17.486  0.00  0.00    +0.000 A 
ATOM      4  C   UNL     1       4.692   6.726  17.326  0.00  0.00    +0.000 A 
ATOM      5  O   UNL     1       4.233   5.608  17.977  0.00  0.00    +0.000 OA
ENDROOT
BRANCH   1  13
ATOM      6  C   UNL     1       1.101   3.981  17.191  0.00  0.00    +0.000 C 
ATOM      7  C   UNL     1       1.466   3.910  18.649  0.00  0.00    +0.000 A 
ATOM      8  C   UNL     1       0.870   2.891  19.421  0.00  0.00    +0.000 A 
ATOM      9  C   UNL     1       1.153   2.760  20.778  0.00  0.00    +0.000 A 
ATOM     10  C   UNL     1       2.039   3.644  21.370  0.00  0.00    +0.000 A 
ATOM     11  F   UNL     1       2.322   3.516  22.674  0.00  0.00    +0.000 F 
ATOM     12  C   UNL     1       2.638   4.660  20.634  0.00  0.00    +0.000 A 
ATOM     13  C   UNL     1       2.363   4.820  19.263  0.00  0.00    +0.000 A 
ENDBRANCH   1  13
BRANCH   4  14
ATOM     14  C   UNL     1       5.935   6.703  16.576  0.00  0.00    +0.000 C 
ATOM     15  O   UNL     1       6.910   7.392  16.880  0.00  0.00    +0.000 OA
BRANCH  14  16
ATOM     16  N   UNL     1       5.882   5.808  15.533  0.00  0.00    +0.000 NA
ATOM     17  C   UNL     1       6.704   4.818  15.504  0.00  0.00    +0.000 C 
ATOM     18  N   UNL     1       7.686   4.490  16.376  0.00  0.00    +0.000 N 
ATOM     19  N   UNL     1       6.593   3.893  14.525  0.00  0.00    +0.000 N 
ATOM     20  H   UNL     1       7.900   5.225  17.052  0.00  0.00    +0.000 HD
ATOM     21  H   UNL     1       8.509   4.036  16.012  0.00  0.00    +0.000 HD
ATOM     22  H   UNL     1       5.958   4.175  13.786  0.00  0.00    +0.000 HD
ATOM     23  H   UNL     1       7.438   3.458  14.189  0.00  0.00    +0.000 HD
ENDBRANCH  14  16
ENDBRANCH   4  14
TORSDOF 3
ENDMDL
MODEL 7
REMARK VINA RESULT:      -7.8      2.358      2.930
REMARK  Name = 
REMARK  4 active torsions:
REMARK  status: ('A' for Active; 'I' for Inactive)
REMARK    1  A    between atoms: C_1  and  C_2
REMARK    2  A    between atoms: C_8  and  C_9
REMARK    3  A    between atoms: C_12  and  C_13
REMARK    4  A    between atoms: C_13  and  N_15
REMARK                            x       y       z     vdW  Elec       q    Type
REMARK                         _______ _______ _______ _____ _____    ______ ____
ROOT
ATOM      1  C   UNL     1       3.942   4.146  17.838  0.00  0.00    +0.000 A 
ATOM      2  C   UNL     1       3.883   3.721  16.526  0.00  0.00    +0.000 A 
ATOM      3  C   UNL     1       5.141   4.002  15.943  0.00  0.00    +0.000 A 
ATOM      4  C   UNL     1       5.915   4.593  16.923  0.00  0.00    +0.000 A 
ATOM      5  O   UNL     1       5.180   4.687  18.079  0.00  0.00    +0.000 OA
ENDROOT
BRANCH   1  13
ATOM      6  C   UNL     1       2.440   6.627  18.749  0.00  0.00    +0.000 C 
ATOM      7  C   UNL     1       2.312   5.285  19.416  0.00  0.00    +0.000 A 
ATOM      8  C   UNL     1       1.451   5.190  20.529  0.00  0.00    +0.000 A 
ATOM      9  C   UNL     1       1.281   3.984  21.204  0.00  0.00    +0.000 A 
ATOM     10  C   UNL     1       1.966   2.863  20.765  0.00  0.00    +0.000 A 
ATOM     11  F   UNL     1       1.797   1.698  21.406  0.00  0.00    +0.000 F 
ATOM     12  C   UNL     1       2.824   2.929  19.674  0.00  0.00    +0.000 A 
ATOM     13  C   UNL     1       3.021   4.137  18.979  0.00  0.00    +0.000 A 
ENDBRANCH   1  13
BRANCH   4  14
ATOM     14  C   UNL     1       7.299   5.032  16.875  0.00  0.00    +0.000 C 
ATOM     15  O   UNL     1       8.248   4.252  16.964  0.00  0.00    +0.000 OA
BRANCH  14  16
ATOM     16  N   UNL     1       7.394   6.391  16.691  0.00  0.00    +0.000 NA
ATOM     17  C   UNL     1       7.783   7.137  17.665  0.00  0.00    +0.000 C 
ATOM     18  N   UNL     1       8.125   6.794  18.928  0.00  0.00    +0.000 N 
ATOM     19  N   UNL     1       7.960   8.462  17.455  0.00  0.00    +0.000 N 
ATOM     20  H   UNL     1       7.879   5.834  19.176  0.00  0.00    +0.000 HD
ATOM     21  H   UNL     1       7.933   7.452  19.666  0.00  0.00    +0.000 HD
ATOM     22  H   UNL     1       7.589   8.773  16.564  0.00  0.00    +0.000 HD
ATOM     23  H   UNL     1       7.761   9.090  18.219  0.00  0.00    +0.000 HD
ENDBRANCH  14  16
ENDBRANCH   4  14
TORSDOF 3
ENDMDL
MODEL 8
REMARK VINA RESULT:      -7.8      1.803      2.556
REMARK  Name = 
REMARK  4 active torsions:
REMARK  status: ('A' for Active; 'I' for Inactive)
REMARK    1  A    between atoms: C_1  and  C_2
REMARK    2  A    between atoms: C_8  and  C_9
REMARK    3  A    between atoms: C_12  and  C_13
REMARK    4  A    between atoms: C_13  and  N_15
REMARK                            x       y       z     vdW  Elec       q    Type
REMARK                         _______ _______ _______ _____ _____    ______ ____
ROOT
ATOM      1  C   UNL     1       5.197   4.486  18.118  0.00  0.00    +0.000 A 
ATOM      2  C   UNL     1       6.495   4.594  18.576  0.00  0.00    +0.000 A 
ATOM      3  C   UNL     1       7.330   4.678  17.438  0.00  0.00    +0.000 A 
ATOM      4  C   UNL     1       6.507   4.610  16.330  0.00  0.00    +0.000 A 
ATOM      5  O   UNL     1       5.205   4.486  16.746  0.00  0.00    +0.000 OA
ENDROOT
BRANCH   1  13
ATOM      6  C   UNL     1       3.508   1.962  17.982  0.00  0.00    +0.000 C 
ATOM      7  C   UNL     1       3.075   3.216  18.692  0.00  0.00    +0.000 A 
ATOM      8  C   UNL     1       1.811   3.207  19.316  0.00  0.00    +0.000 A 
ATOM      9  C   UNL     1       1.336   4.329  19.991  0.00  0.00    +0.000 A 
ATOM     10  C   UNL     1       2.127   5.465  20.051  0.00  0.00    +0.000 A 
ATOM     11  F   UNL     1       1.679   6.543  20.707  0.00  0.00    +0.000 F 
ATOM     12  C   UNL     1       3.376   5.502  19.441  0.00  0.00    +0.000 A 
ATOM     13  C   UNL     1       3.875   4.385  18.746  0.00  0.00    +0.000 A 
ENDBRANCH   1  13
BRANCH   4  14
ATOM     14  C   UNL     1       6.840   4.700  14.919  0.00  0.00    +0.000 C 
ATOM     15  O   UNL     1       7.651   5.514  14.477  0.00  0.00    +0.000 OA
BRANCH  14  16
ATOM     16  N   UNL     1       6.167   3.757  14.178  0.00  0.00    +0.000 NA
ATOM     17  C   UNL     1       6.402   3.657  12.916  0.00  0.00    +0.000 C 
ATOM     18  N   UNL     1       7.244   4.375  12.138  0.00  0.00    +0.000 N 
ATOM     19  N   UNL     1       5.805   2.672  12.207  0.00  0.00    +0.000 N 
ATOM     20  H   UNL     1       7.611   5.213  12.593  0.00  0.00    +0.000 HD
ATOM     21  H   UNL     1       6.984   4.531  11.177  0.00  0.00    +0.000 HD
ATOM     22  H   UNL     1       5.072   2.201  12.726  0.00  0.00    +0.000 HD
ATOM     23  H   UNL     1       5.562   2.864  11.247  0.00  0.00    +0.000 HD
ENDBRANCH  14  16
ENDBRANCH   4  14
TORSDOF 3
ENDMDL
MODEL 9
REMARK VINA RESULT:      -7.6      1.386      1.607
REMARK  Name = 
REMARK  4 active torsions:
REMARK  status: ('A' for Active; 'I' for Inactive)
REMARK    1  A    between atoms: C_1  and  C_2
REMARK    2  A    between atoms: C_8  and  C_9
REMARK    3  A    between atoms: C_12  and  C_13
REMARK    4  A    between atoms: C_13  and  N_15
REMARK                            x       y       z     vdW  Elec       q    Type
REMARK                         _______ _______ _______ _____ _____    ______ ____
ROOT
ATOM      1  C   UNL     1       5.043   4.689  17.670  0.00  0.00    +0.000 A 
ATOM      2  C   UNL     1       6.196   5.265  18.165  0.00  0.00    +0.000 A 
ATOM      3  C   UNL     1       7.107   5.359  17.087  0.00  0.00    +0.000 A 
ATOM      4  C   UNL     1       6.474   4.830  15.978  0.00  0.00    +0.000 A 
ATOM      5  O   UNL     1       5.216   4.414  16.337  0.00  0.00    +0.000 OA
ENDROOT
BRANCH   1  13
ATOM      6  C   UNL     1       2.885   6.754  18.235  0.00  0.00    +0.000 C 
ATOM      7  C   UNL     1       2.717   5.282  18.496  0.00  0.00    +0.000 A 
ATOM      8  C   UNL     1       1.489   4.853  19.041  0.00  0.00    +0.000 A 
ATOM      9  C   UNL     1       1.257   3.507  19.314  0.00  0.00    +0.000 A 
ATOM     10  C   UNL     1       2.249   2.582  19.039  0.00  0.00    +0.000 A 
ATOM     11  F   UNL     1       2.026   1.285  19.292  0.00  0.00    +0.000 F 
ATOM     12  C   UNL     1       3.470   2.977  18.506  0.00  0.00    +0.000 A 
ATOM     13  C   UNL     1       3.734   4.332  18.227  0.00  0.00    +0.000 A 
ENDBRANCH   1  13
BRANCH   4  14
ATOM     14  C   UNL     1       6.937   4.727  14.606  0.00  0.00    +0.000 C 
ATOM     15  O   UNL     1       7.833   5.439  14.150  0.00  0.00    +0.000 OA
BRANCH  14  16
ATOM     16  N   UNL     1       6.278   3.734  13.921  0.00  0.00    +0.000 NA
ATOM     17  C   UNL     1       6.459   3.611  12.652  0.00  0.00    +0.000 C 
ATOM     18  N   UNL     1       7.229   4.347  11.818  0.00  0.00    +0.000 N 
ATOM     19  N   UNL     1       5.878   2.581  11.997  0.00  0.00    +0.000 N 
ATOM     20  H   UNL     1       7.576   5.213  12.234  0.00  0.00    +0.000 HD
ATOM     21  H   UNL     1       6.918   4.464  10.867  0.00  0.00    +0.000 HD
ATOM     22  H   UNL     1       5.193   2.090  12.561  0.00  0.00    +0.000 HD
ATOM     23  H   UNL     1       5.583   2.735  11.045  0.00  0.00    +0.000 HD
ENDBRANCH  14  16
ENDBRANCH   4  14
TORSDOF 3
ENDMDL
