MODEL 1
REMARK VINA RESULT:      -6.9      0.000      0.000
REMARK  Name = 
REMARK  6 active torsions:
REMARK  status: ('A' for Active; 'I' for Inactive)
REMARK    1  A    between atoms: C_1  and  C_2
REMARK    2  A    between atoms: C_2  and  C_4
REMARK    3  A    between atoms: C_4  and  O_5
REMARK    4  A    between atoms: C_11  and  C_12
REMARK    5  A    between atoms: C_19  and  C_20
REMARK    6  A    between atoms: C_24  and  C_25
REMARK                            x       y       z     vdW  Elec       q    Type
REMARK                         _______ _______ _______ _____ _____    ______ ____
ROOT
ATOM      1  C   UNL     1       6.551  13.138  24.598  0.00  0.00    +0.000 C 
ATOM      2  C   UNL     1       6.325  11.856  23.751  0.00  0.00    +0.000 C 
ATOM      3  C   UNL     1       7.750  11.496  23.413  0.00  0.00    +0.000 C 
ATOM      4  C   UNL     1       8.374  12.836  23.022  0.00  0.00    +0.000 C 
ATOM      5  C   UNL     1       8.724  13.001  21.568  0.00  0.00    +0.000 C 
ATOM      6  C   UNL     1       9.478  11.791  21.061  0.00  0.00    +0.000 C 
ATOM      7  C   UNL     1       9.205  11.700  19.579  0.00  0.00    +0.000 C 
ATOM      8  C   UNL     1       9.592  10.259  19.199  0.00  0.00    +0.000 C 
ATOM      9  C   UNL     1       9.944  12.871  18.964  0.00  0.00    +0.000 C 
ATOM     10  C   UNL     1      10.727  12.603  17.917  0.00  0.00    +0.000 C 
ATOM     11  C   UNL     1      11.613  13.590  17.289  0.00  0.00    +0.000 C 
ATOM     12  O   UNL     1      12.333  13.247  16.347  0.00  0.00    +0.000 OA
ATOM     13  C   UNL     1      11.550  14.996  17.805  0.00  0.00    +0.000 C 
ATOM     14  C   UNL     1      11.187  15.029  19.313  0.00  0.00    +0.000 C 
ATOM     15  C   UNL     1       9.838  14.316  19.653  0.00  0.00    +0.000 C 
ATOM     16  C   UNL     1       8.716  15.153  19.006  0.00  0.00    +0.000 C 
ATOM     17  C   UNL     1       9.594  14.245  21.281  0.00  0.00    +0.000 C 
ATOM     18  C   UNL     1       9.045  15.492  22.106  0.00  0.00    +0.000 C 
ATOM     19  C   UNL     1       8.353  15.186  23.562  0.00  0.00    +0.000 C 
ATOM     20  C   UNL     1       7.394  13.955  23.490  0.00  0.00    +0.000 C 
ATOM     21  C   UNL     1       6.281  14.483  22.491  0.00  0.00    +0.000 C 
ENDROOT
BRANCH   1  23
ATOM     22  C   UNL     1       6.355  11.351  26.574  0.00  0.00    +0.000 C 
ATOM     23  C   UNL     1       7.115  12.567  25.952  0.00  0.00    +0.000 C 
ATOM     24  O   UNL     1       8.063  13.076  26.531  0.00  0.00    +0.000 OA
ENDBRANCH   1  23
BRANCH   1  25
ATOM     25  O   UNL     1       5.303  13.741  24.925  0.00  0.00    +0.000 OA
ATOM     26  H   UNL     1       5.221  13.670  25.902  0.00  0.00    +0.000 HD
ENDBRANCH   1  25
TORSDOF 2
ENDMDL
MODEL 2
REMARK VINA RESULT:      -6.4      0.922      1.041
REMARK  Name = 
REMARK  6 active torsions:
REMARK  status: ('A' for Active; 'I' for Inactive)
REMARK    1  A    between atoms: C_1  and  C_2
REMARK    2  A    between atoms: C_2  and  C_4
REMARK    3  A    between atoms: C_4  and  O_5
REMARK    4  A    between atoms: C_11  and  C_12
REMARK    5  A    between atoms: C_19  and  C_20
REMARK    6  A    between atoms: C_24  and  C_25
REMARK                            x       y       z     vdW  Elec       q    Type
REMARK                         _______ _______ _______ _____ _____    ______ ____
ROOT
ATOM      1  C   UNL     1       6.474  13.007  25.169  0.00  0.00    +0.000 C 
ATOM      2  C   UNL     1       6.497  11.645  24.424  0.00  0.00    +0.000 C 
ATOM      3  C   UNL     1       7.940  11.595  23.987  0.00  0.00    +0.000 C 
ATOM      4  C   UNL     1       8.203  13.007  23.463  0.00  0.00    +0.000 C 
ATOM      5  C   UNL     1       8.403  13.132  21.977  0.00  0.00    +0.000 C 
ATOM      6  C   UNL     1       9.383  12.091  21.482  0.00  0.00    +0.000 C 
ATOM      7  C   UNL     1       9.037  11.823  20.038  0.00  0.00    +0.000 C 
ATOM      8  C   UNL     1       9.724  10.483  19.714  0.00  0.00    +0.000 C 
ATOM      9  C   UNL     1       9.436  13.079  19.291  0.00  0.00    +0.000 C 
ATOM     10  C   UNL     1      10.185  12.916  18.199  0.00  0.00    +0.000 C 
ATOM     11  C   UNL     1      10.769  14.027  17.438  0.00  0.00    +0.000 C 
ATOM     12  O   UNL     1      11.482  13.785  16.460  0.00  0.00    +0.000 OA
ATOM     13  C   UNL     1      10.414  15.417  17.871  0.00  0.00    +0.000 C 
ATOM     14  C   UNL     1      10.158  15.486  19.399  0.00  0.00    +0.000 C 
ATOM     15  C   UNL     1       9.041  14.512  19.897  0.00  0.00    +0.000 C 
ATOM     16  C   UNL     1       7.712  15.015  19.299  0.00  0.00    +0.000 C 
ATOM     17  C   UNL     1       8.935  14.515  21.541  0.00  0.00    +0.000 C 
ATOM     18  C   UNL     1       8.167  15.665  22.333  0.00  0.00    +0.000 C 
ATOM     19  C   UNL     1       7.668  15.325  23.859  0.00  0.00    +0.000 C 
ATOM     20  C   UNL     1       7.023  13.905  23.945  0.00  0.00    +0.000 C 
ATOM     21  C   UNL     1       5.750  14.082  23.015  0.00  0.00    +0.000 C 
ENDROOT
BRANCH   1  23
ATOM     22  C   UNL     1       8.324  13.728  26.955  0.00  0.00    +0.000 C 
ATOM     23  C   UNL     1       7.248  12.689  26.502  0.00  0.00    +0.000 C 
ATOM     24  O   UNL     1       7.070  11.656  27.129  0.00  0.00    +0.000 OA
ENDBRANCH   1  23
BRANCH   1  25
ATOM     25  O   UNL     1       5.145  13.332  25.565  0.00  0.00    +0.000 OA
ATOM     26  H   UNL     1       5.003  14.262  25.284  0.00  0.00    +0.000 HD
ENDBRANCH   1  25
TORSDOF 2
ENDMDL
MODEL 3
REMARK VINA RESULT:      -6.0      9.802     13.132
REMARK  Name = 
REMARK  6 active torsions:
REMARK  status: ('A' for Active; 'I' for Inactive)
REMARK    1  A    between atoms: C_1  and  C_2
REMARK    2  A    between atoms: C_2  and  C_4
REMARK    3  A    between atoms: C_4  and  O_5
REMARK    4  A    between atoms: C_11  and  C_12
REMARK    5  A    between atoms: C_19  and  C_20
REMARK    6  A    between atoms: C_24  and  C_25
REMARK                            x       y       z     vdW  Elec       q    Type
REMARK                         _______ _______ _______ _____ _____    ______ ____
ROOT
ATOM      1  C   UNL     1       0.384  10.696  20.301  0.00  0.00    +0.000 C 
ATOM      2  C   UNL     1      -0.888  10.007  19.735  0.00  0.00    +0.000 C 
ATOM      3  C   UNL     1      -1.654  11.209  19.240  0.00  0.00    +0.000 C 
ATOM      4  C   UNL     1      -1.507  12.219  20.378  0.00  0.00    +0.000 C 
ATOM      5  C   UNL     1      -2.758  12.519  21.159  0.00  0.00    +0.000 C 
ATOM      6  C   UNL     1      -3.915  12.796  20.225  0.00  0.00    +0.000 C 
ATOM      7  C   UNL     1      -5.173  12.422  20.972  0.00  0.00    +0.000 C 
ATOM      8  C   UNL     1      -6.249  12.284  19.879  0.00  0.00    +0.000 C 
ATOM      9  C   UNL     1      -5.321  13.472  22.054  0.00  0.00    +0.000 C 
ATOM     10  C   UNL     1      -6.516  14.058  22.161  0.00  0.00    +0.000 C 
ATOM     11  C   UNL     1      -6.792  15.184  23.062  0.00  0.00    +0.000 C 
ATOM     12  O   UNL     1      -7.917  15.693  23.070  0.00  0.00    +0.000 OA
ATOM     13  C   UNL     1      -5.686  15.623  23.972  0.00  0.00    +0.000 C 
ATOM     14  C   UNL     1      -4.295  15.380  23.330  0.00  0.00    +0.000 C 
ATOM     15  C   UNL     1      -4.039  13.894  22.922  0.00  0.00    +0.000 C 
ATOM     16  C   UNL     1      -3.965  13.078  24.229  0.00  0.00    +0.000 C 
ATOM     17  C   UNL     1      -2.619  13.735  22.101  0.00  0.00    +0.000 C 
ATOM     18  C   UNL     1      -1.214  13.682  22.851  0.00  0.00    +0.000 C 
ATOM     19  C   UNL     1       0.047  13.013  22.042  0.00  0.00    +0.000 C 
ATOM     20  C   UNL     1      -0.375  11.697  21.315  0.00  0.00    +0.000 C 
ATOM     21  C   UNL     1      -0.750  10.767  22.544  0.00  0.00    +0.000 C 
ENDROOT
BRANCH   1  23
ATOM     22  C   UNL     1       1.532   9.972  18.000  0.00  0.00    +0.000 C 
ATOM     23  C   UNL     1       1.163  11.116  18.999  0.00  0.00    +0.000 C 
ATOM     24  O   UNL     1       1.520  12.266  18.795  0.00  0.00    +0.000 OA
ENDBRANCH   1  23
BRANCH   1  25
ATOM     25  O   UNL     1       1.214   9.741  20.955  0.00  0.00    +0.000 OA
ATOM     26  H   UNL     1       2.076   9.773  20.486  0.00  0.00    +0.000 HD
ENDBRANCH   1  25
TORSDOF 2
ENDMDL
MODEL 4
REMARK VINA RESULT:      -5.9      9.039     10.590
REMARK  Name = 
REMARK  6 active torsions:
REMARK  status: ('A' for Active; 'I' for Inactive)
REMARK    1  A    between atoms: C_1  and  C_2
REMARK    2  A    between atoms: C_2  and  C_4
REMARK    3  A    between atoms: C_4  and  O_5
REMARK    4  A    between atoms: C_11  and  C_12
REMARK    5  A    between atoms: C_19  and  C_20
REMARK    6  A    between atoms: C_24  and  C_25
REMARK                            x       y       z     vdW  Elec       q    Type
REMARK                         _______ _______ _______ _____ _____    ______ ____
ROOT
ATOM      1  C   UNL     1      -3.504  14.731  22.522  0.00  0.00    +0.000 C 
ATOM      2  C   UNL     1      -3.586  13.456  23.403  0.00  0.00    +0.000 C 
ATOM      3  C   UNL     1      -2.122  13.116  23.533  0.00  0.00    +0.000 C 
ATOM      4  C   UNL     1      -1.587  13.297  22.111  0.00  0.00    +0.000 C 
ATOM      5  C   UNL     1      -1.180  12.037  21.396  0.00  0.00    +0.000 C 
ATOM      6  C   UNL     1      -0.309  11.177  22.285  0.00  0.00    +0.000 C 
ATOM      7  C   UNL     1      -0.501   9.751  21.829  0.00  0.00    +0.000 C 
ATOM      8  C   UNL     1       0.016   8.895  23.000  0.00  0.00    +0.000 C 
ATOM      9  C   UNL     1       0.173   9.670  20.475  0.00  0.00    +0.000 C 
ATOM     10  C   UNL     1       1.025   8.659  20.289  0.00  0.00    +0.000 C 
ATOM     11  C   UNL     1       1.860   8.509  19.091  0.00  0.00    +0.000 C 
ATOM     12  O   UNL     1       2.651   7.564  19.017  0.00  0.00    +0.000 OA
ATOM     13  C   UNL     1       1.662   9.503  17.987  0.00  0.00    +0.000 C 
ATOM     14  C   UNL     1       1.223  10.884  18.539  0.00  0.00    +0.000 C 
ATOM     15  C   UNL     1      -0.080  10.834  19.400  0.00  0.00    +0.000 C 
ATOM     16  C   UNL     1      -1.232  10.461  18.445  0.00  0.00    +0.000 C 
ATOM     17  C   UNL     1      -0.397  12.297  20.090  0.00  0.00    +0.000 C 
ATOM     18  C   UNL     1      -1.083  13.482  19.274  0.00  0.00    +0.000 C 
ATOM     19  C   UNL     1      -1.820  14.665  20.140  0.00  0.00    +0.000 C 
ATOM     20  C   UNL     1      -2.674  14.071  21.305  0.00  0.00    +0.000 C 
ATOM     21  C   UNL     1      -3.775  13.257  20.503  0.00  0.00    +0.000 C 
ENDROOT
BRANCH   1  23
ATOM     22  C   UNL     1      -3.791  16.038  24.834  0.00  0.00    +0.000 C 
ATOM     23  C   UNL     1      -2.964  15.816  23.526  0.00  0.00    +0.000 C 
ATOM     24  O   UNL     1      -1.982  16.501  23.282  0.00  0.00    +0.000 OA
ENDBRANCH   1  23
BRANCH   1  25
ATOM     25  O   UNL     1      -4.810  15.164  22.154  0.00  0.00    +0.000 OA
ATOM     26  H   UNL     1      -5.374  14.361  22.183  0.00  0.00    +0.000 HD
ENDBRANCH   1  25
TORSDOF 2
ENDMDL
MODEL 5
REMARK VINA RESULT:      -5.8      9.558     11.620
REMARK  Name = 
REMARK  6 active torsions:
REMARK  status: ('A' for Active; 'I' for Inactive)
REMARK    1  A    between atoms: C_1  and  C_2
REMARK    2  A    between atoms: C_2  and  C_4
REMARK    3  A    between atoms: C_4  and  O_5
REMARK    4  A    between atoms: C_11  and  C_12
REMARK    5  A    between atoms: C_19  and  C_20
REMARK    6  A    between atoms: C_24  and  C_25
REMARK                            x       y       z     vdW  Elec       q    Type
REMARK                         _______ _______ _______ _____ _____    ______ ____
ROOT
ATOM      1  C   UNL     1      -4.609  14.733  22.491  0.00  0.00    +0.000 C 
ATOM      2  C   UNL     1      -4.687  14.946  20.955  0.00  0.00    +0.000 C 
ATOM      3  C   UNL     1      -4.735  13.514  20.481  0.00  0.00    +0.000 C 
ATOM      4  C   UNL     1      -3.662  12.824  21.326  0.00  0.00    +0.000 C 
ATOM      5  C   UNL     1      -2.430  12.377  20.588  0.00  0.00    +0.000 C 
ATOM      6  C   UNL     1      -2.805  11.631  19.326  0.00  0.00    +0.000 C 
ATOM      7  C   UNL     1      -1.660  11.812  18.360  0.00  0.00    +0.000 C 
ATOM      8  C   UNL     1      -2.249  11.448  16.984  0.00  0.00    +0.000 C 
ATOM      9  C   UNL     1      -0.519  10.998  18.935  0.00  0.00    +0.000 C 
ATOM     10  C   UNL     1       0.100  10.159  18.101  0.00  0.00    +0.000 C 
ATOM     11  C   UNL     1       1.130   9.204  18.524  0.00  0.00    +0.000 C 
ATOM     12  O   UNL     1       1.624   8.436  17.694  0.00  0.00    +0.000 OA
ATOM     13  C   UNL     1       1.566   9.254  19.957  0.00  0.00    +0.000 C 
ATOM     14  C   UNL     1       0.411   9.711  20.885  0.00  0.00    +0.000 C 
ATOM     15  C   UNL     1      -0.193  11.101  20.503  0.00  0.00    +0.000 C 
ATOM     16  C   UNL     1       0.903  12.152  20.769  0.00  0.00    +0.000 C 
ATOM     17  C   UNL     1      -1.516  11.450  21.420  0.00  0.00    +0.000 C 
ATOM     18  C   UNL     1      -1.386  12.010  22.907  0.00  0.00    +0.000 C 
ATOM     19  C   UNL     1      -2.682  12.804  23.528  0.00  0.00    +0.000 C 
ATOM     20  C   UNL     1      -3.296  13.795  22.489  0.00  0.00    +0.000 C 
ATOM     21  C   UNL     1      -2.104  14.825  22.296  0.00  0.00    +0.000 C 
ENDROOT
BRANCH   1  23
ATOM     22  C   UNL     1      -6.206  13.083  23.855  0.00  0.00    +0.000 C 
ATOM     23  C   UNL     1      -6.071  14.276  22.855  0.00  0.00    +0.000 C 
ATOM     24  O   UNL     1      -7.059  14.780  22.343  0.00  0.00    +0.000 OA
ENDBRANCH   1  23
BRANCH   1  25
ATOM     25  O   UNL     1      -4.420  15.980  23.154  0.00  0.00    +0.000 OA
ATOM     26  H   UNL     1      -4.603  16.670  22.480  0.00  0.00    +0.000 HD
ENDBRANCH   1  25
TORSDOF 2
ENDMDL
MODEL 6
REMARK VINA RESULT:      -5.7     12.000     14.093
REMARK  Name = 
REMARK  6 active torsions:
REMARK  status: ('A' for Active; 'I' for Inactive)
REMARK    1  A    between atoms: C_1  and  C_2
REMARK    2  A    between atoms: C_2  and  C_4
REMARK    3  A    between atoms: C_4  and  O_5
REMARK    4  A    between atoms: C_11  and  C_12
REMARK    5  A    between atoms: C_19  and  C_20
REMARK    6  A    between atoms: C_24  and  C_25
REMARK                            x       y       z     vdW  Elec       q    Type
REMARK                         _______ _______ _______ _____ _____    ______ ____
ROOT
ATOM      1  C   UNL     1      -6.319  14.467  23.693  0.00  0.00    +0.000 C 
ATOM      2  C   UNL     1      -4.914  13.869  23.978  0.00  0.00    +0.000 C 
ATOM      3  C   UNL     1      -4.146  14.397  22.792  0.00  0.00    +0.000 C 
ATOM      4  C   UNL     1      -5.096  14.160  21.618  0.00  0.00    +0.000 C 
ATOM      5  C   UNL     1      -4.676  13.102  20.634  0.00  0.00    +0.000 C 
ATOM      6  C   UNL     1      -3.228  13.288  20.236  0.00  0.00    +0.000 C 
ATOM      7  C   UNL     1      -2.708  11.926  19.846  0.00  0.00    +0.000 C 
ATOM      8  C   UNL     1      -1.175  12.066  19.890  0.00  0.00    +0.000 C 
ATOM      9  C   UNL     1      -3.402  11.592  18.541  0.00  0.00    +0.000 C 
ATOM     10  C   UNL     1      -2.625  11.176  17.538  0.00  0.00    +0.000 C 
ATOM     11  C   UNL     1      -3.113  10.941  16.174  0.00  0.00    +0.000 C 
ATOM     12  O   UNL     1      -2.318  10.593  15.296  0.00  0.00    +0.000 OA
ATOM     13  C   UNL     1      -4.585  11.090  15.936  0.00  0.00    +0.000 C 
ATOM     14  C   UNL     1      -5.207  12.151  16.882  0.00  0.00    +0.000 C 
ATOM     15  C   UNL     1      -4.978  11.855  18.399  0.00  0.00    +0.000 C 
ATOM     16  C   UNL     1      -5.781  10.581  18.731  0.00  0.00    +0.000 C 
ATOM     17  C   UNL     1      -5.517  13.098  19.338  0.00  0.00    +0.000 C 
ATOM     18  C   UNL     1      -7.060  13.278  19.692  0.00  0.00    +0.000 C 
ATOM     19  C   UNL     1      -7.429  14.184  21.010  0.00  0.00    +0.000 C 
ATOM     20  C   UNL     1      -6.499  13.840  22.217  0.00  0.00    +0.000 C 
ATOM     21  C   UNL     1      -6.898  12.331  22.501  0.00  0.00    +0.000 C 
ENDROOT
BRANCH   1  23
ATOM     22  C   UNL     1      -7.049  17.004  23.280  0.00  0.00    +0.000 C 
ATOM     23  C   UNL     1      -6.125  15.992  24.032  0.00  0.00    +0.000 C 
ATOM     24  O   UNL     1      -5.258  16.385  24.799  0.00  0.00    +0.000 OA
ENDBRANCH   1  23
BRANCH   1  25
ATOM     25  O   UNL     1      -7.265  13.981  24.640  0.00  0.00    +0.000 OA
ATOM     26  H   UNL     1      -7.166  14.553  25.433  0.00  0.00    +0.000 HD
ENDBRANCH   1  25
TORSDOF 2
ENDMDL
MODEL 7
REMARK VINA RESULT:      -5.7     10.369     13.483
REMARK  Name = 
REMARK  6 active torsions:
REMARK  status: ('A' for Active; 'I' for Inactive)
REMARK    1  A    between atoms: C_1  and  C_2
REMARK    2  A    between atoms: C_2  and  C_4
REMARK    3  A    between atoms: C_4  and  O_5
REMARK    4  A    between atoms: C_11  and  C_12
REMARK    5  A    between atoms: C_19  and  C_20
REMARK    6  A    between atoms: C_24  and  C_25
REMARK                            x       y       z     vdW  Elec       q    Type
REMARK                         _______ _______ _______ _____ _____    ______ ____
ROOT
ATOM      1  C   UNL     1      -2.242  10.386  17.157  0.00  0.00    +0.000 C 
ATOM      2  C   UNL     1      -3.461   9.851  17.957  0.00  0.00    +0.000 C 
ATOM      3  C   UNL     1      -4.206  11.136  18.216  0.00  0.00    +0.000 C 
ATOM      4  C   UNL     1      -3.103  12.108  18.637  0.00  0.00    +0.000 C 
ATOM      5  C   UNL     1      -3.117  12.534  20.081  0.00  0.00    +0.000 C 
ATOM      6  C   UNL     1      -4.510  12.951  20.500  0.00  0.00    +0.000 C 
ATOM      7  C   UNL     1      -4.604  12.709  21.987  0.00  0.00    +0.000 C 
ATOM      8  C   UNL     1      -6.114  12.706  22.287  0.00  0.00    +0.000 C 
ATOM      9  C   UNL     1      -3.708  13.753  22.620  0.00  0.00    +0.000 C 
ATOM     10  C   UNL     1      -4.231  14.467  23.619  0.00  0.00    +0.000 C 
ATOM     11  C   UNL     1      -3.551  15.604  24.251  0.00  0.00    +0.000 C 
ATOM     12  O   UNL     1      -4.123  16.234  25.144  0.00  0.00    +0.000 OA
ATOM     13  C   UNL     1      -2.154  15.905  23.799  0.00  0.00    +0.000 C 
ATOM     14  C   UNL     1      -1.943  15.518  22.312  0.00  0.00    +0.000 C 
ATOM     15  C   UNL     1      -2.251  14.018  22.001  0.00  0.00    +0.000 C 
ATOM     16  C   UNL     1      -1.181  13.182  22.731  0.00  0.00    +0.000 C 
ATOM     17  C   UNL     1      -2.168  13.715  20.383  0.00  0.00    +0.000 C 
ATOM     18  C   UNL     1      -0.776  13.496  19.638  0.00  0.00    +0.000 C 
ATOM     19  C   UNL     1      -0.808  12.702  18.202  0.00  0.00    +0.000 C 
ATOM     20  C   UNL     1      -1.741  11.451  18.262  0.00  0.00    +0.000 C 
ATOM     21  C   UNL     1      -0.990  10.551  19.331  0.00  0.00    +0.000 C 
ENDROOT
BRANCH   1  23
ATOM     22  C   UNL     1      -3.128   9.539  14.784  0.00  0.00    +0.000 C 
ATOM     23  C   UNL     1      -2.869  10.734  15.756  0.00  0.00    +0.000 C 
ATOM     24  O   UNL     1      -3.093  11.884  15.409  0.00  0.00    +0.000 OA
ENDBRANCH   1  23
BRANCH   1  25
ATOM     25  O   UNL     1      -1.312   9.336  16.912  0.00  0.00    +0.000 OA
ATOM     26  H   UNL     1      -1.729   8.764  16.231  0.00  0.00    +0.000 HD
ENDBRANCH   1  25
TORSDOF 2
ENDMDL
MODEL 8
REMARK VINA RESULT:      -5.6      8.802     10.073
REMARK  Name = 
REMARK  6 active torsions:
REMARK  status: ('A' for Active; 'I' for Inactive)
REMARK    1  A    between atoms: C_1  and  C_2
REMARK    2  A    between atoms: C_2  and  C_4
REMARK    3  A    between atoms: C_4  and  O_5
REMARK    4  A    between atoms: C_11  and  C_12
REMARK    5  A    between atoms: C_19  and  C_20
REMARK    6  A    between atoms: C_24  and  C_25
REMARK                            x       y       z     vdW  Elec       q    Type
REMARK                         _______ _______ _______ _____ _____    ______ ____
ROOT
ATOM      1  C   UNL     1      -2.474  14.896  21.890  0.00  0.00    +0.000 C 
ATOM      2  C   UNL     1      -2.603  13.732  22.910  0.00  0.00    +0.000 C 
ATOM      3  C   UNL     1      -1.163  13.290  23.004  0.00  0.00    +0.000 C 
ATOM      4  C   UNL     1      -0.699  13.275  21.548  0.00  0.00    +0.000 C 
ATOM      5  C   UNL     1      -0.429  11.918  20.956  0.00  0.00    +0.000 C 
ATOM      6  C   UNL     1       0.424  11.089  21.891  0.00  0.00    +0.000 C 
ATOM      7  C   UNL     1       0.099   9.643  21.606  0.00  0.00    +0.000 C 
ATOM      8  C   UNL     1       0.616   8.876  22.837  0.00  0.00    +0.000 C 
ATOM      9  C   UNL     1       0.686   9.364  20.238  0.00  0.00    +0.000 C 
ATOM     10  C   UNL     1       1.448   8.273  20.122  0.00  0.00    +0.000 C 
ATOM     11  C   UNL     1       2.199   7.930  18.909  0.00  0.00    +0.000 C 
ATOM     12  O   UNL     1       2.911   6.921  18.901  0.00  0.00    +0.000 OA
ATOM     13  C   UNL     1       2.014   8.814  17.713  0.00  0.00    +0.000 C 
ATOM     14  C   UNL     1       1.713  10.277  18.131  0.00  0.00    +0.000 C 
ATOM     15  C   UNL     1       0.461  10.424  19.055  0.00  0.00    +0.000 C 
ATOM     16  C   UNL     1      -0.768  10.047  18.203  0.00  0.00    +0.000 C 
ATOM     17  C   UNL     1       0.295  11.973  19.593  0.00  0.00    +0.000 C 
ATOM     18  C   UNL     1      -0.344  13.116  18.686  0.00  0.00    +0.000 C 
ATOM     19  C   UNL     1      -0.939  14.440  19.451  0.00  0.00    +0.000 C 
ATOM     20  C   UNL     1      -1.768  14.045  20.714  0.00  0.00    +0.000 C 
ATOM     21  C   UNL     1      -2.971  13.243  20.062  0.00  0.00    +0.000 C 
ENDROOT
BRANCH   1  23
ATOM     22  C   UNL     1      -0.686  16.875  22.036  0.00  0.00    +0.000 C 
ATOM     23  C   UNL     1      -1.798  16.034  22.741  0.00  0.00    +0.000 C 
ATOM     24  O   UNL     1      -2.076  16.222  23.916  0.00  0.00    +0.000 OA
ENDBRANCH   1  23
BRANCH   1  25
ATOM     25  O   UNL     1      -3.763  15.392  21.541  0.00  0.00    +0.000 OA
ATOM     26  H   UNL     1      -3.779  16.327  21.842  0.00  0.00    +0.000 HD
ENDBRANCH   1  25
TORSDOF 2
ENDMDL
MODEL 9
REMARK VINA RESULT:      -5.5      9.367     11.258
REMARK  Name = 
REMARK  6 active torsions:
REMARK  status: ('A' for Active; 'I' for Inactive)
REMARK    1  A    between atoms: C_1  and  C_2
REMARK    2  A    between atoms: C_2  and  C_4
REMARK    3  A    between atoms: C_4  and  O_5
REMARK    4  A    between atoms: C_11  and  C_12
REMARK    5  A    between atoms: C_19  and  C_20
REMARK    6  A    between atoms: C_24  and  C_25
REMARK                            x       y       z     vdW  Elec       q    Type
REMARK                         _______ _______ _______ _____ _____    ______ ____
ROOT
ATOM      1  C   UNL     1      -5.485  14.062  23.103  0.00  0.00    +0.000 C 
ATOM      2  C   UNL     1      -5.798  13.729  21.619  0.00  0.00    +0.000 C 
ATOM      3  C   UNL     1      -4.869  12.562  21.397  0.00  0.00    +0.000 C 
ATOM      4  C   UNL     1      -3.562  13.018  22.048  0.00  0.00    +0.000 C 
ATOM      5  C   UNL     1      -2.424  13.306  21.107  0.00  0.00    +0.000 C 
ATOM      6  C   UNL     1      -2.263  12.184  20.106  0.00  0.00    +0.000 C 
ATOM      7  C   UNL     1      -1.640  12.791  18.872  0.00  0.00    +0.000 C 
ATOM      8  C   UNL     1      -1.906  11.765  17.755  0.00  0.00    +0.000 C 
ATOM      9  C   UNL     1      -0.218  13.130  19.268  0.00  0.00    +0.000 C 
ATOM     10  C   UNL     1       0.749  12.714  18.446  0.00  0.00    +0.000 C 
ATOM     11  C   UNL     1       2.181  12.839  18.744  0.00  0.00    +0.000 C 
ATOM     12  O   UNL     1       3.008  12.392  17.945  0.00  0.00    +0.000 OA
ATOM     13  C   UNL     1       2.560  13.561  20.001  0.00  0.00    +0.000 C 
ATOM     14  C   UNL     1       1.483  13.384  21.103  0.00  0.00    +0.000 C 
ATOM     15  C   UNL     1       0.056  13.855  20.672  0.00  0.00    +0.000 C 
ATOM     16  C   UNL     1       0.126  15.386  20.498  0.00  0.00    +0.000 C 
ATOM     17  C   UNL     1      -1.066  13.489  21.822  0.00  0.00    +0.000 C 
ATOM     18  C   UNL     1      -1.257  14.383  23.127  0.00  0.00    +0.000 C 
ATOM     19  C   UNL     1      -2.690  14.264  23.918  0.00  0.00    +0.000 C 
ATOM     20  C   UNL     1      -3.893  14.266  22.922  0.00  0.00    +0.000 C 
ATOM     21  C   UNL     1      -3.774  15.715  22.288  0.00  0.00    +0.000 C 
ENDROOT
BRANCH   1  23
ATOM     22  C   UNL     1      -7.723  12.720  23.673  0.00  0.00    +0.000 C 
ATOM     23  C   UNL     1      -6.183  12.885  23.881  0.00  0.00    +0.000 C 
ATOM     24  O   UNL     1      -5.575  12.165  24.658  0.00  0.00    +0.000 OA
ENDBRANCH   1  23
BRANCH   1  25
ATOM     25  O   UNL     1      -6.170  15.245  23.501  0.00  0.00    +0.000 OA
ATOM     26  H   UNL     1      -6.930  15.333  22.884  0.00  0.00    +0.000 HD
ENDBRANCH   1  25
TORSDOF 2
ENDMDL
