MODEL 1
REMARK VINA RESULT:      -6.7      0.000      0.000
REMARK  Name = 
REMARK  6 active torsions:
REMARK  status: ('A' for Active; 'I' for Inactive)
REMARK    1  A    between atoms: C_1  and  O_2
REMARK    2  A    between atoms: O_2  and  C_3
REMARK    3  A    between atoms: C_5  and  C_6
REMARK    4  A    between atoms: C_22  and  O_23
REMARK    5  A    between atoms: O_23  and  C_24
REMARK    6  A    between atoms: C_25  and  O_26
REMARK                            x       y       z     vdW  Elec       q    Type
REMARK                         _______ _______ _______ _____ _____    ______ ____
ROOT
ATOM      1  C   UNL     1       1.748   9.167  17.807  0.00  0.00    +0.000 C 
ATOM      2  C   UNL     1       2.340   8.265  18.639  0.00  0.00    +0.000 C 
ATOM      3  C   UNL     1       1.649   8.195  20.002  0.00  0.00    +0.000 C 
ATOM      4  C   UNL     1       2.558   7.276  20.721  0.00  0.00    +0.000 C 
ATOM      5  N   UNL     1       2.625   6.237  19.764  0.00  0.00    +0.000 N 
ATOM      6  C   UNL     1       2.919   6.766  18.517  0.00  0.00    +0.000 A 
ATOM      7  N   UNL     1       3.443   5.922  17.674  0.00  0.00    +0.000 NA
ATOM      8  C   UNL     1       3.068   4.540  18.005  0.00  0.00    +0.000 A 
ATOM      9  C   UNL     1       3.751   3.305  18.021  0.00  0.00    +0.000 A 
ATOM     10  C   UNL     1       3.005   2.091  18.158  0.00  0.00    +0.000 A 
ATOM     11  C   UNL     1       1.603   2.093  18.176  0.00  0.00    +0.000 A 
ATOM     12  C   UNL     1       0.965   3.294  18.375  0.00  0.00    +0.000 A 
ATOM     13  C   UNL     1       1.769   4.420  18.482  0.00  0.00    +0.000 A 
ATOM     14  C   UNL     1       1.626   5.293  19.675  0.00  0.00    +0.000 A 
ATOM     15  O   UNL     1       0.695   5.174  20.445  0.00  0.00    +0.000 OA
ENDROOT
BRANCH   1  18
ATOM     16  C   UNL     1      -2.033   9.889  17.307  0.00  0.00    +0.000 A 
ATOM     17  C   UNL     1      -0.701   9.441  17.142  0.00  0.00    +0.000 A 
ATOM     18  C   UNL     1       0.313   9.710  18.076  0.00  0.00    +0.000 A 
ATOM     19  C   UNL     1      -0.088  10.444  19.218  0.00  0.00    +0.000 A 
ATOM     20  C   UNL     1      -1.412  10.970  19.382  0.00  0.00    +0.000 A 
ATOM     21  C   UNL     1      -2.374  10.711  18.394  0.00  0.00    +0.000 A 
BRANCH  16  23
ATOM     22  C   UNL     1      -2.922  10.207  15.095  0.00  0.00    +0.000 C 
ATOM     23  O   UNL     1      -2.889   9.462  16.315  0.00  0.00    +0.000 OA
ENDBRANCH  16  23
BRANCH  20  24
ATOM     24  O   UNL     1      -1.570  11.676  20.553  0.00  0.00    +0.000 OA
ATOM     25  C   UNL     1      -0.802  11.397  21.718  0.00  0.00    +0.000 C 
ENDBRANCH  20  24
BRANCH  21  26
ATOM     26  O   UNL     1      -3.629  11.256  18.388  0.00  0.00    +0.000 OA
ATOM     27  H   UNL     1      -3.632  12.105  17.935  0.00  0.00    +0.000 HD
ENDBRANCH  21  26
ENDBRANCH   1  18
TORSDOF 4
ENDMDL
MODEL 2
REMARK VINA RESULT:      -6.6      2.328      7.499
REMARK  Name = 
REMARK  6 active torsions:
REMARK  status: ('A' for Active; 'I' for Inactive)
REMARK    1  A    between atoms: C_1  and  O_2
REMARK    2  A    between atoms: O_2  and  C_3
REMARK    3  A    between atoms: C_5  and  C_6
REMARK    4  A    between atoms: C_22  and  O_23
REMARK    5  A    between atoms: O_23  and  C_24
REMARK    6  A    between atoms: C_25  and  O_26
REMARK                            x       y       z     vdW  Elec       q    Type
REMARK                         _______ _______ _______ _____ _____    ______ ____
ROOT
ATOM      1  C   UNL     1       1.714   7.944  20.648  0.00  0.00    +0.000 C 
ATOM      2  C   UNL     1       1.453   9.065  19.918  0.00  0.00    +0.000 C 
ATOM      3  C   UNL     1       1.876   8.915  18.456  0.00  0.00    +0.000 C 
ATOM      4  C   UNL     1       1.616  10.283  17.956  0.00  0.00    +0.000 C 
ATOM      5  N   UNL     1       0.294  10.445  18.431  0.00  0.00    +0.000 N 
ATOM      6  C   UNL     1       0.233  10.109  19.774  0.00  0.00    +0.000 A 
ATOM      7  N   UNL     1      -0.770  10.628  20.424  0.00  0.00    +0.000 NA
ATOM      8  C   UNL     1      -1.884  10.938  19.518  0.00  0.00    +0.000 A 
ATOM      9  C   UNL     1      -2.790  12.013  19.395  0.00  0.00    +0.000 A 
ATOM     10  C   UNL     1      -3.932  11.877  18.541  0.00  0.00    +0.000 A 
ATOM     11  C   UNL     1      -4.224  10.663  17.902  0.00  0.00    +0.000 A 
ATOM     12  C   UNL     1      -3.237   9.708  17.856  0.00  0.00    +0.000 A 
ATOM     13  C   UNL     1      -2.047  10.004  18.503  0.00  0.00    +0.000 A 
ATOM     14  C   UNL     1      -0.775   9.914  17.742  0.00  0.00    +0.000 A 
ATOM     15  O   UNL     1      -0.721   9.390  16.648  0.00  0.00    +0.000 OA
ENDROOT
BRANCH   1  18
ATOM     16  C   UNL     1       1.611   4.127  19.956  0.00  0.00    +0.000 A 
ATOM     17  C   UNL     1       1.415   5.414  20.511  0.00  0.00    +0.000 A 
ATOM     18  C   UNL     1       1.996   6.572  19.968  0.00  0.00    +0.000 A 
ATOM     19  C   UNL     1       2.777   6.375  18.804  0.00  0.00    +0.000 A 
ATOM     20  C   UNL     1       3.050   5.078  18.257  0.00  0.00    +0.000 A 
ATOM     21  C   UNL     1       2.483   3.949  18.868  0.00  0.00    +0.000 A 
BRANCH  16  23
ATOM     22  C   UNL     1       1.469   2.560  21.775  0.00  0.00    +0.000 C 
ATOM     23  O   UNL     1       0.902   3.133  20.595  0.00  0.00    +0.000 OA
ENDBRANCH  16  23
BRANCH  20  24
ATOM     24  O   UNL     1       3.855   5.121  17.142  0.00  0.00    +0.000 OA
ATOM     25  C   UNL     1       4.724   6.216  16.873  0.00  0.00    +0.000 C 
ENDBRANCH  20  24
BRANCH  21  26
ATOM     26  O   UNL     1       2.767   2.661  18.506  0.00  0.00    +0.000 OA
ATOM     27  H   UNL     1       3.634   2.396  18.828  0.00  0.00    +0.000 HD
ENDBRANCH  21  26
ENDBRANCH   1  18
TORSDOF 4
ENDMDL
MODEL 3
REMARK VINA RESULT:      -6.6      2.332      7.321
REMARK  Name = 
REMARK  6 active torsions:
REMARK  status: ('A' for Active; 'I' for Inactive)
REMARK    1  A    between atoms: C_1  and  O_2
REMARK    2  A    between atoms: O_2  and  C_3
REMARK    3  A    between atoms: C_5  and  C_6
REMARK    4  A    between atoms: C_22  and  O_23
REMARK    5  A    between atoms: O_23  and  C_24
REMARK    6  A    between atoms: C_25  and  O_26
REMARK                            x       y       z     vdW  Elec       q    Type
REMARK                         _______ _______ _______ _____ _____    ______ ____
ROOT
ATOM      1  C   UNL     1       1.674   7.982  20.689  0.00  0.00    +0.000 C 
ATOM      2  C   UNL     1       1.427   9.087  19.932  0.00  0.00    +0.000 C 
ATOM      3  C   UNL     1       1.831   8.890  18.470  0.00  0.00    +0.000 C 
ATOM      4  C   UNL     1       1.592  10.248  17.936  0.00  0.00    +0.000 C 
ATOM      5  N   UNL     1       0.278  10.448  18.419  0.00  0.00    +0.000 N 
ATOM      6  C   UNL     1       0.226  10.150  19.772  0.00  0.00    +0.000 A 
ATOM      7  N   UNL     1      -0.760  10.706  20.418  0.00  0.00    +0.000 NA
ATOM      8  C   UNL     1      -1.878  11.013  19.514  0.00  0.00    +0.000 A 
ATOM      9  C   UNL     1      -2.765  12.101  19.371  0.00  0.00    +0.000 A 
ATOM     10  C   UNL     1      -3.918  11.963  18.533  0.00  0.00    +0.000 A 
ATOM     11  C   UNL     1      -4.240  10.739  17.930  0.00  0.00    +0.000 A 
ATOM     12  C   UNL     1      -3.272   9.763  17.900  0.00  0.00    +0.000 A 
ATOM     13  C   UNL     1      -2.070  10.055  18.527  0.00  0.00    +0.000 A 
ATOM     14  C   UNL     1      -0.807   9.919  17.756  0.00  0.00    +0.000 A 
ATOM     15  O   UNL     1      -0.775   9.365  16.676  0.00  0.00    +0.000 OA
ENDROOT
BRANCH   1  18
ATOM     16  C   UNL     1       3.031   5.275  18.261  0.00  0.00    +0.000 A 
ATOM     17  C   UNL     1       2.745   6.500  18.909  0.00  0.00    +0.000 A 
ATOM     18  C   UNL     1       1.923   6.586  20.044  0.00  0.00    +0.000 A 
ATOM     19  C   UNL     1       1.412   5.355  20.523  0.00  0.00    +0.000 A 
ATOM     20  C   UNL     1       1.628   4.107  19.851  0.00  0.00    +0.000 A 
ATOM     21  C   UNL     1       2.418   4.086  18.692  0.00  0.00    +0.000 A 
BRANCH  16  23
ATOM     22  C   UNL     1       4.612   6.632  17.061  0.00  0.00    +0.000 C 
ATOM     23  O   UNL     1       3.911   5.396  17.207  0.00  0.00    +0.000 OA
ENDBRANCH  16  23
BRANCH  20  24
ATOM     24  O   UNL     1       1.015   3.046  20.477  0.00  0.00    +0.000 OA
ATOM     25  C   UNL     1       1.477   2.525  21.718  0.00  0.00    +0.000 C 
ENDBRANCH  20  24
BRANCH  21  26
ATOM     26  O   UNL     1       2.595   2.979  17.908  0.00  0.00    +0.000 OA
ATOM     27  H   UNL     1       3.287   2.413  18.264  0.00  0.00    +0.000 HD
ENDBRANCH  21  26
ENDBRANCH   1  18
TORSDOF 4
ENDMDL
MODEL 4
REMARK VINA RESULT:      -6.6      0.346      2.586
REMARK  Name = 
REMARK  6 active torsions:
REMARK  status: ('A' for Active; 'I' for Inactive)
REMARK    1  A    between atoms: C_1  and  O_2
REMARK    2  A    between atoms: O_2  and  C_3
REMARK    3  A    between atoms: C_5  and  C_6
REMARK    4  A    between atoms: C_22  and  O_23
REMARK    5  A    between atoms: O_23  and  C_24
REMARK    6  A    between atoms: C_25  and  O_26
REMARK                            x       y       z     vdW  Elec       q    Type
REMARK                         _______ _______ _______ _____ _____    ______ ____
ROOT
ATOM      1  C   UNL     1       1.718   9.389  17.893  0.00  0.00    +0.000 C 
ATOM      2  C   UNL     1       2.244   8.486  18.768  0.00  0.00    +0.000 C 
ATOM      3  C   UNL     1       1.367   8.304  20.008  0.00  0.00    +0.000 C 
ATOM      4  C   UNL     1       2.223   7.411  20.818  0.00  0.00    +0.000 C 
ATOM      5  N   UNL     1       2.504   6.427  19.841  0.00  0.00    +0.000 N 
ATOM      6  C   UNL     1       2.941   7.036  18.675  0.00  0.00    +0.000 A 
ATOM      7  N   UNL     1       3.643   6.271  17.887  0.00  0.00    +0.000 NA
ATOM      8  C   UNL     1       3.322   4.853  18.103  0.00  0.00    +0.000 A 
ATOM      9  C   UNL     1       4.082   3.666  18.172  0.00  0.00    +0.000 A 
ATOM     10  C   UNL     1       3.413   2.400  18.146  0.00  0.00    +0.000 A 
ATOM     11  C   UNL     1       2.027   2.311  17.953  0.00  0.00    +0.000 A 
ATOM     12  C   UNL     1       1.283   3.457  18.101  0.00  0.00    +0.000 A 
ATOM     13  C   UNL     1       1.979   4.625  18.373  0.00  0.00    +0.000 A 
ATOM     14  C   UNL     1       1.599   5.426  19.565  0.00  0.00    +0.000 A 
ATOM     15  O   UNL     1       0.576   5.209  20.181  0.00  0.00    +0.000 OA
ENDROOT
BRANCH   1  18
ATOM     16  C   UNL     1      -1.527  11.098  19.163  0.00  0.00    +0.000 A 
ATOM     17  C   UNL     1      -0.192  10.649  19.022  0.00  0.00    +0.000 A 
ATOM     18  C   UNL     1       0.225   9.824  17.964  0.00  0.00    +0.000 A 
ATOM     19  C   UNL     1      -0.777   9.486  17.022  0.00  0.00    +0.000 A 
ATOM     20  C   UNL     1      -2.151   9.869  17.172  0.00  0.00    +0.000 A 
ATOM     21  C   UNL     1      -2.522  10.653  18.275  0.00  0.00    +0.000 A 
BRANCH  16  23
ATOM     22  C   UNL     1      -0.923  11.744  21.399  0.00  0.00    +0.000 C 
ATOM     23  O   UNL     1      -1.716  11.951  20.228  0.00  0.00    +0.000 OA
ENDBRANCH  16  23
BRANCH  20  24
ATOM     24  O   UNL     1      -2.953   9.407  16.155  0.00  0.00    +0.000 OA
ATOM     25  C   UNL     1      -3.163  10.146  14.957  0.00  0.00    +0.000 C 
ENDBRANCH  20  24
BRANCH  21  26
ATOM     26  O   UNL     1      -3.815  10.978  18.582  0.00  0.00    +0.000 OA
ATOM     27  H   UNL     1      -4.030  11.861  18.267  0.00  0.00    +0.000 HD
ENDBRANCH  21  26
ENDBRANCH   1  18
TORSDOF 4
ENDMDL
MODEL 5
REMARK VINA RESULT:      -6.5      9.032     10.075
REMARK  Name = 
REMARK  6 active torsions:
REMARK  status: ('A' for Active; 'I' for Inactive)
REMARK    1  A    between atoms: C_1  and  O_2
REMARK    2  A    between atoms: O_2  and  C_3
REMARK    3  A    between atoms: C_5  and  C_6
REMARK    4  A    between atoms: C_22  and  O_23
REMARK    5  A    between atoms: O_23  and  C_24
REMARK    6  A    between atoms: C_25  and  O_26
REMARK                            x       y       z     vdW  Elec       q    Type
REMARK                         _______ _______ _______ _____ _____    ______ ____
ROOT
ATOM      1  C   UNL     1       5.065  14.648  18.098  0.00  0.00    +0.000 C 
ATOM      2  C   UNL     1       6.376  14.878  17.807  0.00  0.00    +0.000 C 
ATOM      3  C   UNL     1       6.902  16.151  18.473  0.00  0.00    +0.000 C 
ATOM      4  C   UNL     1       8.258  16.225  17.886  0.00  0.00    +0.000 C 
ATOM      5  N   UNL     1       8.687  14.903  18.153  0.00  0.00    +0.000 N 
ATOM      6  C   UNL     1       7.727  14.002  17.720  0.00  0.00    +0.000 A 
ATOM      7  N   UNL     1       8.169  12.798  17.490  0.00  0.00    +0.000 NA
ATOM      8  C   UNL     1       9.383  12.522  18.272  0.00  0.00    +0.000 A 
ATOM      9  C   UNL     1      10.606  11.871  18.004  0.00  0.00    +0.000 A 
ATOM     10  C   UNL     1      11.487  11.557  19.088  0.00  0.00    +0.000 A 
ATOM     11  C   UNL     1      11.118  11.792  20.420  0.00  0.00    +0.000 A 
ATOM     12  C   UNL     1      10.039  12.609  20.653  0.00  0.00    +0.000 A 
ATOM     13  C   UNL     1       9.364  13.087  19.540  0.00  0.00    +0.000 A 
ATOM     14  C   UNL     1       9.166  14.553  19.396  0.00  0.00    +0.000 A 
ATOM     15  O   UNL     1       9.385  15.320  20.311  0.00  0.00    +0.000 OA
ENDROOT
BRANCH   1  18
ATOM     16  C   UNL     1       3.727  15.286  21.684  0.00  0.00    +0.000 A 
ATOM     17  C   UNL     1       4.342  14.718  20.544  0.00  0.00    +0.000 A 
ATOM     18  C   UNL     1       4.355  15.353  19.291  0.00  0.00    +0.000 A 
ATOM     19  C   UNL     1       3.731  16.623  19.244  0.00  0.00    +0.000 A 
ATOM     20  C   UNL     1       3.041  17.195  20.363  0.00  0.00    +0.000 A 
ATOM     21  C   UNL     1       3.018  16.495  21.578  0.00  0.00    +0.000 A 
BRANCH  16  23
ATOM     22  C   UNL     1       5.132  14.623  23.520  0.00  0.00    +0.000 C 
ATOM     23  O   UNL     1       3.883  14.537  22.831  0.00  0.00    +0.000 OA
ENDBRANCH  16  23
BRANCH  20  24
ATOM     24  O   UNL     1       2.485  18.422  20.083  0.00  0.00    +0.000 OA
ATOM     25  C   UNL     1       1.214  18.555  19.457  0.00  0.00    +0.000 C 
ENDBRANCH  20  24
BRANCH  21  26
ATOM     26  O   UNL     1       2.296  16.887  22.673  0.00  0.00    +0.000 OA
ATOM     27  H   UNL     1       1.353  16.774  22.520  0.00  0.00    +0.000 HD
ENDBRANCH  21  26
ENDBRANCH   1  18
TORSDOF 4
ENDMDL
MODEL 6
REMARK VINA RESULT:      -6.5      8.695      9.543
REMARK  Name = 
REMARK  6 active torsions:
REMARK  status: ('A' for Active; 'I' for Inactive)
REMARK    1  A    between atoms: C_1  and  O_2
REMARK    2  A    between atoms: O_2  and  C_3
REMARK    3  A    between atoms: C_5  and  C_6
REMARK    4  A    between atoms: C_22  and  O_23
REMARK    5  A    between atoms: O_23  and  C_24
REMARK    6  A    between atoms: C_25  and  O_26
REMARK                            x       y       z     vdW  Elec       q    Type
REMARK                         _______ _______ _______ _____ _____    ______ ____
ROOT
ATOM      1  C   UNL     1       4.801  14.498  17.995  0.00  0.00    +0.000 C 
ATOM      2  C   UNL     1       6.114  14.803  17.792  0.00  0.00    +0.000 C 
ATOM      3  C   UNL     1       6.554  16.027  18.597  0.00  0.00    +0.000 C 
ATOM      4  C   UNL     1       7.932  16.205  18.088  0.00  0.00    +0.000 C 
ATOM      5  N   UNL     1       8.402  14.882  18.256  0.00  0.00    +0.000 N 
ATOM      6  C   UNL     1       7.502  13.989  17.696  0.00  0.00    +0.000 A 
ATOM      7  N   UNL     1       8.004  12.829  17.380  0.00  0.00    +0.000 NA
ATOM      8  C   UNL     1       9.190  12.527  18.194  0.00  0.00    +0.000 A 
ATOM      9  C   UNL     1      10.450  11.949  17.930  0.00  0.00    +0.000 A 
ATOM     10  C   UNL     1      11.292  11.569  19.025  0.00  0.00    +0.000 A 
ATOM     11  C   UNL     1      10.852  11.667  20.352  0.00  0.00    +0.000 A 
ATOM     12  C   UNL     1       9.730  12.418  20.604  0.00  0.00    +0.000 A 
ATOM     13  C   UNL     1       9.088  12.972  19.506  0.00  0.00    +0.000 A 
ATOM     14  C   UNL     1       8.837  14.436  19.484  0.00  0.00    +0.000 A 
ATOM     15  O   UNL     1       8.981  15.123  20.475  0.00  0.00    +0.000 OA
ENDROOT
BRANCH   1  18
ATOM     16  C   UNL     1       2.281  16.636  20.030  0.00  0.00    +0.000 A 
ATOM     17  C   UNL     1       3.052  16.069  18.988  0.00  0.00    +0.000 A 
ATOM     18  C   UNL     1       4.008  15.063  19.210  0.00  0.00    +0.000 A 
ATOM     19  C   UNL     1       4.136  14.628  20.551  0.00  0.00    +0.000 A 
ATOM     20  C   UNL     1       3.419  15.228  21.639  0.00  0.00    +0.000 A 
ATOM     21  C   UNL     1       2.511  16.263  21.366  0.00  0.00    +0.000 A 
BRANCH  16  23
ATOM     22  C   UNL     1       0.104  17.069  19.103  0.00  0.00    +0.000 C 
ATOM     23  O   UNL     1       1.353  17.558  19.596  0.00  0.00    +0.000 OA
ENDBRANCH  16  23
BRANCH  20  24
ATOM     24  O   UNL     1       3.720  14.667  22.858  0.00  0.00    +0.000 OA
ATOM     25  C   UNL     1       5.045  14.640  23.376  0.00  0.00    +0.000 C 
ENDBRANCH  20  24
BRANCH  21  26
ATOM     26  O   UNL     1       1.862  16.984  22.330  0.00  0.00    +0.000 OA
ATOM     27  H   UNL     1       1.663  16.434  23.094  0.00  0.00    +0.000 HD
ENDBRANCH  21  26
ENDBRANCH   1  18
TORSDOF 4
ENDMDL
MODEL 7
REMARK VINA RESULT:      -6.4      4.127      8.901
REMARK  Name = 
REMARK  6 active torsions:
REMARK  status: ('A' for Active; 'I' for Inactive)
REMARK    1  A    between atoms: C_1  and  O_2
REMARK    2  A    between atoms: O_2  and  C_3
REMARK    3  A    between atoms: C_5  and  C_6
REMARK    4  A    between atoms: C_22  and  O_23
REMARK    5  A    between atoms: O_23  and  C_24
REMARK    6  A    between atoms: C_25  and  O_26
REMARK                            x       y       z     vdW  Elec       q    Type
REMARK                         _______ _______ _______ _____ _____    ______ ____
ROOT
ATOM      1  C   UNL     1      -0.863  10.098  22.775  0.00  0.00    +0.000 C 
ATOM      2  C   UNL     1      -1.223  11.378  23.070  0.00  0.00    +0.000 C 
ATOM      3  C   UNL     1      -0.552  12.396  22.147  0.00  0.00    +0.000 C 
ATOM      4  C   UNL     1      -0.996  13.662  22.769  0.00  0.00    +0.000 C 
ATOM      5  N   UNL     1      -2.383  13.395  22.849  0.00  0.00    +0.000 N 
ATOM      6  C   UNL     1      -2.588  12.155  23.434  0.00  0.00    +0.000 A 
ATOM      7  N   UNL     1      -3.765  11.989  23.969  0.00  0.00    +0.000 NA
ATOM      8  C   UNL     1      -4.760  12.869  23.341  0.00  0.00    +0.000 A 
ATOM      9  C   UNL     1      -5.831  13.653  23.821  0.00  0.00    +0.000 A 
ATOM     10  C   UNL     1      -6.772  14.202  22.891  0.00  0.00    +0.000 A 
ATOM     11  C   UNL     1      -6.710  13.897  21.524  0.00  0.00    +0.000 A 
ATOM     12  C   UNL     1      -5.559  13.320  21.046  0.00  0.00    +0.000 A 
ATOM     13  C   UNL     1      -4.570  13.032  21.975  0.00  0.00    +0.000 A 
ATOM     14  C   UNL     1      -3.201  13.563  21.753  0.00  0.00    +0.000 A 
ATOM     15  O   UNL     1      -2.870  14.054  20.693  0.00  0.00    +0.000 OA
ENDROOT
BRANCH   1  18
ATOM     16  C   UNL     1       1.472   8.370  20.201  0.00  0.00    +0.000 A 
ATOM     17  C   UNL     1       0.825   8.774  21.393  0.00  0.00    +0.000 A 
ATOM     18  C   UNL     1      -0.208   9.725  21.412  0.00  0.00    +0.000 A 
ATOM     19  C   UNL     1      -0.585  10.243  20.149  0.00  0.00    +0.000 A 
ATOM     20  C   UNL     1       0.095   9.906  18.932  0.00  0.00    +0.000 A 
ATOM     21  C   UNL     1       1.154   8.986  18.978  0.00  0.00    +0.000 A 
BRANCH  16  23
ATOM     22  C   UNL     1       1.964   6.022  20.365  0.00  0.00    +0.000 C 
ATOM     23  O   UNL     1       2.411   7.379  20.388  0.00  0.00    +0.000 OA
ENDBRANCH  16  23
BRANCH  20  24
ATOM     24  O   UNL     1      -0.420  10.548  17.831  0.00  0.00    +0.000 OA
ATOM     25  C   UNL     1      -1.756  10.340  17.385  0.00  0.00    +0.000 C 
ENDBRANCH  20  24
BRANCH  21  26
ATOM     26  O   UNL     1       1.946   8.678  17.906  0.00  0.00    +0.000 OA
ATOM     27  H   UNL     1       2.261   7.771  17.961  0.00  0.00    +0.000 HD
ENDBRANCH  21  26
ENDBRANCH   1  18
TORSDOF 4
ENDMDL
MODEL 8
REMARK VINA RESULT:      -6.4      2.665      3.294
REMARK  Name = 
REMARK  6 active torsions:
REMARK  status: ('A' for Active; 'I' for Inactive)
REMARK    1  A    between atoms: C_1  and  O_2
REMARK    2  A    between atoms: O_2  and  C_3
REMARK    3  A    between atoms: C_5  and  C_6
REMARK    4  A    between atoms: C_22  and  O_23
REMARK    5  A    between atoms: O_23  and  C_24
REMARK    6  A    between atoms: C_25  and  O_26
REMARK                            x       y       z     vdW  Elec       q    Type
REMARK                         _______ _______ _______ _____ _____    ______ ____
ROOT
ATOM      1  C   UNL     1       0.948   8.702  17.648  0.00  0.00    +0.000 C 
ATOM      2  C   UNL     1       1.887   7.720  17.549  0.00  0.00    +0.000 C 
ATOM      3  C   UNL     1       3.174   8.070  18.298  0.00  0.00    +0.000 C 
ATOM      4  C   UNL     1       4.033   6.931  17.910  0.00  0.00    +0.000 C 
ATOM      5  N   UNL     1       3.149   5.871  18.220  0.00  0.00    +0.000 N 
ATOM      6  C   UNL     1       1.911   6.111  17.645  0.00  0.00    +0.000 A 
ATOM      7  N   UNL     1       1.175   5.050  17.466  0.00  0.00    +0.000 NA
ATOM      8  C   UNL     1       1.545   3.985  18.408  0.00  0.00    +0.000 A 
ATOM      9  C   UNL     1       1.701   2.585  18.309  0.00  0.00    +0.000 A 
ATOM     10  C   UNL     1       1.829   1.806  19.504  0.00  0.00    +0.000 A 
ATOM     11  C   UNL     1       1.703   2.389  20.772  0.00  0.00    +0.000 A 
ATOM     12  C   UNL     1       1.766   3.759  20.859  0.00  0.00    +0.000 A 
ATOM     13  C   UNL     1       1.891   4.457  19.668  0.00  0.00    +0.000 A 
ATOM     14  C   UNL     1       3.011   5.420  19.514  0.00  0.00    +0.000 A 
ATOM     15  O   UNL     1       3.687   5.769  20.460  0.00  0.00    +0.000 OA
ENDROOT
BRANCH   1  18
ATOM     16  C   UNL     1       1.475  12.190  19.267  0.00  0.00    +0.000 A 
ATOM     17  C   UNL     1       1.377  11.118  18.348  0.00  0.00    +0.000 A 
ATOM     18  C   UNL     1       1.037   9.812  18.737  0.00  0.00    +0.000 A 
ATOM     19  C   UNL     1       0.769   9.635  20.116  0.00  0.00    +0.000 A 
ATOM     20  C   UNL     1       0.925  10.684  21.082  0.00  0.00    +0.000 A 
ATOM     21  C   UNL     1       1.314  11.959  20.645  0.00  0.00    +0.000 A 
BRANCH  16  23
ATOM     22  C   UNL     1       3.106  13.665  18.293  0.00  0.00    +0.000 C 
ATOM     23  O   UNL     1       1.754  13.404  18.677  0.00  0.00    +0.000 OA
ENDBRANCH  16  23
BRANCH  20  24
ATOM     24  O   UNL     1       0.639  10.281  22.366  0.00  0.00    +0.000 OA
ATOM     25  C   UNL     1      -0.670  10.368  22.916  0.00  0.00    +0.000 C 
ENDBRANCH  20  24
BRANCH  21  26
ATOM     26  O   UNL     1       1.606  12.999  21.484  0.00  0.00    +0.000 OA
ATOM     27  H   UNL     1       1.154  12.895  22.328  0.00  0.00    +0.000 HD
ENDBRANCH  21  26
ENDBRANCH   1  18
TORSDOF 4
ENDMDL
MODEL 9
REMARK VINA RESULT:      -6.4      6.452      8.776
REMARK  Name = 
REMARK  6 active torsions:
REMARK  status: ('A' for Active; 'I' for Inactive)
REMARK    1  A    between atoms: C_1  and  O_2
REMARK    2  A    between atoms: O_2  and  C_3
REMARK    3  A    between atoms: C_5  and  C_6
REMARK    4  A    between atoms: C_22  and  O_23
REMARK    5  A    between atoms: O_23  and  C_24
REMARK    6  A    between atoms: C_25  and  O_26
REMARK                            x       y       z     vdW  Elec       q    Type
REMARK                         _______ _______ _______ _____ _____    ______ ____
ROOT
ATOM      1  C   UNL     1      -0.372  11.880  22.014  0.00  0.00    +0.000 C 
ATOM      2  C   UNL     1      -0.220  12.094  20.677  0.00  0.00    +0.000 C 
ATOM      3  C   UNL     1      -1.425  12.811  20.065  0.00  0.00    +0.000 C 
ATOM      4  C   UNL     1      -1.060  12.782  18.632  0.00  0.00    +0.000 C 
ATOM      5  N   UNL     1       0.256  13.292  18.728  0.00  0.00    +0.000 N 
ATOM      6  C   UNL     1       0.959  12.596  19.699  0.00  0.00    +0.000 A 
ATOM      7  N   UNL     1       2.255  12.645  19.578  0.00  0.00    +0.000 NA
ATOM      8  C   UNL     1       2.673  13.849  18.846  0.00  0.00    +0.000 A 
ATOM      9  C   UNL     1       3.640  14.118  17.853  0.00  0.00    +0.000 A 
ATOM     10  C   UNL     1       3.959  15.477  17.533  0.00  0.00    +0.000 A 
ATOM     11  C   UNL     1       3.405  16.546  18.252  0.00  0.00    +0.000 A 
ATOM     12  C   UNL     1       2.322  16.286  19.056  0.00  0.00    +0.000 A 
ATOM     13  C   UNL     1       1.902  14.967  19.134  0.00  0.00    +0.000 A 
ATOM     14  C   UNL     1       0.483  14.647  18.832  0.00  0.00    +0.000 A 
ATOM     15  O   UNL     1      -0.359  15.515  18.728  0.00  0.00    +0.000 OA
ENDROOT
BRANCH   1  18
ATOM     16  C   UNL     1      -2.055  14.754  24.007  0.00  0.00    +0.000 A 
ATOM     17  C   UNL     1      -1.151  13.973  23.249  0.00  0.00    +0.000 A 
ATOM     18  C   UNL     1      -1.431  12.655  22.852  0.00  0.00    +0.000 A 
ATOM     19  C   UNL     1      -2.699  12.158  23.238  0.00  0.00    +0.000 A 
ATOM     20  C   UNL     1      -3.610  12.898  24.062  0.00  0.00    +0.000 A 
ATOM     21  C   UNL     1      -3.258  14.194  24.471  0.00  0.00    +0.000 A 
BRANCH  16  23
ATOM     22  C   UNL     1      -0.734  16.262  25.334  0.00  0.00    +0.000 C 
ATOM     23  O   UNL     1      -1.621  16.042  24.235  0.00  0.00    +0.000 OA
ENDBRANCH  16  23
BRANCH  20  24
ATOM     24  O   UNL     1      -4.769  12.211  24.337  0.00  0.00    +0.000 OA
ATOM     25  C   UNL     1      -6.053  12.706  23.971  0.00  0.00    +0.000 C 
ENDBRANCH  20  24
BRANCH  21  26
ATOM     26  O   UNL     1      -3.992  14.944  25.348  0.00  0.00    +0.000 OA
ATOM     27  H   UNL     1      -3.477  15.157  26.133  0.00  0.00    +0.000 HD
ENDBRANCH  21  26
ENDBRANCH   1  18
TORSDOF 4
ENDMDL
