MODEL 1
REMARK VINA RESULT:      -8.1      0.000      0.000
REMARK  Name = 
REMARK  7 active torsions:
REMARK  status: ('A' for Active; 'I' for Inactive)
REMARK    1  A    between atoms: C_1  and  O_2
REMARK    2  A    between atoms: O_2  and  C_3
REMARK    3  A    between atoms: C_6  and  C_7
REMARK    4  A    between atoms: C_14  and  O_15
REMARK    5  A    between atoms: O_15  and  C_16
REMARK    6  A    between atoms: C_20  and  C_22
REMARK    7  A    between atoms: C_32  and  C_33
REMARK                            x       y       z     vdW  Elec       q    Type
REMARK                         _______ _______ _______ _____ _____    ______ ____
ROOT
ATOM      1  C   UNL     1       2.824   6.627  18.088  0.00  0.00    +0.000 A 
ATOM      2  C   UNL     1       2.274   5.343  18.034  0.00  0.00    +0.000 A 
ATOM      3  C   UNL     1       2.983   4.274  17.447  0.00  0.00    +0.000 A 
ATOM      4  C   UNL     1       4.242   4.447  16.873  0.00  0.00    +0.000 A 
ATOM      5  N   UNL     1       4.911   3.433  16.302  0.00  0.00    +0.000 NA
ATOM      6  C   UNL     1       6.115   3.719  15.766  0.00  0.00    +0.000 A 
ATOM      7  N   UNL     1       6.721   4.918  15.726  0.00  0.00    +0.000 NA
ATOM      8  C   UNL     1       6.025   5.895  16.317  0.00  0.00    +0.000 A 
ATOM      9  C   UNL     1       4.786   5.724  16.924  0.00  0.00    +0.000 A 
ATOM     10  C   UNL     1       4.101   6.783  17.545  0.00  0.00    +0.000 A 
ENDROOT
BRANCH   1  14
ATOM     11  C   UNL     1       0.934  10.097  19.631  0.00  0.00    +0.000 A 
ATOM     12  N   UNL     1       1.161  10.004  18.306  0.00  0.00    +0.000 NA
ATOM     13  C   UNL     1       1.737   8.868  17.862  0.00  0.00    +0.000 A 
ATOM     14  C   UNL     1       2.142   7.795  18.664  0.00  0.00    +0.000 A 
ATOM     15  C   UNL     1       1.885   7.930  20.030  0.00  0.00    +0.000 A 
ATOM     16  C   UNL     1       1.266   9.087  20.522  0.00  0.00    +0.000 A 
BRANCH  11  18
ATOM     17  C   UNL     1       0.320  12.302  19.153  0.00  0.00    +0.000 C 
ATOM     18  O   UNL     1       0.320  11.237  20.107  0.00  0.00    +0.000 OA
ENDBRANCH  11  18
BRANCH  16  19
ATOM     19  C   UNL     1       0.980   9.188  21.910  0.00  0.00    +0.000 C 
ATOM     20  N   UNL     1       0.762   9.332  23.045  0.00  0.00    +0.000 NA
ENDBRANCH  16  19
ENDBRANCH   1  14
BRANCH   8  21
ATOM     21  O   UNL     1       6.577   7.146  16.479  0.00  0.00    +0.000 OA
BRANCH  21  22
ATOM     22  C   UNL     1       6.861   7.626  17.784  0.00  0.00    +0.000 C 
ATOM     23  C   UNL     1       8.272   7.216  18.240  0.00  0.00    +0.000 C 
ATOM     24  C   UNL     1       8.785   8.437  18.989  0.00  0.00    +0.000 C 
ATOM     25  N   UNL     1       8.268   9.529  18.195  0.00  0.00    +0.000 N 
ATOM     26  C   UNL     1       8.794  10.778  17.955  0.00  0.00    +0.000 C 
ATOM     27  O   UNL     1       8.186  11.584  17.249  0.00  0.00    +0.000 OA
ATOM     28  C   UNL     1       6.972   9.159  17.644  0.00  0.00    +0.000 C 
BRANCH  26  29
ATOM     29  C   UNL     1      10.170  11.122  18.539  0.00  0.00    +0.000 C 
ATOM     30  C   UNL     1      10.011  11.680  19.967  0.00  0.00    +0.000 C 
ATOM     31  C   UNL     1      11.286  12.319  20.493  0.00  0.00    +0.000 C 
ATOM     32  O   UNL     1      11.784  13.290  19.577  0.00  0.00    +0.000 OA
ATOM     33  C   UNL     1      12.132  12.703  18.328  0.00  0.00    +0.000 C 
ATOM     34  C   UNL     1      10.898  12.134  17.641  0.00  0.00    +0.000 C 
ENDBRANCH  26  29
ENDBRANCH  21  22
ENDBRANCH   8  21
TORSDOF 6
ENDMDL
MODEL 2
REMARK VINA RESULT:      -7.9      4.659      8.887
REMARK  Name = 
REMARK  7 active torsions:
REMARK  status: ('A' for Active; 'I' for Inactive)
REMARK    1  A    between atoms: C_1  and  O_2
REMARK    2  A    between atoms: O_2  and  C_3
REMARK    3  A    between atoms: C_6  and  C_7
REMARK    4  A    between atoms: C_14  and  O_15
REMARK    5  A    between atoms: O_15  and  C_16
REMARK    6  A    between atoms: C_20  and  C_22
REMARK    7  A    between atoms: C_32  and  C_33
REMARK                            x       y       z     vdW  Elec       q    Type
REMARK                         _______ _______ _______ _____ _____    ______ ____
ROOT
ATOM      1  C   UNL     1       4.901   3.901  17.485  0.00  0.00    +0.000 A 
ATOM      2  C   UNL     1       5.184   2.807  18.308  0.00  0.00    +0.000 A 
ATOM      3  C   UNL     1       4.449   2.578  19.489  0.00  0.00    +0.000 A 
ATOM      4  C   UNL     1       3.431   3.436  19.907  0.00  0.00    +0.000 A 
ATOM      5  N   UNL     1       2.741   3.226  21.038  0.00  0.00    +0.000 NA
ATOM      6  C   UNL     1       1.789   4.129  21.351  0.00  0.00    +0.000 A 
ATOM      7  N   UNL     1       1.461   5.233  20.659  0.00  0.00    +0.000 NA
ATOM      8  C   UNL     1       2.164   5.396  19.534  0.00  0.00    +0.000 A 
ATOM      9  C   UNL     1       3.154   4.526  19.091  0.00  0.00    +0.000 A 
ATOM     10  C   UNL     1       3.857   4.734  17.891  0.00  0.00    +0.000 A 
ENDROOT
BRANCH   1  14
ATOM     11  C   UNL     1       7.030   4.982  13.980  0.00  0.00    +0.000 A 
ATOM     12  N   UNL     1       7.350   5.566  15.151  0.00  0.00    +0.000 NA
ATOM     13  C   UNL     1       6.664   5.165  16.241  0.00  0.00    +0.000 A 
ATOM     14  C   UNL     1       5.633   4.219  16.251  0.00  0.00    +0.000 A 
ATOM     15  C   UNL     1       5.336   3.636  15.018  0.00  0.00    +0.000 A 
ATOM     16  C   UNL     1       6.046   4.010  13.869  0.00  0.00    +0.000 A 
BRANCH  11  18
ATOM     17  C   UNL     1       9.010   5.921  13.166  0.00  0.00    +0.000 C 
ATOM     18  O   UNL     1       7.736   5.354  12.854  0.00  0.00    +0.000 OA
ENDBRANCH  11  18
BRANCH  16  19
ATOM     19  C   UNL     1       5.752   3.379  12.631  0.00  0.00    +0.000 C 
ATOM     20  N   UNL     1       5.494   2.916  11.594  0.00  0.00    +0.000 NA
ENDBRANCH  16  19
ENDBRANCH   1  14
BRANCH   8  21
ATOM     21  O   UNL     1       1.847   6.403  18.651  0.00  0.00    +0.000 OA
BRANCH  21  22
ATOM     22  C   UNL     1       2.332   7.717  18.879  0.00  0.00    +0.000 C 
ATOM     23  C   UNL     1       1.874   8.686  17.775  0.00  0.00    +0.000 C 
ATOM     24  C   UNL     1       1.560   9.973  18.523  0.00  0.00    +0.000 C 
ATOM     25  N   UNL     1       0.953   9.484  19.741  0.00  0.00    +0.000 N 
ATOM     26  C   UNL     1      -0.030  10.042  20.529  0.00  0.00    +0.000 C 
ATOM     27  O   UNL     1      -0.410   9.466  21.550  0.00  0.00    +0.000 OA
ATOM     28  C   UNL     1       1.576   8.225  20.125  0.00  0.00    +0.000 C 
BRANCH  26  29
ATOM     29  C   UNL     1      -0.672  11.360  20.080  0.00  0.00    +0.000 C 
ATOM     30  C   UNL     1      -1.162  12.151  21.308  0.00  0.00    +0.000 C 
ATOM     31  C   UNL     1      -2.070  13.312  20.936  0.00  0.00    +0.000 C 
ATOM     32  O   UNL     1      -3.140  12.874  20.103  0.00  0.00    +0.000 OA
ATOM     33  C   UNL     1      -2.664  12.344  18.871  0.00  0.00    +0.000 C 
ATOM     34  C   UNL     1      -1.835  11.089  19.113  0.00  0.00    +0.000 C 
ENDBRANCH  26  29
ENDBRANCH  21  22
ENDBRANCH   8  21
TORSDOF 6
ENDMDL
MODEL 3
REMARK VINA RESULT:      -7.8      3.127      6.774
REMARK  Name = 
REMARK  7 active torsions:
REMARK  status: ('A' for Active; 'I' for Inactive)
REMARK    1  A    between atoms: C_1  and  O_2
REMARK    2  A    between atoms: O_2  and  C_3
REMARK    3  A    between atoms: C_6  and  C_7
REMARK    4  A    between atoms: C_14  and  O_15
REMARK    5  A    between atoms: O_15  and  C_16
REMARK    6  A    between atoms: C_20  and  C_22
REMARK    7  A    between atoms: C_32  and  C_33
REMARK                            x       y       z     vdW  Elec       q    Type
REMARK                         _______ _______ _______ _____ _____    ______ ____
ROOT
ATOM      1  C   UNL     1       0.919  11.052  18.953  0.00  0.00    +0.000 A 
ATOM      2  C   UNL     1      -0.438  11.390  18.977  0.00  0.00    +0.000 A 
ATOM      3  C   UNL     1      -0.853  12.732  18.852  0.00  0.00    +0.000 A 
ATOM      4  C   UNL     1       0.058  13.781  18.727  0.00  0.00    +0.000 A 
ATOM      5  N   UNL     1      -0.337  15.059  18.623  0.00  0.00    +0.000 NA
ATOM      6  C   UNL     1       0.632  15.992  18.522  0.00  0.00    +0.000 A 
ATOM      7  N   UNL     1       1.959  15.787  18.528  0.00  0.00    +0.000 NA
ATOM      8  C   UNL     1       2.307  14.499  18.621  0.00  0.00    +0.000 A 
ATOM      9  C   UNL     1       1.405  13.444  18.708  0.00  0.00    +0.000 A 
ATOM     10  C   UNL     1       1.822  12.104  18.791  0.00  0.00    +0.000 A 
ENDROOT
BRANCH   1  14
ATOM     11  C   UNL     1       2.404   7.122  19.540  0.00  0.00    +0.000 A 
ATOM     12  N   UNL     1       1.569   7.654  20.454  0.00  0.00    +0.000 NA
ATOM     13  C   UNL     1       1.101   8.895  20.205  0.00  0.00    +0.000 A 
ATOM     14  C   UNL     1       1.432   9.682  19.097  0.00  0.00    +0.000 A 
ATOM     15  C   UNL     1       2.296   9.092  18.173  0.00  0.00    +0.000 A 
ATOM     16  C   UNL     1       2.783   7.795  18.387  0.00  0.00    +0.000 A 
BRANCH  11  18
ATOM     17  C   UNL     1       1.829   4.915  20.052  0.00  0.00    +0.000 C 
ATOM     18  O   UNL     1       2.875   5.843  19.757  0.00  0.00    +0.000 OA
ENDBRANCH  11  18
BRANCH  16  19
ATOM     19  C   UNL     1       3.632   7.199  17.417  0.00  0.00    +0.000 C 
ATOM     20  N   UNL     1       4.359   6.683  16.668  0.00  0.00    +0.000 NA
ENDBRANCH  16  19
ENDBRANCH   1  14
BRANCH   8  21
ATOM     21  O   UNL     1       3.625  14.121  18.501  0.00  0.00    +0.000 OA
BRANCH  21  22
ATOM     22  C   UNL     1       4.652  15.084  18.678  0.00  0.00    +0.000 C 
ATOM     23  C   UNL     1       5.200  15.065  20.116  0.00  0.00    +0.000 C 
ATOM     24  C   UNL     1       6.696  15.276  19.941  0.00  0.00    +0.000 C 
ATOM     25  N   UNL     1       6.982  14.506  18.751  0.00  0.00    +0.000 N 
ATOM     26  C   UNL     1       8.117  13.814  18.393  0.00  0.00    +0.000 C 
ATOM     27  O   UNL     1       8.170  13.221  17.314  0.00  0.00    +0.000 OA
ATOM     28  C   UNL     1       5.845  14.573  17.844  0.00  0.00    +0.000 C 
BRANCH  26  29
ATOM     29  C   UNL     1       9.286  13.754  19.385  0.00  0.00    +0.000 C 
ATOM     30  C   UNL     1      10.620  13.947  18.638  0.00  0.00    +0.000 C 
ATOM     31  C   UNL     1      11.828  13.602  19.495  0.00  0.00    +0.000 C 
ATOM     32  O   UNL     1      11.698  12.300  20.057  0.00  0.00    +0.000 OA
ATOM     33  C   UNL     1      10.571  12.212  20.922  0.00  0.00    +0.000 C 
ATOM     34  C   UNL     1       9.279  12.418  20.143  0.00  0.00    +0.000 C 
ENDBRANCH  26  29
ENDBRANCH  21  22
ENDBRANCH   8  21
TORSDOF 6
ENDMDL
MODEL 4
REMARK VINA RESULT:      -7.8      6.224     10.642
REMARK  Name = 
REMARK  7 active torsions:
REMARK  status: ('A' for Active; 'I' for Inactive)
REMARK    1  A    between atoms: C_1  and  O_2
REMARK    2  A    between atoms: O_2  and  C_3
REMARK    3  A    between atoms: C_6  and  C_7
REMARK    4  A    between atoms: C_14  and  O_15
REMARK    5  A    between atoms: O_15  and  C_16
REMARK    6  A    between atoms: C_20  and  C_22
REMARK    7  A    between atoms: C_32  and  C_33
REMARK                            x       y       z     vdW  Elec       q    Type
REMARK                         _______ _______ _______ _____ _____    ______ ____
ROOT
ATOM      1  C   UNL     1      -0.970  11.104  22.602  0.00  0.00    +0.000 A 
ATOM      2  C   UNL     1      -0.775   9.929  23.335  0.00  0.00    +0.000 A 
ATOM      3  C   UNL     1      -0.001   8.871  22.817  0.00  0.00    +0.000 A 
ATOM      4  C   UNL     1       0.581   8.930  21.550  0.00  0.00    +0.000 A 
ATOM      5  N   UNL     1       1.305   7.917  21.051  0.00  0.00    +0.000 NA
ATOM      6  C   UNL     1       1.808   8.078  19.810  0.00  0.00    +0.000 A 
ATOM      7  N   UNL     1       1.652   9.141  19.003  0.00  0.00    +0.000 NA
ATOM      8  C   UNL     1       0.934  10.130  19.545  0.00  0.00    +0.000 A 
ATOM      9  C   UNL     1       0.382  10.095  20.821  0.00  0.00    +0.000 A 
ATOM     10  C   UNL     1      -0.354  11.170  21.351  0.00  0.00    +0.000 A 
ENDROOT
BRANCH   1  14
ATOM     11  C   UNL     1      -3.164  14.444  24.024  0.00  0.00    +0.000 A 
ATOM     12  N   UNL     1      -1.847  14.579  23.775  0.00  0.00    +0.000 NA
ATOM     13  C   UNL     1      -1.201  13.496  23.295  0.00  0.00    +0.000 A 
ATOM     14  C   UNL     1      -1.778  12.242  23.064  0.00  0.00    +0.000 A 
ATOM     15  C   UNL     1      -3.144  12.147  23.332  0.00  0.00    +0.000 A 
ATOM     16  C   UNL     1      -3.852  13.259  23.808  0.00  0.00    +0.000 A 
BRANCH  11  18
ATOM     17  C   UNL     1      -3.447  16.759  23.852  0.00  0.00    +0.000 C 
ATOM     18  O   UNL     1      -3.853  15.546  24.489  0.00  0.00    +0.000 OA
ENDBRANCH  11  18
BRANCH  16  19
ATOM     19  C   UNL     1      -5.249  13.151  24.041  0.00  0.00    +0.000 C 
ATOM     20  N   UNL     1      -6.387  12.999  24.234  0.00  0.00    +0.000 NA
ENDBRANCH  16  19
ENDBRANCH   1  14
BRANCH   8  21
ATOM     21  O   UNL     1       0.806  11.337  18.896  0.00  0.00    +0.000 OA
BRANCH  21  22
ATOM     22  C   UNL     1      -0.242  11.522  17.958  0.00  0.00    +0.000 C 
ATOM     23  C   UNL     1      -1.124  10.267  17.844  0.00  0.00    +0.000 C 
ATOM     24  C   UNL     1      -2.535  10.820  17.708  0.00  0.00    +0.000 C 
ATOM     25  N   UNL     1      -2.514  11.950  18.610  0.00  0.00    +0.000 N 
ATOM     26  C   UNL     1      -3.521  12.491  19.378  0.00  0.00    +0.000 C 
ATOM     27  O   UNL     1      -3.303  13.477  20.084  0.00  0.00    +0.000 OA
ATOM     28  C   UNL     1      -1.190  12.557  18.599  0.00  0.00    +0.000 C 
BRANCH  26  29
ATOM     29  C   UNL     1      -4.896  11.810  19.375  0.00  0.00    +0.000 C 
ATOM     30  C   UNL     1      -5.682  12.219  18.114  0.00  0.00    +0.000 C 
ATOM     31  C   UNL     1      -7.150  11.832  18.186  0.00  0.00    +0.000 C 
ATOM     32  O   UNL     1      -7.746  12.318  19.385  0.00  0.00    +0.000 OA
ATOM     33  C   UNL     1      -7.139  11.752  20.541  0.00  0.00    +0.000 C 
ATOM     34  C   UNL     1      -5.680  12.178  20.643  0.00  0.00    +0.000 C 
ENDBRANCH  26  29
ENDBRANCH  21  22
ENDBRANCH   8  21
TORSDOF 6
ENDMDL
MODEL 5
REMARK VINA RESULT:      -7.8      3.014      6.726
REMARK  Name = 
REMARK  7 active torsions:
REMARK  status: ('A' for Active; 'I' for Inactive)
REMARK    1  A    between atoms: C_1  and  O_2
REMARK    2  A    between atoms: O_2  and  C_3
REMARK    3  A    between atoms: C_6  and  C_7
REMARK    4  A    between atoms: C_14  and  O_15
REMARK    5  A    between atoms: O_15  and  C_16
REMARK    6  A    between atoms: C_20  and  C_22
REMARK    7  A    between atoms: C_32  and  C_33
REMARK                            x       y       z     vdW  Elec       q    Type
REMARK                         _______ _______ _______ _____ _____    ______ ____
ROOT
ATOM      1  C   UNL     1       1.171   9.955  18.570  0.00  0.00    +0.000 A 
ATOM      2  C   UNL     1      -0.222   9.996  18.455  0.00  0.00    +0.000 A 
ATOM      3  C   UNL     1      -0.915  11.224  18.461  0.00  0.00    +0.000 A 
ATOM      4  C   UNL     1      -0.258  12.445  18.608  0.00  0.00    +0.000 A 
ATOM      5  N   UNL     1      -0.918  13.612  18.628  0.00  0.00    +0.000 NA
ATOM      6  C   UNL     1      -0.181  14.730  18.790  0.00  0.00    +0.000 A 
ATOM      7  N   UNL     1       1.151  14.807  18.949  0.00  0.00    +0.000 NA
ATOM      8  C   UNL     1       1.769  13.623  18.911  0.00  0.00    +0.000 A 
ATOM      9  C   UNL     1       1.126  12.403  18.727  0.00  0.00    +0.000 A 
ATOM     10  C   UNL     1       1.825  11.184  18.680  0.00  0.00    +0.000 A 
ENDROOT
BRANCH   1  14
ATOM     11  C   UNL     1       3.464   6.395  18.807  0.00  0.00    +0.000 A 
ATOM     12  N   UNL     1       2.573   6.670  19.779  0.00  0.00    +0.000 NA
ATOM     13  C   UNL     1       1.847   7.799  19.641  0.00  0.00    +0.000 A 
ATOM     14  C   UNL     1       1.964   8.718  18.592  0.00  0.00    +0.000 A 
ATOM     15  C   UNL     1       2.896   8.393  17.606  0.00  0.00    +0.000 A 
ATOM     16  C   UNL     1       3.650   7.215  17.704  0.00  0.00    +0.000 A 
BRANCH  11  18
ATOM     17  C   UNL     1       3.401   4.108  19.293  0.00  0.00    +0.000 C 
ATOM     18  O   UNL     1       4.199   5.231  18.910  0.00  0.00    +0.000 OA
ENDBRANCH  11  18
BRANCH  16  19
ATOM     19  C   UNL     1       4.567   6.885  16.671  0.00  0.00    +0.000 C 
ATOM     20  N   UNL     1       5.296   6.556  15.825  0.00  0.00    +0.000 NA
ENDBRANCH  16  19
ENDBRANCH   1  14
BRANCH   8  21
ATOM     21  O   UNL     1       3.144  13.552  18.920  0.00  0.00    +0.000 OA
BRANCH  21  22
ATOM     22  C   UNL     1       3.910  14.743  18.829  0.00  0.00    +0.000 C 
ATOM     23  C   UNL     1       4.561  15.098  20.177  0.00  0.00    +0.000 C 
ATOM     24  C   UNL     1       5.939  15.618  19.794  0.00  0.00    +0.000 C 
ATOM     25  N   UNL     1       6.308  14.743  18.703  0.00  0.00    +0.000 N 
ATOM     26  C   UNL     1       7.547  14.283  18.316  0.00  0.00    +0.000 C 
ATOM     27  O   UNL     1       7.657  13.543  17.337  0.00  0.00    +0.000 OA
ATOM     28  C   UNL     1       5.120  14.387  17.940  0.00  0.00    +0.000 C 
BRANCH  26  29
ATOM     29  C   UNL     1       8.771  14.667  19.157  0.00  0.00    +0.000 C 
ATOM     30  C   UNL     1       9.999  14.852  18.245  0.00  0.00    +0.000 C 
ATOM     31  C   UNL     1      11.302  14.934  19.024  0.00  0.00    +0.000 C 
ATOM     32  O   UNL     1      11.438  13.826  19.907  0.00  0.00    +0.000 OA
ATOM     33  C   UNL     1      10.403  13.803  20.884  0.00  0.00    +0.000 C 
ATOM     34  C   UNL     1       9.047  13.596  20.224  0.00  0.00    +0.000 C 
ENDBRANCH  26  29
ENDBRANCH  21  22
ENDBRANCH   8  21
TORSDOF 6
ENDMDL
MODEL 6
REMARK VINA RESULT:      -7.8      0.987      1.747
REMARK  Name = 
REMARK  7 active torsions:
REMARK  status: ('A' for Active; 'I' for Inactive)
REMARK    1  A    between atoms: C_1  and  O_2
REMARK    2  A    between atoms: O_2  and  C_3
REMARK    3  A    between atoms: C_6  and  C_7
REMARK    4  A    between atoms: C_14  and  O_15
REMARK    5  A    between atoms: O_15  and  C_16
REMARK    6  A    between atoms: C_20  and  C_22
REMARK    7  A    between atoms: C_32  and  C_33
REMARK                            x       y       z     vdW  Elec       q    Type
REMARK                         _______ _______ _______ _____ _____    ______ ____
ROOT
ATOM      1  C   UNL     1       3.284   5.866  18.107  0.00  0.00    +0.000 A 
ATOM      2  C   UNL     1       2.931   4.528  17.903  0.00  0.00    +0.000 A 
ATOM      3  C   UNL     1       3.708   3.691  17.077  0.00  0.00    +0.000 A 
ATOM      4  C   UNL     1       4.841   4.154  16.409  0.00  0.00    +0.000 A 
ATOM      5  N   UNL     1       5.573   3.361  15.612  0.00  0.00    +0.000 NA
ATOM      6  C   UNL     1       6.640   3.921  15.004  0.00  0.00    +0.000 A 
ATOM      7  N   UNL     1       7.048   5.198  15.096  0.00  0.00    +0.000 NA
ATOM      8  C   UNL     1       6.297   5.948  15.909  0.00  0.00    +0.000 A 
ATOM      9  C   UNL     1       5.188   5.485  16.609  0.00  0.00    +0.000 A 
ATOM     10  C   UNL     1       4.439   6.312  17.464  0.00  0.00    +0.000 A 
ENDROOT
BRANCH   1  14
ATOM     11  C   UNL     1       0.973   8.445  20.557  0.00  0.00    +0.000 A 
ATOM     12  N   UNL     1       1.253   7.201  20.990  0.00  0.00    +0.000 NA
ATOM     13  C   UNL     1       2.017   6.431  20.188  0.00  0.00    +0.000 A 
ATOM     14  C   UNL     1       2.515   6.806  18.935  0.00  0.00    +0.000 A 
ATOM     15  C   UNL     1       2.205   8.104  18.525  0.00  0.00    +0.000 A 
ATOM     16  C   UNL     1       1.434   8.940  19.345  0.00  0.00    +0.000 A 
BRANCH  11  18
ATOM     17  C   UNL     1       0.800   9.442  22.664  0.00  0.00    +0.000 C 
ATOM     18  O   UNL     1       0.217   9.263  21.372  0.00  0.00    +0.000 OA
ENDBRANCH  11  18
BRANCH  16  19
ATOM     19  C   UNL     1       1.160  10.269  18.925  0.00  0.00    +0.000 C 
ATOM     20  N   UNL     1       0.993  11.361  18.556  0.00  0.00    +0.000 NA
ENDBRANCH  16  19
ENDBRANCH   1  14
BRANCH   8  21
ATOM     21  O   UNL     1       6.670   7.238  16.212  0.00  0.00    +0.000 OA
BRANCH  21  22
ATOM     22  C   UNL     1       6.864   7.613  17.567  0.00  0.00    +0.000 C 
ATOM     23  C   UNL     1       8.232   7.142  18.092  0.00  0.00    +0.000 C 
ATOM     24  C   UNL     1       8.706   8.294  18.967  0.00  0.00    +0.000 C 
ATOM     25  N   UNL     1       8.263   9.452  18.223  0.00  0.00    +0.000 N 
ATOM     26  C   UNL     1       8.824  10.705  18.117  0.00  0.00    +0.000 C 
ATOM     27  O   UNL     1       8.280  11.574  17.432  0.00  0.00    +0.000 OA
ATOM     28  C   UNL     1       7.006   9.149  17.553  0.00  0.00    +0.000 C 
BRANCH  26  29
ATOM     29  C   UNL     1      10.157  10.977  18.824  0.00  0.00    +0.000 C 
ATOM     30  C   UNL     1       9.907  11.715  20.153  0.00  0.00    +0.000 C 
ATOM     31  C   UNL     1      11.181  12.283  20.759  0.00  0.00    +0.000 C 
ATOM     32  O   UNL     1      11.883  13.082  19.812  0.00  0.00    +0.000 OA
ATOM     33  C   UNL     1      12.297  12.318  18.685  0.00  0.00    +0.000 C 
ATOM     34  C   UNL     1      11.089  11.797  17.918  0.00  0.00    +0.000 C 
ENDBRANCH  26  29
ENDBRANCH  21  22
ENDBRANCH   8  21
TORSDOF 6
ENDMDL
MODEL 7
REMARK VINA RESULT:      -7.8      4.548      8.954
REMARK  Name = 
REMARK  7 active torsions:
REMARK  status: ('A' for Active; 'I' for Inactive)
REMARK    1  A    between atoms: C_1  and  O_2
REMARK    2  A    between atoms: O_2  and  C_3
REMARK    3  A    between atoms: C_6  and  C_7
REMARK    4  A    between atoms: C_14  and  O_15
REMARK    5  A    between atoms: O_15  and  C_16
REMARK    6  A    between atoms: C_20  and  C_22
REMARK    7  A    between atoms: C_32  and  C_33
REMARK                            x       y       z     vdW  Elec       q    Type
REMARK                         _______ _______ _______ _____ _____    ______ ____
ROOT
ATOM      1  C   UNL     1       4.414   4.876  17.081  0.00  0.00    +0.000 A 
ATOM      2  C   UNL     1       3.998   3.774  17.835  0.00  0.00    +0.000 A 
ATOM      3  C   UNL     1       3.123   3.931  18.929  0.00  0.00    +0.000 A 
ATOM      4  C   UNL     1       2.653   5.183  19.327  0.00  0.00    +0.000 A 
ATOM      5  N   UNL     1       1.832   5.334  20.377  0.00  0.00    +0.000 NA
ATOM      6  C   UNL     1       1.452   6.593  20.681  0.00  0.00    +0.000 A 
ATOM      7  N   UNL     1       1.820   7.724  20.055  0.00  0.00    +0.000 NA
ATOM      8  C   UNL     1       2.628   7.525  19.009  0.00  0.00    +0.000 A 
ATOM      9  C   UNL     1       3.071   6.278  18.581  0.00  0.00    +0.000 A 
ATOM     10  C   UNL     1       3.910   6.120  17.464  0.00  0.00    +0.000 A 
ENDROOT
BRANCH   1  14
ATOM     11  C   UNL     1       7.133   4.811  13.826  0.00  0.00    +0.000 A 
ATOM     12  N   UNL     1       7.452   5.501  14.937  0.00  0.00    +0.000 NA
ATOM     13  C   UNL     1       6.568   5.465  15.956  0.00  0.00    +0.000 A 
ATOM     14  C   UNL     1       5.339   4.797  15.941  0.00  0.00    +0.000 A 
ATOM     15  C   UNL     1       5.048   4.091  14.773  0.00  0.00    +0.000 A 
ATOM     16  C   UNL     1       5.955   4.087  13.704  0.00  0.00    +0.000 A 
BRANCH  11  18
ATOM     17  C   UNL     1       8.271   6.117  12.256  0.00  0.00    +0.000 C 
ATOM     18  O   UNL     1       8.033   4.808  12.780  0.00  0.00    +0.000 OA
ENDBRANCH  11  18
BRANCH  16  19
ATOM     19  C   UNL     1       5.656   3.333  12.538  0.00  0.00    +0.000 C 
ATOM     20  N   UNL     1       5.397   2.666  11.620  0.00  0.00    +0.000 NA
ENDBRANCH  16  19
ENDBRANCH   1  14
BRANCH   8  21
ATOM     21  O   UNL     1       2.976   8.571  18.186  0.00  0.00    +0.000 OA
BRANCH  21  22
ATOM     22  C   UNL     1       1.981   9.485  17.751  0.00  0.00    +0.000 C 
ATOM     23  C   UNL     1       0.566   8.908  17.940  0.00  0.00    +0.000 C 
ATOM     24  C   UNL     1      -0.258  10.101  18.402  0.00  0.00    +0.000 C 
ATOM     25  N   UNL     1       0.664  10.797  19.272  0.00  0.00    +0.000 N 
ATOM     26  C   UNL     1       0.422  11.548  20.401  0.00  0.00    +0.000 C 
ATOM     27  O   UNL     1       1.356  12.079  21.006  0.00  0.00    +0.000 OA
ATOM     28  C   UNL     1       2.020  10.649  18.763  0.00  0.00    +0.000 C 
BRANCH  26  29
ATOM     29  C   UNL     1      -1.018  11.665  20.913  0.00  0.00    +0.000 C 
ATOM     30  C   UNL     1      -1.677  12.938  20.347  0.00  0.00    +0.000 C 
ATOM     31  C   UNL     1      -2.986  13.280  21.040  0.00  0.00    +0.000 C 
ATOM     32  O   UNL     1      -2.815  13.333  22.453  0.00  0.00    +0.000 OA
ATOM     33  C   UNL     1      -2.414  12.074  22.982  0.00  0.00    +0.000 C 
ATOM     34  C   UNL     1      -1.043  11.681  22.449  0.00  0.00    +0.000 C 
ENDBRANCH  26  29
ENDBRANCH  21  22
ENDBRANCH   8  21
TORSDOF 6
ENDMDL
MODEL 8
REMARK VINA RESULT:      -7.7      4.416      8.023
REMARK  Name = 
REMARK  7 active torsions:
REMARK  status: ('A' for Active; 'I' for Inactive)
REMARK    1  A    between atoms: C_1  and  O_2
REMARK    2  A    between atoms: O_2  and  C_3
REMARK    3  A    between atoms: C_6  and  C_7
REMARK    4  A    between atoms: C_14  and  O_15
REMARK    5  A    between atoms: O_15  and  C_16
REMARK    6  A    between atoms: C_20  and  C_22
REMARK    7  A    between atoms: C_32  and  C_33
REMARK                            x       y       z     vdW  Elec       q    Type
REMARK                         _______ _______ _______ _____ _____    ______ ____
ROOT
ATOM      1  C   UNL     1       4.621   4.453  17.231  0.00  0.00    +0.000 A 
ATOM      2  C   UNL     1       4.440   3.277  17.966  0.00  0.00    +0.000 A 
ATOM      3  C   UNL     1       3.635   3.262  19.124  0.00  0.00    +0.000 A 
ATOM      4  C   UNL     1       3.007   4.410  19.605  0.00  0.00    +0.000 A 
ATOM      5  N   UNL     1       2.253   4.399  20.714  0.00  0.00    +0.000 NA
ATOM      6  C   UNL     1       1.706   5.572  21.095  0.00  0.00    +0.000 A 
ATOM      7  N   UNL     1       1.844   6.765  20.491  0.00  0.00    +0.000 NA
ATOM      8  C   UNL     1       2.593   6.727  19.384  0.00  0.00    +0.000 A 
ATOM      9  C   UNL     1       3.192   5.579  18.876  0.00  0.00    +0.000 A 
ATOM     10  C   UNL     1       3.959   5.589  17.698  0.00  0.00    +0.000 A 
ENDROOT
BRANCH   1  14
ATOM     11  C   UNL     1       7.069   4.913  13.798  0.00  0.00    +0.000 A 
ATOM     12  N   UNL     1       7.381   5.583  14.924  0.00  0.00    +0.000 NA
ATOM     13  C   UNL     1       6.589   5.379  15.997  0.00  0.00    +0.000 A 
ATOM     14  C   UNL     1       5.458   4.555  16.027  0.00  0.00    +0.000 A 
ATOM     15  C   UNL     1       5.173   3.877  14.841  0.00  0.00    +0.000 A 
ATOM     16  C   UNL     1       5.989   4.046  13.714  0.00  0.00    +0.000 A 
BRANCH  11  18
ATOM     17  C   UNL     1       8.916   6.042  12.916  0.00  0.00    +0.000 C 
ATOM     18  O   UNL     1       7.880   5.083  12.694  0.00  0.00    +0.000 OA
ENDBRANCH  11  18
BRANCH  16  19
ATOM     19  C   UNL     1       5.701   3.319  12.529  0.00  0.00    +0.000 C 
ATOM     20  N   UNL     1       5.437   2.680  11.592  0.00  0.00    +0.000 NA
ENDBRANCH  16  19
ENDBRANCH   1  14
BRANCH   8  21
ATOM     21  O   UNL     1       2.711   7.839  18.582  0.00  0.00    +0.000 OA
BRANCH  21  22
ATOM     22  C   UNL     1       1.570   8.642  18.322  0.00  0.00    +0.000 C 
ATOM     23  C   UNL     1       0.879   9.078  19.626  0.00  0.00    +0.000 C 
ATOM     24  C   UNL     1       0.452  10.513  19.354  0.00  0.00    +0.000 C 
ATOM     25  N   UNL     1       1.567  11.029  18.591  0.00  0.00    +0.000 N 
ATOM     26  C   UNL     1       2.092  12.301  18.538  0.00  0.00    +0.000 C 
ATOM     27  O   UNL     1       3.052  12.547  17.805  0.00  0.00    +0.000 OA
ATOM     28  C   UNL     1       2.120   9.969  17.759  0.00  0.00    +0.000 C 
BRANCH  26  29
ATOM     29  C   UNL     1       1.493  13.383  19.443  0.00  0.00    +0.000 C 
ATOM     30  C   UNL     1       0.363  14.124  18.701  0.00  0.00    +0.000 C 
ATOM     31  C   UNL     1      -0.072  15.395  19.412  0.00  0.00    +0.000 C 
ATOM     32  O   UNL     1       1.046  16.234  19.684  0.00  0.00    +0.000 OA
ATOM     33  C   UNL     1       1.977  15.602  20.555  0.00  0.00    +0.000 C 
ATOM     34  C   UNL     1       2.580  14.371  19.894  0.00  0.00    +0.000 C 
ENDBRANCH  26  29
ENDBRANCH  21  22
ENDBRANCH   8  21
TORSDOF 6
ENDMDL
MODEL 9
REMARK VINA RESULT:      -7.7      4.740      8.756
REMARK  Name = 
REMARK  7 active torsions:
REMARK  status: ('A' for Active; 'I' for Inactive)
REMARK    1  A    between atoms: C_1  and  O_2
REMARK    2  A    between atoms: O_2  and  C_3
REMARK    3  A    between atoms: C_6  and  C_7
REMARK    4  A    between atoms: C_14  and  O_15
REMARK    5  A    between atoms: O_15  and  C_16
REMARK    6  A    between atoms: C_20  and  C_22
REMARK    7  A    between atoms: C_32  and  C_33
REMARK                            x       y       z     vdW  Elec       q    Type
REMARK                         _______ _______ _______ _____ _____    ______ ____
ROOT
ATOM      1  C   UNL     1       4.893   4.326  17.290  0.00  0.00    +0.000 A 
ATOM      2  C   UNL     1       5.154   3.342  18.248  0.00  0.00    +0.000 A 
ATOM      3  C   UNL     1       4.417   3.285  19.449  0.00  0.00    +0.000 A 
ATOM      4  C   UNL     1       3.420   4.211  19.751  0.00  0.00    +0.000 A 
ATOM      5  N   UNL     1       2.728   4.165  20.899  0.00  0.00    +0.000 NA
ATOM      6  C   UNL     1       1.796   5.122  21.092  0.00  0.00    +0.000 A 
ATOM      7  N   UNL     1       1.490   6.133  20.262  0.00  0.00    +0.000 NA
ATOM      8  C   UNL     1       2.194   6.133  19.126  0.00  0.00    +0.000 A 
ATOM      9  C   UNL     1       3.164   5.191  18.800  0.00  0.00    +0.000 A 
ATOM     10  C   UNL     1       3.868   5.227  17.583  0.00  0.00    +0.000 A 
ENDROOT
BRANCH   1  14
ATOM     11  C   UNL     1       7.047   4.892  13.680  0.00  0.00    +0.000 A 
ATOM     12  N   UNL     1       7.433   5.554  14.788  0.00  0.00    +0.000 NA
ATOM     13  C   UNL     1       6.734   5.316  15.917  0.00  0.00    +0.000 A 
ATOM     14  C   UNL     1       5.629   4.464  16.025  0.00  0.00    +0.000 A 
ATOM     15  C   UNL     1       5.265   3.796  14.855  0.00  0.00    +0.000 A 
ATOM     16  C   UNL     1       5.984   4.000  13.669  0.00  0.00    +0.000 A 
BRANCH  11  18
ATOM     17  C   UNL     1       8.837   6.024  12.690  0.00  0.00    +0.000 C 
ATOM     18  O   UNL     1       7.763   5.096  12.518  0.00  0.00    +0.000 OA
ENDBRANCH  11  18
BRANCH  16  19
ATOM     19  C   UNL     1       5.619   3.283  12.499  0.00  0.00    +0.000 C 
ATOM     20  N   UNL     1       5.368   2.655  11.551  0.00  0.00    +0.000 NA
ENDBRANCH  16  19
ENDBRANCH   1  14
BRANCH   8  21
ATOM     21  O   UNL     1       1.896   7.023  18.119  0.00  0.00    +0.000 OA
BRANCH  21  22
ATOM     22  C   UNL     1       2.127   8.410  18.316  0.00  0.00    +0.000 C 
ATOM     23  C   UNL     1       0.947   9.255  17.803  0.00  0.00    +0.000 C 
ATOM     24  C   UNL     1       0.813  10.363  18.837  0.00  0.00    +0.000 C 
ATOM     25  N   UNL     1       1.082   9.667  20.076  0.00  0.00    +0.000 N 
ATOM     26  C   UNL     1       0.586   9.885  21.341  0.00  0.00    +0.000 C 
ATOM     27  O   UNL     1       0.953   9.180  22.283  0.00  0.00    +0.000 OA
ATOM     28  C   UNL     1       2.071   8.624  19.843  0.00  0.00    +0.000 C 
BRANCH  26  29
ATOM     29  C   UNL     1      -0.467  10.982  21.540  0.00  0.00    +0.000 C 
ATOM     30  C   UNL     1       0.193  12.370  21.435  0.00  0.00    +0.000 C 
ATOM     31  C   UNL     1      -0.715  13.491  21.916  0.00  0.00    +0.000 C 
ATOM     32  O   UNL     1      -1.212  13.218  23.223  0.00  0.00    +0.000 OA
ATOM     33  C   UNL     1      -2.007  12.038  23.246  0.00  0.00    +0.000 C 
ATOM     34  C   UNL     1      -1.165  10.817  22.899  0.00  0.00    +0.000 C 
ENDBRANCH  26  29
ENDBRANCH  21  22
ENDBRANCH   8  21
TORSDOF 6
ENDMDL
