MODEL 1
REMARK VINA RESULT:      -8.0      0.000      0.000
REMARK  Name = 
REMARK  6 active torsions:
REMARK  status: ('A' for Active; 'I' for Inactive)
REMARK    1  A    between atoms: C_1  and  O_2
REMARK    2  A    between atoms: O_2  and  C_3
REMARK    3  A    between atoms: C_3  and  C_5
REMARK    4  A    between atoms: C_8  and  C_9
REMARK    5  A    between atoms: C_12  and  C_13
REMARK    6  A    between atoms: C_18  and  C_19
REMARK                            x       y       z     vdW  Elec       q    Type
REMARK                         _______ _______ _______ _____ _____    ______ ____
ROOT
ATOM      1  C   UNL     1       2.934   6.258  18.816  0.00  0.00    +0.000 A 
ATOM      2  N   UNL     1       2.485   5.447  19.751  0.00  0.00    +0.000 NA
ATOM      3  N   UNL     1       1.726   6.208  20.595  0.00  0.00    +0.000 NA
ATOM      4  C   UNL     1       1.743   7.443  20.132  0.00  0.00    +0.000 A 
ATOM      5  O   UNL     1       2.504   7.552  18.987  0.00  0.00    +0.000 OA
ENDROOT
BRANCH   4   6
ATOM      6  C   UNL     1       1.112   8.647  20.680  0.00  0.00    +0.000 A 
ATOM      7  C   UNL     1       0.916   8.779  22.067  0.00  0.00    +0.000 A 
ATOM      8  C   UNL     1       0.254   9.888  22.604  0.00  0.00    +0.000 A 
ATOM      9  C   UNL     1      -0.210  10.896  21.768  0.00  0.00    +0.000 A 
ATOM     10  C   UNL     1      -0.000  10.807  20.394  0.00  0.00    +0.000 A 
ATOM     11  C   UNL     1       0.657   9.695  19.837  0.00  0.00    +0.000 A 
ATOM     12  C   UNL     1       0.840   9.661  18.339  0.00  0.00    +0.000 C 
ENDBRANCH   4   6
BRANCH   1  16
ATOM     13  C   UNL     1       5.648   5.193  15.675  0.00  0.00    +0.000 A 
ATOM     14  C   UNL     1       4.949   4.218  16.391  0.00  0.00    +0.000 A 
ATOM     15  C   UNL     1       4.043   4.588  17.388  0.00  0.00    +0.000 A 
ATOM     16  C   UNL     1       3.825   5.940  17.707  0.00  0.00    +0.000 A 
ATOM     17  C   UNL     1       4.513   6.915  16.973  0.00  0.00    +0.000 A 
ATOM     18  C   UNL     1       5.423   6.546  15.969  0.00  0.00    +0.000 A 
BRANCH  13  19
ATOM     19  C   UNL     1       6.593   4.737  14.620  0.00  0.00    +0.000 C 
ATOM     20  O   UNL     1       7.642   5.314  14.369  0.00  0.00    +0.000 OA
BRANCH  19  22
ATOM     21  C   UNL     1       6.340   3.622  12.587  0.00  0.00    +0.000 C 
ATOM     22  O   UNL     1       6.142   3.615  14.004  0.00  0.00    +0.000 OA
ENDBRANCH  19  22
ENDBRANCH  13  19
ENDBRANCH   1  16
TORSDOF 4
ENDMDL
MODEL 2
REMARK VINA RESULT:      -8.0      0.275      1.059
REMARK  Name = 
REMARK  6 active torsions:
REMARK  status: ('A' for Active; 'I' for Inactive)
REMARK    1  A    between atoms: C_1  and  O_2
REMARK    2  A    between atoms: O_2  and  C_3
REMARK    3  A    between atoms: C_3  and  C_5
REMARK    4  A    between atoms: C_8  and  C_9
REMARK    5  A    between atoms: C_12  and  C_13
REMARK    6  A    between atoms: C_18  and  C_19
REMARK                            x       y       z     vdW  Elec       q    Type
REMARK                         _______ _______ _______ _____ _____    ______ ____
ROOT
ATOM      1  C   UNL     1       3.063   6.051  18.912  0.00  0.00    +0.000 A 
ATOM      2  N   UNL     1       2.551   5.312  19.875  0.00  0.00    +0.000 NA
ATOM      3  N   UNL     1       1.777   6.144  20.634  0.00  0.00    +0.000 NA
ATOM      4  C   UNL     1       1.848   7.347  20.096  0.00  0.00    +0.000 A 
ATOM      5  O   UNL     1       2.661   7.363  18.982  0.00  0.00    +0.000 OA
ENDROOT
BRANCH   4   6
ATOM      6  C   UNL     1       1.227   8.599  20.538  0.00  0.00    +0.000 A 
ATOM      7  C   UNL     1       0.971   8.822  21.903  0.00  0.00    +0.000 A 
ATOM      8  C   UNL     1       0.317   9.978  22.339  0.00  0.00    +0.000 A 
ATOM      9  C   UNL     1      -0.079  10.944  21.421  0.00  0.00    +0.000 A 
ATOM     10  C   UNL     1       0.193  10.764  20.067  0.00  0.00    +0.000 A 
ATOM     11  C   UNL     1       0.843   9.603  19.611  0.00  0.00    +0.000 A 
ATOM     12  C   UNL     1       1.096   9.472  18.129  0.00  0.00    +0.000 C 
ENDBRANCH   4   6
BRANCH   1  16
ATOM     13  C   UNL     1       5.725   4.992  15.725  0.00  0.00    +0.000 A 
ATOM     14  C   UNL     1       5.646   6.304  16.198  0.00  0.00    +0.000 A 
ATOM     15  C   UNL     1       4.796   6.622  17.260  0.00  0.00    +0.000 A 
ATOM     16  C   UNL     1       3.992   5.641  17.867  0.00  0.00    +0.000 A 
ATOM     17  C   UNL     1       4.089   4.322  17.402  0.00  0.00    +0.000 A 
ATOM     18  C   UNL     1       4.943   4.000  16.335  0.00  0.00    +0.000 A 
BRANCH  13  19
ATOM     19  C   UNL     1       6.653   4.715  14.596  0.00  0.00    +0.000 C 
ATOM     20  O   UNL     1       7.598   5.440  14.316  0.00  0.00    +0.000 OA
BRANCH  19  22
ATOM     21  C   UNL     1       6.406   3.674  12.524  0.00  0.00    +0.000 C 
ATOM     22  O   UNL     1       6.317   3.572  13.948  0.00  0.00    +0.000 OA
ENDBRANCH  19  22
ENDBRANCH  13  19
ENDBRANCH   1  16
TORSDOF 4
ENDMDL
MODEL 3
REMARK VINA RESULT:      -7.6      0.646      1.885
REMARK  Name = 
REMARK  6 active torsions:
REMARK  status: ('A' for Active; 'I' for Inactive)
REMARK    1  A    between atoms: C_1  and  O_2
REMARK    2  A    between atoms: O_2  and  C_3
REMARK    3  A    between atoms: C_3  and  C_5
REMARK    4  A    between atoms: C_8  and  C_9
REMARK    5  A    between atoms: C_12  and  C_13
REMARK    6  A    between atoms: C_18  and  C_19
REMARK                            x       y       z     vdW  Elec       q    Type
REMARK                         _______ _______ _______ _____ _____    ______ ____
ROOT
ATOM      1  C   UNL     1       2.950   6.645  18.715  0.00  0.00    +0.000 A 
ATOM      2  N   UNL     1       2.545   6.094  19.841  0.00  0.00    +0.000 NA
ATOM      3  N   UNL     1       1.724   7.004  20.446  0.00  0.00    +0.000 NA
ATOM      4  C   UNL     1       1.662   8.062  19.660  0.00  0.00    +0.000 A 
ATOM      5  O   UNL     1       2.429   7.903  18.525  0.00  0.00    +0.000 OA
ENDROOT
BRANCH   4   6
ATOM      6  C   UNL     1       0.943   9.323  19.858  0.00  0.00    +0.000 A 
ATOM      7  C   UNL     1       0.440  10.036  18.754  0.00  0.00    +0.000 A 
ATOM      8  C   UNL     1      -0.188  11.274  18.915  0.00  0.00    +0.000 A 
ATOM      9  C   UNL     1      -0.343  11.819  20.185  0.00  0.00    +0.000 A 
ATOM     10  C   UNL     1       0.115  11.119  21.298  0.00  0.00    +0.000 A 
ATOM     11  C   UNL     1       0.756   9.875  21.153  0.00  0.00    +0.000 A 
ATOM     12  C   UNL     1       1.235   9.178  22.403  0.00  0.00    +0.000 C 
ENDBRANCH   4   6
BRANCH   1  16
ATOM     13  C   UNL     1       5.597   5.158  15.691  0.00  0.00    +0.000 A 
ATOM     14  C   UNL     1       5.502   6.525  15.964  0.00  0.00    +0.000 A 
ATOM     15  C   UNL     1       4.659   6.987  16.977  0.00  0.00    +0.000 A 
ATOM     16  C   UNL     1       3.875   6.096  17.732  0.00  0.00    +0.000 A 
ATOM     17  C   UNL     1       3.987   4.724  17.468  0.00  0.00    +0.000 A 
ATOM     18  C   UNL     1       4.835   4.258  16.451  0.00  0.00    +0.000 A 
BRANCH  13  19
ATOM     19  C   UNL     1       6.518   4.729  14.605  0.00  0.00    +0.000 C 
ATOM     20  O   UNL     1       7.561   5.313  14.345  0.00  0.00    +0.000 OA
BRANCH  19  22
ATOM     21  C   UNL     1       6.360   3.594  12.574  0.00  0.00    +0.000 C 
ATOM     22  O   UNL     1       6.054   3.623  13.971  0.00  0.00    +0.000 OA
ENDBRANCH  19  22
ENDBRANCH  13  19
ENDBRANCH   1  16
TORSDOF 4
ENDMDL
MODEL 4
REMARK VINA RESULT:      -7.6      3.262      4.084
REMARK  Name = 
REMARK  6 active torsions:
REMARK  status: ('A' for Active; 'I' for Inactive)
REMARK    1  A    between atoms: C_1  and  O_2
REMARK    2  A    between atoms: O_2  and  C_3
REMARK    3  A    between atoms: C_3  and  C_5
REMARK    4  A    between atoms: C_8  and  C_9
REMARK    5  A    between atoms: C_12  and  C_13
REMARK    6  A    between atoms: C_18  and  C_19
REMARK                            x       y       z     vdW  Elec       q    Type
REMARK                         _______ _______ _______ _____ _____    ______ ____
ROOT
ATOM      1  C   UNL     1       2.232   8.148  18.456  0.00  0.00    +0.000 A 
ATOM      2  N   UNL     1       2.626   8.935  17.476  0.00  0.00    +0.000 NA
ATOM      3  N   UNL     1       1.873  10.072  17.562  0.00  0.00    +0.000 NA
ATOM      4  C   UNL     1       1.060   9.928  18.591  0.00  0.00    +0.000 A 
ATOM      5  O   UNL     1       1.234   8.711  19.216  0.00  0.00    +0.000 OA
ENDROOT
BRANCH   4   6
ATOM      6  C   UNL     1       0.033  10.844  19.097  0.00  0.00    +0.000 A 
ATOM      7  C   UNL     1       0.316  11.705  20.172  0.00  0.00    +0.000 A 
ATOM      8  C   UNL     1      -0.669  12.536  20.715  0.00  0.00    +0.000 A 
ATOM      9  C   UNL     1      -1.953  12.536  20.181  0.00  0.00    +0.000 A 
ATOM     10  C   UNL     1      -2.251  11.718  19.095  0.00  0.00    +0.000 A 
ATOM     11  C   UNL     1      -1.273  10.871  18.542  0.00  0.00    +0.000 A 
ATOM     12  C   UNL     1      -1.671  10.005  17.372  0.00  0.00    +0.000 C 
ENDBRANCH   4   6
BRANCH   1  16
ATOM     13  C   UNL     1       3.522   4.129  19.193  0.00  0.00    +0.000 A 
ATOM     14  C   UNL     1       3.836   4.784  17.999  0.00  0.00    +0.000 A 
ATOM     15  C   UNL     1       3.434   6.106  17.793  0.00  0.00    +0.000 A 
ATOM     16  C   UNL     1       2.696   6.802  18.766  0.00  0.00    +0.000 A 
ATOM     17  C   UNL     1       2.401   6.148  19.970  0.00  0.00    +0.000 A 
ATOM     18  C   UNL     1       2.804   4.820  20.180  0.00  0.00    +0.000 A 
BRANCH  13  19
ATOM     19  C   UNL     1       3.984   2.724  19.356  0.00  0.00    +0.000 C 
ATOM     20  O   UNL     1       4.863   2.397  20.142  0.00  0.00    +0.000 OA
BRANCH  19  22
ATOM     21  C   UNL     1       1.916   1.761  18.873  0.00  0.00    +0.000 C 
ATOM     22  O   UNL     1       3.302   1.882  18.540  0.00  0.00    +0.000 OA
ENDBRANCH  19  22
ENDBRANCH  13  19
ENDBRANCH   1  16
TORSDOF 4
ENDMDL
MODEL 5
REMARK VINA RESULT:      -7.5      2.055      8.362
REMARK  Name = 
REMARK  6 active torsions:
REMARK  status: ('A' for Active; 'I' for Inactive)
REMARK    1  A    between atoms: C_1  and  O_2
REMARK    2  A    between atoms: O_2  and  C_3
REMARK    3  A    between atoms: C_3  and  C_5
REMARK    4  A    between atoms: C_8  and  C_9
REMARK    5  A    between atoms: C_12  and  C_13
REMARK    6  A    between atoms: C_18  and  C_19
REMARK                            x       y       z     vdW  Elec       q    Type
REMARK                         _______ _______ _______ _____ _____    ______ ____
ROOT
ATOM      1  C   UNL     1       3.017   6.492  19.280  0.00  0.00    +0.000 A 
ATOM      2  N   UNL     1       3.275   5.341  19.866  0.00  0.00    +0.000 NA
ATOM      3  N   UNL     1       4.146   4.674  19.051  0.00  0.00    +0.000 NA
ATOM      4  C   UNL     1       4.382   5.450  18.010  0.00  0.00    +0.000 A 
ATOM      5  O   UNL     1       3.686   6.639  18.088  0.00  0.00    +0.000 OA
ENDROOT
BRANCH   4   6
ATOM      6  C   UNL     1       5.220   5.196  16.835  0.00  0.00    +0.000 A 
ATOM      7  C   UNL     1       4.698   4.511  15.723  0.00  0.00    +0.000 A 
ATOM      8  C   UNL     1       5.500   4.198  14.622  0.00  0.00    +0.000 A 
ATOM      9  C   UNL     1       6.836   4.579  14.601  0.00  0.00    +0.000 A 
ATOM     10  C   UNL     1       7.371   5.287  15.674  0.00  0.00    +0.000 A 
ATOM     11  C   UNL     1       6.579   5.604  16.793  0.00  0.00    +0.000 A 
ATOM     12  C   UNL     1       7.229   6.365  17.923  0.00  0.00    +0.000 C 
ENDBRANCH   4   6
BRANCH   1  16
ATOM     13  C   UNL     1       0.487   9.713  20.539  0.00  0.00    +0.000 A 
ATOM     14  C   UNL     1       1.046   9.688  19.259  0.00  0.00    +0.000 A 
ATOM     15  C   UNL     1       1.841   8.612  18.856  0.00  0.00    +0.000 A 
ATOM     16  C   UNL     1       2.110   7.541  19.727  0.00  0.00    +0.000 A 
ATOM     17  C   UNL     1       1.531   7.561  21.003  0.00  0.00    +0.000 A 
ATOM     18  C   UNL     1       0.732   8.640  21.410  0.00  0.00    +0.000 A 
BRANCH  13  19
ATOM     19  C   UNL     1      -0.356  10.883  20.906  0.00  0.00    +0.000 C 
ATOM     20  O   UNL     1      -1.195  11.363  20.156  0.00  0.00    +0.000 OA
BRANCH  19  22
ATOM     21  C   UNL     1      -1.084  12.177  22.705  0.00  0.00    +0.000 C 
ATOM     22  O   UNL     1      -0.076  11.319  22.160  0.00  0.00    +0.000 OA
ENDBRANCH  19  22
ENDBRANCH  13  19
ENDBRANCH   1  16
TORSDOF 4
ENDMDL
MODEL 6
REMARK VINA RESULT:      -7.5      2.221      8.382
REMARK  Name = 
REMARK  6 active torsions:
REMARK  status: ('A' for Active; 'I' for Inactive)
REMARK    1  A    between atoms: C_1  and  O_2
REMARK    2  A    between atoms: O_2  and  C_3
REMARK    3  A    between atoms: C_3  and  C_5
REMARK    4  A    between atoms: C_8  and  C_9
REMARK    5  A    between atoms: C_12  and  C_13
REMARK    6  A    between atoms: C_18  and  C_19
REMARK                            x       y       z     vdW  Elec       q    Type
REMARK                         _______ _______ _______ _____ _____    ______ ____
ROOT
ATOM      1  C   UNL     1       2.488   6.798  19.179  0.00  0.00    +0.000 A 
ATOM      2  N   UNL     1       2.175   5.563  19.514  0.00  0.00    +0.000 NA
ATOM      3  N   UNL     1       3.060   4.747  18.868  0.00  0.00    +0.000 NA
ATOM      4  C   UNL     1       3.874   5.521  18.175  0.00  0.00    +0.000 A 
ATOM      5  O   UNL     1       3.565   6.857  18.327  0.00  0.00    +0.000 OA
ENDROOT
BRANCH   4   6
ATOM      6  C   UNL     1       4.981   5.146  17.290  0.00  0.00    +0.000 A 
ATOM      7  C   UNL     1       4.731   4.779  15.955  0.00  0.00    +0.000 A 
ATOM      8  C   UNL     1       5.764   4.352  15.115  0.00  0.00    +0.000 A 
ATOM      9  C   UNL     1       7.070   4.300  15.586  0.00  0.00    +0.000 A 
ATOM     10  C   UNL     1       7.351   4.690  16.893  0.00  0.00    +0.000 A 
ATOM     11  C   UNL     1       6.322   5.115  17.754  0.00  0.00    +0.000 A 
ATOM     12  C   UNL     1       6.699   5.513  19.160  0.00  0.00    +0.000 C 
ENDBRANCH   4   6
BRANCH   1  16
ATOM     13  C   UNL     1       0.365  10.310  20.411  0.00  0.00    +0.000 A 
ATOM     14  C   UNL     1       0.644   9.278  21.311  0.00  0.00    +0.000 A 
ATOM     15  C   UNL     1       1.367   8.157  20.898  0.00  0.00    +0.000 A 
ATOM     16  C   UNL     1       1.816   8.030  19.571  0.00  0.00    +0.000 A 
ATOM     17  C   UNL     1       1.551   9.076  18.677  0.00  0.00    +0.000 A 
ATOM     18  C   UNL     1       0.826  10.205  19.090  0.00  0.00    +0.000 A 
BRANCH  13  19
ATOM     19  C   UNL     1      -0.403  11.481  20.913  0.00  0.00    +0.000 C 
ATOM     20  O   UNL     1      -1.163  12.133  20.209  0.00  0.00    +0.000 OA
BRANCH  19  22
ATOM     21  C   UNL     1      -1.325  12.034  22.982  0.00  0.00    +0.000 C 
ATOM     22  O   UNL     1      -0.154  11.708  22.227  0.00  0.00    +0.000 OA
ENDBRANCH  19  22
ENDBRANCH  13  19
ENDBRANCH   1  16
TORSDOF 4
ENDMDL
MODEL 7
REMARK VINA RESULT:      -7.5      2.051      8.189
REMARK  Name = 
REMARK  6 active torsions:
REMARK  status: ('A' for Active; 'I' for Inactive)
REMARK    1  A    between atoms: C_1  and  O_2
REMARK    2  A    between atoms: O_2  and  C_3
REMARK    3  A    between atoms: C_3  and  C_5
REMARK    4  A    between atoms: C_8  and  C_9
REMARK    5  A    between atoms: C_12  and  C_13
REMARK    6  A    between atoms: C_18  and  C_19
REMARK                            x       y       z     vdW  Elec       q    Type
REMARK                         _______ _______ _______ _____ _____    ______ ____
ROOT
ATOM      1  C   UNL     1       3.094   6.580  19.063  0.00  0.00    +0.000 A 
ATOM      2  N   UNL     1       3.419   5.495  19.734  0.00  0.00    +0.000 NA
ATOM      3  N   UNL     1       4.307   4.807  18.956  0.00  0.00    +0.000 NA
ATOM      4  C   UNL     1       4.486   5.506  17.851  0.00  0.00    +0.000 A 
ATOM      5  O   UNL     1       3.734   6.662  17.849  0.00  0.00    +0.000 OA
ENDROOT
BRANCH   4   6
ATOM      6  C   UNL     1       5.315   5.198  16.683  0.00  0.00    +0.000 A 
ATOM      7  C   UNL     1       4.802   4.413  15.634  0.00  0.00    +0.000 A 
ATOM      8  C   UNL     1       5.598   4.050  14.543  0.00  0.00    +0.000 A 
ATOM      9  C   UNL     1       6.918   4.479  14.469  0.00  0.00    +0.000 A 
ATOM     10  C   UNL     1       7.441   5.285  15.477  0.00  0.00    +0.000 A 
ATOM     11  C   UNL     1       6.656   5.653  16.585  0.00  0.00    +0.000 A 
ATOM     12  C   UNL     1       7.293   6.520  17.644  0.00  0.00    +0.000 C 
ENDBRANCH   4   6
BRANCH   1  16
ATOM     13  C   UNL     1       0.431   9.768  20.118  0.00  0.00    +0.000 A 
ATOM     14  C   UNL     1       0.986   9.679  18.839  0.00  0.00    +0.000 A 
ATOM     15  C   UNL     1       1.825   8.614  18.504  0.00  0.00    +0.000 A 
ATOM     16  C   UNL     1       2.144   7.618  19.444  0.00  0.00    +0.000 A 
ATOM     17  C   UNL     1       1.570   7.699  20.720  0.00  0.00    +0.000 A 
ATOM     18  C   UNL     1       0.726   8.768  21.058  0.00  0.00    +0.000 A 
BRANCH  13  19
ATOM     19  C   UNL     1      -0.460  10.922  20.411  0.00  0.00    +0.000 C 
ATOM     20  O   UNL     1      -0.413  11.553  21.458  0.00  0.00    +0.000 OA
BRANCH  19  22
ATOM     21  C   UNL     1      -1.359  12.555  19.010  0.00  0.00    +0.000 C 
ATOM     22  O   UNL     1      -1.300  11.173  19.375  0.00  0.00    +0.000 OA
ENDBRANCH  19  22
ENDBRANCH  13  19
ENDBRANCH   1  16
TORSDOF 4
ENDMDL
MODEL 8
REMARK VINA RESULT:      -7.4      2.283      8.255
REMARK  Name = 
REMARK  6 active torsions:
REMARK  status: ('A' for Active; 'I' for Inactive)
REMARK    1  A    between atoms: C_1  and  O_2
REMARK    2  A    between atoms: O_2  and  C_3
REMARK    3  A    between atoms: C_3  and  C_5
REMARK    4  A    between atoms: C_8  and  C_9
REMARK    5  A    between atoms: C_12  and  C_13
REMARK    6  A    between atoms: C_18  and  C_19
REMARK                            x       y       z     vdW  Elec       q    Type
REMARK                         _______ _______ _______ _____ _____    ______ ____
ROOT
ATOM      1  C   UNL     1       2.608   6.698  19.498  0.00  0.00    +0.000 A 
ATOM      2  N   UNL     1       2.520   5.516  20.073  0.00  0.00    +0.000 NA
ATOM      3  N   UNL     1       3.429   4.709  19.447  0.00  0.00    +0.000 NA
ATOM      4  C   UNL     1       4.032   5.437  18.527  0.00  0.00    +0.000 A 
ATOM      5  O   UNL     1       3.553   6.731  18.500  0.00  0.00    +0.000 OA
ENDROOT
BRANCH   4   6
ATOM      6  C   UNL     1       5.065   5.045  17.565  0.00  0.00    +0.000 A 
ATOM      7  C   UNL     1       4.708   4.595  16.281  0.00  0.00    +0.000 A 
ATOM      8  C   UNL     1       5.673   4.151  15.373  0.00  0.00    +0.000 A 
ATOM      9  C   UNL     1       7.019   4.164  15.722  0.00  0.00    +0.000 A 
ATOM     10  C   UNL     1       7.403   4.636  16.974  0.00  0.00    +0.000 A 
ATOM     11  C   UNL     1       6.444   5.080  17.903  0.00  0.00    +0.000 A 
ATOM     12  C   UNL     1       6.933   5.568  19.244  0.00  0.00    +0.000 C 
ENDBRANCH   4   6
BRANCH   1  16
ATOM     13  C   UNL     1       0.138  10.085  20.387  0.00  0.00    +0.000 A 
ATOM     14  C   UNL     1       0.414   9.114  21.354  0.00  0.00    +0.000 A 
ATOM     15  C   UNL     1       1.249   8.036  21.054  0.00  0.00    +0.000 A 
ATOM     16  C   UNL     1       1.817   7.890  19.776  0.00  0.00    +0.000 A 
ATOM     17  C   UNL     1       1.554   8.876  18.815  0.00  0.00    +0.000 A 
ATOM     18  C   UNL     1       0.716   9.961  19.114  0.00  0.00    +0.000 A 
BRANCH  13  19
ATOM     19  C   UNL     1      -0.753  11.213  20.770  0.00  0.00    +0.000 C 
ATOM     20  O   UNL     1      -0.956  11.539  21.932  0.00  0.00    +0.000 OA
BRANCH  19  22
ATOM     21  C   UNL     1      -1.143  13.241  19.687  0.00  0.00    +0.000 C 
ATOM     22  O   UNL     1      -1.282  11.817  19.677  0.00  0.00    +0.000 OA
ENDBRANCH  19  22
ENDBRANCH  13  19
ENDBRANCH   1  16
TORSDOF 4
ENDMDL
MODEL 9
REMARK VINA RESULT:      -7.4      3.479      8.975
REMARK  Name = 
REMARK  6 active torsions:
REMARK  status: ('A' for Active; 'I' for Inactive)
REMARK    1  A    between atoms: C_1  and  O_2
REMARK    2  A    between atoms: O_2  and  C_3
REMARK    3  A    between atoms: C_3  and  C_5
REMARK    4  A    between atoms: C_8  and  C_9
REMARK    5  A    between atoms: C_12  and  C_13
REMARK    6  A    between atoms: C_18  and  C_19
REMARK                            x       y       z     vdW  Elec       q    Type
REMARK                         _______ _______ _______ _____ _____    ______ ____
ROOT
ATOM      1  C   UNL     1       1.461   8.678  19.486  0.00  0.00    +0.000 A 
ATOM      2  N   UNL     1       1.843   9.021  18.273  0.00  0.00    +0.000 NA
ATOM      3  N   UNL     1       2.611   7.994  17.800  0.00  0.00    +0.000 NA
ATOM      4  C   UNL     1       2.656   7.071  18.743  0.00  0.00    +0.000 A 
ATOM      5  O   UNL     1       1.939   7.444  19.860  0.00  0.00    +0.000 OA
ENDROOT
BRANCH   4   6
ATOM      6  C   UNL     1       3.365   5.789  18.752  0.00  0.00    +0.000 A 
ATOM      7  C   UNL     1       4.680   5.707  19.246  0.00  0.00    +0.000 A 
ATOM      8  C   UNL     1       5.399   4.509  19.200  0.00  0.00    +0.000 A 
ATOM      9  C   UNL     1       4.813   3.363  18.675  0.00  0.00    +0.000 A 
ATOM     10  C   UNL     1       3.501   3.408  18.209  0.00  0.00    +0.000 A 
ATOM     11  C   UNL     1       2.766   4.608  18.242  0.00  0.00    +0.000 A 
ATOM     12  C   UNL     1       1.354   4.584  17.711  0.00  0.00    +0.000 C 
ENDBRANCH   4   6
BRANCH   1  16
ATOM     13  C   UNL     1      -0.764  11.117  22.218  0.00  0.00    +0.000 A 
ATOM     14  C   UNL     1      -0.500  11.543  20.914  0.00  0.00    +0.000 A 
ATOM     15  C   UNL     1       0.198  10.719  20.028  0.00  0.00    +0.000 A 
ATOM     16  C   UNL     1       0.664   9.454  20.427  0.00  0.00    +0.000 A 
ATOM     17  C   UNL     1       0.381   9.021  21.730  0.00  0.00    +0.000 A 
ATOM     18  C   UNL     1      -0.321   9.848  22.622  0.00  0.00    +0.000 A 
BRANCH  13  19
ATOM     19  C   UNL     1      -1.518  12.037  23.111  0.00  0.00    +0.000 C 
ATOM     20  O   UNL     1      -1.076  13.114  23.486  0.00  0.00    +0.000 OA
BRANCH  19  22
ATOM     21  C   UNL     1      -3.612  12.484  24.036  0.00  0.00    +0.000 C 
ATOM     22  O   UNL     1      -2.735  11.529  23.430  0.00  0.00    +0.000 OA
ENDBRANCH  19  22
ENDBRANCH  13  19
ENDBRANCH   1  16
TORSDOF 4
ENDMDL
