MODEL 1
REMARK VINA RESULT:      -6.4      0.000      0.000
REMARK  Name = 
REMARK  7 active torsions:
REMARK  status: ('A' for Active; 'I' for Inactive)
REMARK    1  A    between atoms: N_1  and  S_2
REMARK    2  A    between atoms: S_2  and  C_5
REMARK    3  A    between atoms: C_8  and  S_9
REMARK    4  A    between atoms: S_9  and  C_12
REMARK    5  A    between atoms: C_12  and  C_13
REMARK    6  A    between atoms: C_13  and  C_14
REMARK    7  A    between atoms: C_14  and  O_15
REMARK                            x       y       z     vdW  Elec       q    Type
REMARK                         _______ _______ _______ _____ _____    ______ ____
ROOT
ATOM      1  C   UNL     1       5.802   5.558  18.244  0.00  0.00    +0.000 A 
ATOM      2  C   UNL     1       4.930   6.438  17.631  0.00  0.00    +0.000 A 
ATOM      3  C   UNL     1       3.601   5.932  17.581  0.00  0.00    +0.000 A 
ATOM      4  C   UNL     1       3.493   4.686  18.169  0.00  0.00    +0.000 A 
ATOM      5  S   UNL     1       5.007   4.132  18.747  0.00  0.00    +0.000 S 
ENDROOT
BRANCH   1   6
ATOM      6  S   UNL     1       7.545   5.639  18.555  0.00  0.00    +0.000 S 
ATOM      7  O   UNL     1       7.979   6.963  18.177  0.00  0.00    +0.000 OA
ATOM      8  O   UNL     1       8.088   4.442  17.958  0.00  0.00    +0.000 OA
BRANCH   6   9
ATOM      9  N   UNL     1       7.777   5.468  20.210  0.00  0.00    +0.000 NA
ATOM     10  H   UNL     1       7.464   4.540  20.499  0.00  0.00    +0.000 HD
ATOM     11  H   UNL     1       7.285   6.203  20.718  0.00  0.00    +0.000 HD
ENDBRANCH   6   9
ENDBRANCH   1   6
BRANCH   4  12
ATOM     12  S   UNL     1       2.099   3.605  18.415  0.00  0.00    +0.000 S 
ATOM     13  O   UNL     1       1.313   3.746  17.204  0.00  0.00    +0.000 OA
ATOM     14  O   UNL     1       2.653   2.331  18.823  0.00  0.00    +0.000 OA
BRANCH  12  15
ATOM     15  C   UNL     1       1.214   4.348  19.768  0.00  0.00    +0.000 C 
BRANCH  15  16
ATOM     16  C   UNL     1       2.054   4.365  21.041  0.00  0.00    +0.000 C 
BRANCH  16  17
ATOM     17  C   UNL     1       1.849   3.089  21.843  0.00  0.00    +0.000 C 
BRANCH  17  18
ATOM     18  O   UNL     1       3.049   2.331  21.869  0.00  0.00    +0.000 OA
ATOM     19  H   UNL     1       3.465   2.462  22.740  0.00  0.00    +0.000 HD
ENDBRANCH  17  18
ENDBRANCH  16  17
ENDBRANCH  15  16
ENDBRANCH  12  15
ENDBRANCH   4  12
TORSDOF 7
ENDMDL
MODEL 2
REMARK VINA RESULT:      -6.3      1.283      1.362
REMARK  Name = 
REMARK  7 active torsions:
REMARK  status: ('A' for Active; 'I' for Inactive)
REMARK    1  A    between atoms: N_1  and  S_2
REMARK    2  A    between atoms: S_2  and  C_5
REMARK    3  A    between atoms: C_8  and  S_9
REMARK    4  A    between atoms: S_9  and  C_12
REMARK    5  A    between atoms: C_12  and  C_13
REMARK    6  A    between atoms: C_13  and  C_14
REMARK    7  A    between atoms: C_14  and  O_15
REMARK                            x       y       z     vdW  Elec       q    Type
REMARK                         _______ _______ _______ _____ _____    ______ ____
ROOT
ATOM      1  C   UNL     1       5.758   5.433  18.239  0.00  0.00    +0.000 A 
ATOM      2  C   UNL     1       4.838   6.341  17.751  0.00  0.00    +0.000 A 
ATOM      3  C   UNL     1       3.549   5.763  17.582  0.00  0.00    +0.000 A 
ATOM      4  C   UNL     1       3.518   4.434  17.958  0.00  0.00    +0.000 A 
ATOM      5  S   UNL     1       5.056   3.895  18.483  0.00  0.00    +0.000 S 
ENDROOT
BRANCH   1   6
ATOM      6  S   UNL     1       7.485   5.578  18.609  0.00  0.00    +0.000 S 
ATOM      7  O   UNL     1       7.893   6.901  18.202  0.00  0.00    +0.000 OA
ATOM      8  O   UNL     1       8.085   4.379  18.073  0.00  0.00    +0.000 OA
BRANCH   6   9
ATOM      9  N   UNL     1       7.662   5.468  20.276  0.00  0.00    +0.000 NA
ATOM     10  H   UNL     1       8.570   5.849  20.544  0.00  0.00    +0.000 HD
ATOM     11  H   UNL     1       7.557   4.500  20.584  0.00  0.00    +0.000 HD
ENDBRANCH   6   9
ENDBRANCH   1   6
BRANCH   4  12
ATOM     12  S   UNL     1       2.199   3.237  17.987  0.00  0.00    +0.000 S 
ATOM     13  O   UNL     1       1.063   3.936  17.415  0.00  0.00    +0.000 OA
ATOM     14  O   UNL     1       2.740   2.037  17.386  0.00  0.00    +0.000 OA
BRANCH  12  15
ATOM     15  C   UNL     1       1.899   2.971  19.721  0.00  0.00    +0.000 C 
BRANCH  15  16
ATOM     16  C   UNL     1       1.161   4.150  20.346  0.00  0.00    +0.000 C 
BRANCH  16  17
ATOM     17  C   UNL     1       2.114   5.021  21.150  0.00  0.00    +0.000 C 
BRANCH  17  18
ATOM     18  O   UNL     1       2.027   6.370  20.716  0.00  0.00    +0.000 OA
ATOM     19  H   UNL     1       1.090   6.633  20.749  0.00  0.00    +0.000 HD
ENDBRANCH  17  18
ENDBRANCH  16  17
ENDBRANCH  15  16
ENDBRANCH  12  15
ENDBRANCH   4  12
TORSDOF 7
ENDMDL
MODEL 3
REMARK VINA RESULT:      -6.2      1.030      1.204
REMARK  Name = 
REMARK  7 active torsions:
REMARK  status: ('A' for Active; 'I' for Inactive)
REMARK    1  A    between atoms: N_1  and  S_2
REMARK    2  A    between atoms: S_2  and  C_5
REMARK    3  A    between atoms: C_8  and  S_9
REMARK    4  A    between atoms: S_9  and  C_12
REMARK    5  A    between atoms: C_12  and  C_13
REMARK    6  A    between atoms: C_13  and  C_14
REMARK    7  A    between atoms: C_14  and  O_15
REMARK                            x       y       z     vdW  Elec       q    Type
REMARK                         _______ _______ _______ _____ _____    ______ ____
ROOT
ATOM      1  C   UNL     1       5.608   5.517  18.343  0.00  0.00    +0.000 A 
ATOM      2  C   UNL     1       4.746   6.465  17.826  0.00  0.00    +0.000 A 
ATOM      3  C   UNL     1       3.406   5.991  17.753  0.00  0.00    +0.000 A 
ATOM      4  C   UNL     1       3.281   4.700  18.229  0.00  0.00    +0.000 A 
ATOM      5  S   UNL     1       4.791   4.067  18.730  0.00  0.00    +0.000 S 
ENDROOT
BRANCH   1   6
ATOM      6  S   UNL     1       7.357   5.536  18.631  0.00  0.00    +0.000 S 
ATOM      7  O   UNL     1       7.553   5.300  20.042  0.00  0.00    +0.000 OA
ATOM      8  O   UNL     1       7.832   6.728  17.969  0.00  0.00    +0.000 OA
BRANCH   6   9
ATOM      9  N   UNL     1       8.028   4.248  17.788  0.00  0.00    +0.000 NA
ATOM     10  H   UNL     1       7.701   3.371  18.197  0.00  0.00    +0.000 HD
ATOM     11  H   UNL     1       9.047   4.307  17.797  0.00  0.00    +0.000 HD
ENDBRANCH   6   9
ENDBRANCH   1   6
BRANCH   4  12
ATOM     12  S   UNL     1       1.869   3.628  18.401  0.00  0.00    +0.000 S 
ATOM     13  O   UNL     1       1.056   3.910  17.232  0.00  0.00    +0.000 OA
ATOM     14  O   UNL     1       2.403   2.308  18.660  0.00  0.00    +0.000 OA
BRANCH  12  15
ATOM     15  C   UNL     1       1.035   4.245  19.846  0.00  0.00    +0.000 C 
BRANCH  15  16
ATOM     16  C   UNL     1       2.027   4.629  20.939  0.00  0.00    +0.000 C 
BRANCH  16  17
ATOM     17  C   UNL     1       2.309   3.447  21.854  0.00  0.00    +0.000 C 
BRANCH  17  18
ATOM     18  O   UNL     1       1.327   2.438  21.664  0.00  0.00    +0.000 OA
ATOM     19  H   UNL     1       0.452   2.865  21.702  0.00  0.00    +0.000 HD
ENDBRANCH  17  18
ENDBRANCH  16  17
ENDBRANCH  15  16
ENDBRANCH  12  15
ENDBRANCH   4  12
TORSDOF 7
ENDMDL
MODEL 4
REMARK VINA RESULT:      -6.2      1.019      1.106
REMARK  Name = 
REMARK  7 active torsions:
REMARK  status: ('A' for Active; 'I' for Inactive)
REMARK    1  A    between atoms: N_1  and  S_2
REMARK    2  A    between atoms: S_2  and  C_5
REMARK    3  A    between atoms: C_8  and  S_9
REMARK    4  A    between atoms: S_9  and  C_12
REMARK    5  A    between atoms: C_12  and  C_13
REMARK    6  A    between atoms: C_13  and  C_14
REMARK    7  A    between atoms: C_14  and  O_15
REMARK                            x       y       z     vdW  Elec       q    Type
REMARK                         _______ _______ _______ _____ _____    ______ ____
ROOT
ATOM      1  C   UNL     1       5.970   4.685  17.603  0.00  0.00    +0.000 A 
ATOM      2  C   UNL     1       5.541   4.350  16.333  0.00  0.00    +0.000 A 
ATOM      3  C   UNL     1       4.187   3.913  16.320  0.00  0.00    +0.000 A 
ATOM      4  C   UNL     1       3.616   3.940  17.578  0.00  0.00    +0.000 A 
ATOM      5  S   UNL     1       4.735   4.463  18.763  0.00  0.00    +0.000 S 
ENDROOT
BRANCH   1   6
ATOM      6  S   UNL     1       7.533   5.250  18.217  0.00  0.00    +0.000 S 
ATOM      7  O   UNL     1       7.718   6.594  17.723  0.00  0.00    +0.000 OA
ATOM      8  O   UNL     1       8.459   4.181  17.926  0.00  0.00    +0.000 OA
BRANCH   6   9
ATOM      9  N   UNL     1       7.430   5.320  19.892  0.00  0.00    +0.000 NA
ATOM     10  H   UNL     1       6.449   5.267  20.171  0.00  0.00    +0.000 HD
ATOM     11  H   UNL     1       7.873   6.170  20.243  0.00  0.00    +0.000 HD
ENDBRANCH   6   9
ENDBRANCH   1   6
BRANCH   4  12
ATOM     12  S   UNL     1       1.977   3.536  18.148  0.00  0.00    +0.000 S 
ATOM     13  O   UNL     1       1.093   4.181  17.195  0.00  0.00    +0.000 OA
ATOM     14  O   UNL     1       1.971   2.102  18.348  0.00  0.00    +0.000 OA
BRANCH  12  15
ATOM     15  C   UNL     1       1.850   4.373  19.712  0.00  0.00    +0.000 C 
BRANCH  15  16
ATOM     16  C   UNL     1       1.040   3.558  20.716  0.00  0.00    +0.000 C 
BRANCH  16  17
ATOM     17  C   UNL     1       1.941   2.983  21.799  0.00  0.00    +0.000 C 
BRANCH  17  18
ATOM     18  O   UNL     1       3.119   2.443  21.218  0.00  0.00    +0.000 OA
ATOM     19  H   UNL     1       3.224   2.840  20.335  0.00  0.00    +0.000 HD
ENDBRANCH  17  18
ENDBRANCH  16  17
ENDBRANCH  15  16
ENDBRANCH  12  15
ENDBRANCH   4  12
TORSDOF 7
ENDMDL
MODEL 5
REMARK VINA RESULT:      -6.2      1.353      1.586
REMARK  Name = 
REMARK  7 active torsions:
REMARK  status: ('A' for Active; 'I' for Inactive)
REMARK    1  A    between atoms: N_1  and  S_2
REMARK    2  A    between atoms: S_2  and  C_5
REMARK    3  A    between atoms: C_8  and  S_9
REMARK    4  A    between atoms: S_9  and  C_12
REMARK    5  A    between atoms: C_12  and  C_13
REMARK    6  A    between atoms: C_13  and  C_14
REMARK    7  A    between atoms: C_14  and  O_15
REMARK                            x       y       z     vdW  Elec       q    Type
REMARK                         _______ _______ _______ _____ _____    ______ ____
ROOT
ATOM      1  C   UNL     1       5.706   5.363  18.251  0.00  0.00    +0.000 A 
ATOM      2  C   UNL     1       4.798   6.259  17.720  0.00  0.00    +0.000 A 
ATOM      3  C   UNL     1       3.507   5.685  17.557  0.00  0.00    +0.000 A 
ATOM      4  C   UNL     1       3.462   4.371  17.982  0.00  0.00    +0.000 A 
ATOM      5  S   UNL     1       4.990   3.840  18.543  0.00  0.00    +0.000 S 
ENDROOT
BRANCH   1   6
ATOM      6  S   UNL     1       7.430   5.509  18.634  0.00  0.00    +0.000 S 
ATOM      7  O   UNL     1       7.561   5.323  20.060  0.00  0.00    +0.000 OA
ATOM      8  O   UNL     1       7.863   6.712  17.964  0.00  0.00    +0.000 OA
BRANCH   6   9
ATOM      9  N   UNL     1       8.233   4.247  17.868  0.00  0.00    +0.000 NA
ATOM     10  H   UNL     1       8.059   3.380  18.378  0.00  0.00    +0.000 HD
ATOM     11  H   UNL     1       9.232   4.448  17.801  0.00  0.00    +0.000 HD
ENDBRANCH   6   9
ENDBRANCH   1   6
BRANCH   4  12
ATOM     12  S   UNL     1       2.133   3.185  18.041  0.00  0.00    +0.000 S 
ATOM     13  O   UNL     1       1.001   3.882  17.458  0.00  0.00    +0.000 OA
ATOM     14  O   UNL     1       2.663   1.968  17.464  0.00  0.00    +0.000 OA
BRANCH  12  15
ATOM     15  C   UNL     1       1.837   2.959  19.781  0.00  0.00    +0.000 C 
BRANCH  15  16
ATOM     16  C   UNL     1       0.782   3.931  20.298  0.00  0.00    +0.000 C 
BRANCH  16  17
ATOM     17  C   UNL     1       1.415   5.254  20.700  0.00  0.00    +0.000 C 
BRANCH  17  18
ATOM     18  O   UNL     1       2.647   5.022  21.367  0.00  0.00    +0.000 OA
ATOM     19  H   UNL     1       2.511   4.295  22.000  0.00  0.00    +0.000 HD
ENDBRANCH  17  18
ENDBRANCH  16  17
ENDBRANCH  15  16
ENDBRANCH  12  15
ENDBRANCH   4  12
TORSDOF 7
ENDMDL
MODEL 6
REMARK VINA RESULT:      -6.2      1.498      1.509
REMARK  Name = 
REMARK  7 active torsions:
REMARK  status: ('A' for Active; 'I' for Inactive)
REMARK    1  A    between atoms: N_1  and  S_2
REMARK    2  A    between atoms: S_2  and  C_5
REMARK    3  A    between atoms: C_8  and  S_9
REMARK    4  A    between atoms: S_9  and  C_12
REMARK    5  A    between atoms: C_12  and  C_13
REMARK    6  A    between atoms: C_13  and  C_14
REMARK    7  A    between atoms: C_14  and  O_15
REMARK                            x       y       z     vdW  Elec       q    Type
REMARK                         _______ _______ _______ _____ _____    ______ ____
ROOT
ATOM      1  C   UNL     1       5.453   5.181  17.203  0.00  0.00    +0.000 A 
ATOM      2  C   UNL     1       4.863   6.231  17.880  0.00  0.00    +0.000 A 
ATOM      3  C   UNL     1       3.528   5.937  18.273  0.00  0.00    +0.000 A 
ATOM      4  C   UNL     1       3.140   4.665  17.897  0.00  0.00    +0.000 A 
ATOM      5  S   UNL     1       4.386   3.855  17.047  0.00  0.00    +0.000 S 
ENDROOT
BRANCH   1   6
ATOM      6  S   UNL     1       7.054   4.993  16.467  0.00  0.00    +0.000 S 
ATOM      7  O   UNL     1       7.614   6.317  16.334  0.00  0.00    +0.000 OA
ATOM      8  O   UNL     1       6.847   4.118  15.337  0.00  0.00    +0.000 OA
BRANCH   6   9
ATOM      9  N   UNL     1       8.012   4.128  17.542  0.00  0.00    +0.000 NA
ATOM     10  H   UNL     1       8.755   3.655  17.025  0.00  0.00    +0.000 HD
ATOM     11  H   UNL     1       7.446   3.465  18.073  0.00  0.00    +0.000 HD
ENDBRANCH   6   9
ENDBRANCH   1   6
BRANCH   4  12
ATOM     12  S   UNL     1       1.622   3.765  18.139  0.00  0.00    +0.000 S 
ATOM     13  O   UNL     1       0.733   4.272  17.109  0.00  0.00    +0.000 OA
ATOM     14  O   UNL     1       1.996   2.369  18.207  0.00  0.00    +0.000 OA
BRANCH  12  15
ATOM     15  C   UNL     1       1.042   4.322  19.726  0.00  0.00    +0.000 C 
BRANCH  15  16
ATOM     16  C   UNL     1       1.204   3.240  20.789  0.00  0.00    +0.000 C 
BRANCH  16  17
ATOM     17  C   UNL     1       2.455   3.481  21.621  0.00  0.00    +0.000 C 
BRANCH  17  18
ATOM     18  O   UNL     1       2.985   2.244  22.074  0.00  0.00    +0.000 OA
ATOM     19  H   UNL     1       3.791   2.059  21.558  0.00  0.00    +0.000 HD
ENDBRANCH  17  18
ENDBRANCH  16  17
ENDBRANCH  15  16
ENDBRANCH  12  15
ENDBRANCH   4  12
TORSDOF 7
ENDMDL
MODEL 7
REMARK VINA RESULT:      -6.1      1.890      2.110
REMARK  Name = 
REMARK  7 active torsions:
REMARK  status: ('A' for Active; 'I' for Inactive)
REMARK    1  A    between atoms: N_1  and  S_2
REMARK    2  A    between atoms: S_2  and  C_5
REMARK    3  A    between atoms: C_8  and  S_9
REMARK    4  A    between atoms: S_9  and  C_12
REMARK    5  A    between atoms: C_12  and  C_13
REMARK    6  A    between atoms: C_13  and  C_14
REMARK    7  A    between atoms: C_14  and  O_15
REMARK                            x       y       z     vdW  Elec       q    Type
REMARK                         _______ _______ _______ _____ _____    ______ ____
ROOT
ATOM      1  C   UNL     1       5.565   5.524  17.084  0.00  0.00    +0.000 A 
ATOM      2  C   UNL     1       4.793   6.523  17.645  0.00  0.00    +0.000 A 
ATOM      3  C   UNL     1       3.473   6.080  17.942  0.00  0.00    +0.000 A 
ATOM      4  C   UNL     1       3.280   4.752  17.612  0.00  0.00    +0.000 A 
ATOM      5  S   UNL     1       4.688   4.067  16.920  0.00  0.00    +0.000 S 
ENDROOT
BRANCH   1   6
ATOM      6  S   UNL     1       7.238   5.506  16.497  0.00  0.00    +0.000 S 
ATOM      7  O   UNL     1       7.895   4.390  17.134  0.00  0.00    +0.000 OA
ATOM      8  O   UNL     1       7.699   6.867  16.640  0.00  0.00    +0.000 OA
BRANCH   6   9
ATOM      9  N   UNL     1       7.196   5.212  14.843  0.00  0.00    +0.000 NA
ATOM     10  H   UNL     1       7.179   6.102  14.344  0.00  0.00    +0.000 HD
ATOM     11  H   UNL     1       6.391   4.633  14.603  0.00  0.00    +0.000 HD
ENDBRANCH   6   9
ENDBRANCH   1   6
BRANCH   4  12
ATOM     12  S   UNL     1       1.869   3.679  17.780  0.00  0.00    +0.000 S 
ATOM     13  O   UNL     1       0.821   4.336  17.020  0.00  0.00    +0.000 OA
ATOM     14  O   UNL     1       2.339   2.351  17.446  0.00  0.00    +0.000 OA
BRANCH  12  15
ATOM     15  C   UNL     1       1.467   3.767  19.511  0.00  0.00    +0.000 C 
BRANCH  15  16
ATOM     16  C   UNL     1       1.937   2.521  20.256  0.00  0.00    +0.000 C 
BRANCH  16  17
ATOM     17  C   UNL     1       3.367   2.691  20.748  0.00  0.00    +0.000 C 
BRANCH  17  18
ATOM     18  O   UNL     1       4.266   2.032  19.869  0.00  0.00    +0.000 OA
ATOM     19  H   UNL     1       4.728   1.343  20.378  0.00  0.00    +0.000 HD
ENDBRANCH  17  18
ENDBRANCH  16  17
ENDBRANCH  15  16
ENDBRANCH  12  15
ENDBRANCH   4  12
TORSDOF 7
ENDMDL
MODEL 8
REMARK VINA RESULT:      -6.1      2.654      5.514
REMARK  Name = 
REMARK  7 active torsions:
REMARK  status: ('A' for Active; 'I' for Inactive)
REMARK    1  A    between atoms: N_1  and  S_2
REMARK    2  A    between atoms: S_2  and  C_5
REMARK    3  A    between atoms: C_8  and  S_9
REMARK    4  A    between atoms: S_9  and  C_12
REMARK    5  A    between atoms: C_12  and  C_13
REMARK    6  A    between atoms: C_13  and  C_14
REMARK    7  A    between atoms: C_14  and  O_15
REMARK                            x       y       z     vdW  Elec       q    Type
REMARK                         _______ _______ _______ _____ _____    ______ ____
ROOT
ATOM      1  C   UNL     1       2.645   4.070  18.420  0.00  0.00    +0.000 A 
ATOM      2  C   UNL     1       2.386   5.411  18.629  0.00  0.00    +0.000 A 
ATOM      3  C   UNL     1       3.335   6.251  17.982  0.00  0.00    +0.000 A 
ATOM      4  C   UNL     1       4.285   5.527  17.286  0.00  0.00    +0.000 A 
ATOM      5  S   UNL     1       4.033   3.842  17.450  0.00  0.00    +0.000 S 
ENDROOT
BRANCH   1   6
ATOM      6  S   UNL     1       1.835   2.602  18.992  0.00  0.00    +0.000 S 
ATOM      7  O   UNL     1       0.561   2.534  18.316  0.00  0.00    +0.000 OA
ATOM      8  O   UNL     1       1.951   2.646  20.430  0.00  0.00    +0.000 OA
BRANCH   6   9
ATOM      9  N   UNL     1       2.756   1.285  18.502  0.00  0.00    +0.000 NA
ATOM     10  H   UNL     1       2.381   0.436  18.928  0.00  0.00    +0.000 HD
ATOM     11  H   UNL     1       3.737   1.424  18.746  0.00  0.00    +0.000 HD
ENDBRANCH   6   9
ENDBRANCH   1   6
BRANCH   4  12
ATOM     12  S   UNL     1       5.671   6.035  16.289  0.00  0.00    +0.000 S 
ATOM     13  O   UNL     1       6.365   4.799  15.977  0.00  0.00    +0.000 OA
ATOM     14  O   UNL     1       5.123   6.887  15.255  0.00  0.00    +0.000 OA
BRANCH  12  15
ATOM     15  C   UNL     1       6.673   6.993  17.404  0.00  0.00    +0.000 C 
BRANCH  15  16
ATOM     16  C   UNL     1       7.665   6.114  18.158  0.00  0.00    +0.000 C 
BRANCH  16  17
ATOM     17  C   UNL     1       7.032   5.538  19.416  0.00  0.00    +0.000 C 
BRANCH  17  18
ATOM     18  O   UNL     1       7.986   5.499  20.467  0.00  0.00    +0.000 OA
ATOM     19  H   UNL     1       8.578   6.265  20.361  0.00  0.00    +0.000 HD
ENDBRANCH  17  18
ENDBRANCH  16  17
ENDBRANCH  15  16
ENDBRANCH  12  15
ENDBRANCH   4  12
TORSDOF 7
ENDMDL
MODEL 9
REMARK VINA RESULT:      -6.0      3.233      6.372
REMARK  Name = 
REMARK  7 active torsions:
REMARK  status: ('A' for Active; 'I' for Inactive)
REMARK    1  A    between atoms: N_1  and  S_2
REMARK    2  A    between atoms: S_2  and  C_5
REMARK    3  A    between atoms: C_8  and  S_9
REMARK    4  A    between atoms: S_9  and  C_12
REMARK    5  A    between atoms: C_12  and  C_13
REMARK    6  A    between atoms: C_13  and  C_14
REMARK    7  A    between atoms: C_14  and  O_15
REMARK                            x       y       z     vdW  Elec       q    Type
REMARK                         _______ _______ _______ _____ _____    ______ ____
ROOT
ATOM      1  C   UNL     1       3.351   4.236  18.524  0.00  0.00    +0.000 A 
ATOM      2  C   UNL     1       4.118   4.782  19.535  0.00  0.00    +0.000 A 
ATOM      3  C   UNL     1       5.375   5.254  19.062  0.00  0.00    +0.000 A 
ATOM      4  C   UNL     1       5.525   5.067  17.702  0.00  0.00    +0.000 A 
ATOM      5  S   UNL     1       4.157   4.297  17.020  0.00  0.00    +0.000 S 
ENDROOT
BRANCH   1   6
ATOM      6  S   UNL     1       1.747   3.482  18.528  0.00  0.00    +0.000 S 
ATOM      7  O   UNL     1       1.073   3.920  17.329  0.00  0.00    +0.000 OA
ATOM      8  O   UNL     1       1.220   3.729  19.850  0.00  0.00    +0.000 OA
BRANCH   6   9
ATOM      9  N   UNL     1       1.963   1.820  18.427  0.00  0.00    +0.000 NA
ATOM     10  H   UNL     1       1.050   1.362  18.421  0.00  0.00    +0.000 HD
ATOM     11  H   UNL     1       2.543   1.487  19.199  0.00  0.00    +0.000 HD
ENDBRANCH   6   9
ENDBRANCH   1   6
BRANCH   4  12
ATOM     12  S   UNL     1       6.851   5.478  16.585  0.00  0.00    +0.000 S 
ATOM     13  O   UNL     1       7.142   6.872  16.866  0.00  0.00    +0.000 OA
ATOM     14  O   UNL     1       7.845   4.440  16.753  0.00  0.00    +0.000 OA
BRANCH  12  15
ATOM     15  C   UNL     1       6.107   5.358  14.974  0.00  0.00    +0.000 C 
BRANCH  15  16
ATOM     16  C   UNL     1       6.802   4.306  14.116  0.00  0.00    +0.000 C 
BRANCH  16  17
ATOM     17  C   UNL     1       5.821   3.660  13.149  0.00  0.00    +0.000 C 
BRANCH  17  18
ATOM     18  O   UNL     1       6.507   2.774  12.277  0.00  0.00    +0.000 OA
ATOM     19  H   UNL     1       5.844   2.197  11.857  0.00  0.00    +0.000 HD
ENDBRANCH  17  18
ENDBRANCH  16  17
ENDBRANCH  15  16
ENDBRANCH  12  15
ENDBRANCH   4  12
TORSDOF 7
ENDMDL
