MODEL 1
REMARK VINA RESULT:      -7.8      0.000      0.000
REMARK  Name = 
REMARK  8 active torsions:
REMARK  status: ('A' for Active; 'I' for Inactive)
REMARK    1  A    between atoms: C_3  and  C_4
REMARK    2  A    between atoms: C_4  and  O_5
REMARK    3  A    between atoms: C_4  and  C_6
REMARK    4  A    between atoms: C_6  and  O_7
REMARK    5  A    between atoms: O_7  and  C_8
REMARK    6  A    between atoms: C_15  and  C_16
REMARK    7  A    between atoms: C_19  and  O_20
REMARK    8  A    between atoms: N_23  and  C_24
REMARK                            x       y       z     vdW  Elec       q    Type
REMARK                         _______ _______ _______ _____ _____    ______ ____
ROOT
ATOM      1  O   UNL     1       5.663   3.579  18.590  0.00  0.00    +0.000 OA
ATOM      2  C   UNL     1       4.797   4.376  18.278  0.00  0.00    +0.000 C 
ATOM      3  C   UNL     1       4.646   5.471  17.212  0.00  0.00    +0.000 C 
ATOM      4  C   UNL     1       3.165   5.597  17.760  0.00  0.00    +0.000 C 
ATOM      5  N   UNL     1       3.577   4.627  18.787  0.00  0.00    +0.000 N 
ENDROOT
BRANCH   5   6
ATOM      6  C   UNL     1       2.842   3.906  19.718  0.00  0.00    +0.000 A 
ATOM      7  C   UNL     1       1.799   3.062  19.312  0.00  0.00    +0.000 A 
ATOM      8  C   UNL     1       1.019   2.410  20.268  0.00  0.00    +0.000 A 
ATOM      9  C   UNL     1       1.269   2.629  21.616  0.00  0.00    +0.000 A 
ATOM     10  F   UNL     1       0.490   2.041  22.535  0.00  0.00    +0.000 F 
ATOM     11  C   UNL     1       2.309   3.450  22.031  0.00  0.00    +0.000 A 
ATOM     12  C   UNL     1       3.118   4.064  21.077  0.00  0.00    +0.000 A 
ENDBRANCH   5   6
BRANCH   4  13
ATOM     13  C   UNL     1       2.627   7.012  18.286  0.00  0.00    +0.000 A 
ATOM     14  C   UNL     1       2.279   7.217  19.637  0.00  0.00    +0.000 A 
ATOM     15  C   UNL     1       1.665   8.397  20.078  0.00  0.00    +0.000 A 
ATOM     16  C   UNL     1       1.452   9.437  19.185  0.00  0.00    +0.000 A 
ATOM     17  C   UNL     1       1.866   9.320  17.870  0.00  0.00    +0.000 A 
ATOM     18  C   UNL     1       2.437   8.124  17.431  0.00  0.00    +0.000 A 
BRANCH  16  19
ATOM     19  O   UNL     1       0.846  10.596  19.561  0.00  0.00    +0.000 OA
ATOM     20  H   UNL     1      -0.108  10.512  19.407  0.00  0.00    +0.000 HD
ENDBRANCH  16  19
ENDBRANCH   4  13
BRANCH   3  21
ATOM     21  C   UNL     1       5.679   6.596  17.327  0.00  0.00    +0.000 C 
BRANCH  21  22
ATOM     22  O   UNL     1       6.672   6.273  18.301  0.00  0.00    +0.000 OA
ATOM     23  H   UNL     1       6.256   5.776  19.029  0.00  0.00    +0.000 HD
ENDBRANCH  21  22
BRANCH  21  24
ATOM     24  C   UNL     1       6.380   6.848  15.982  0.00  0.00    +0.000 C 
BRANCH  24  25
ATOM     25  O   UNL     1       7.290   5.791  15.687  0.00  0.00    +0.000 OA
BRANCH  25  26
ATOM     26  C   UNL     1       6.991   5.076  14.555  0.00  0.00    +0.000 A 
ATOM     27  C   UNL     1       7.676   5.189  13.340  0.00  0.00    +0.000 A 
ATOM     28  C   UNL     1       7.314   4.394  12.253  0.00  0.00    +0.000 A 
ATOM     29  C   UNL     1       6.279   3.480  12.387  0.00  0.00    +0.000 A 
ATOM     30  F   UNL     1       5.940   2.712  11.343  0.00  0.00    +0.000 F 
ATOM     31  C   UNL     1       5.600   3.342  13.592  0.00  0.00    +0.000 A 
ATOM     32  C   UNL     1       5.962   4.139  14.680  0.00  0.00    +0.000 A 
ENDBRANCH  25  26
ENDBRANCH  24  25
ENDBRANCH  21  24
ENDBRANCH   3  21
TORSDOF 8
ENDMDL
MODEL 2
REMARK VINA RESULT:      -7.6      4.923      8.349
REMARK  Name = 
REMARK  8 active torsions:
REMARK  status: ('A' for Active; 'I' for Inactive)
REMARK    1  A    between atoms: C_3  and  C_4
REMARK    2  A    between atoms: C_4  and  O_5
REMARK    3  A    between atoms: C_4  and  C_6
REMARK    4  A    between atoms: C_6  and  O_7
REMARK    5  A    between atoms: O_7  and  C_8
REMARK    6  A    between atoms: C_15  and  C_16
REMARK    7  A    between atoms: C_19  and  O_20
REMARK    8  A    between atoms: N_23  and  C_24
REMARK                            x       y       z     vdW  Elec       q    Type
REMARK                         _______ _______ _______ _____ _____    ______ ____
ROOT
ATOM      1  O   UNL     1       1.670  11.683  20.876  0.00  0.00    +0.000 OA
ATOM      2  C   UNL     1       0.704  11.149  20.361  0.00  0.00    +0.000 C 
ATOM      3  C   UNL     1       0.465   9.876  19.537  0.00  0.00    +0.000 C 
ATOM      4  C   UNL     1      -1.065  10.268  19.646  0.00  0.00    +0.000 C 
ATOM      5  N   UNL     1      -0.593  11.499  20.299  0.00  0.00    +0.000 N 
ENDROOT
BRANCH   5   6
ATOM      6  C   UNL     1      -1.274  12.495  20.984  0.00  0.00    +0.000 A 
ATOM      7  C   UNL     1      -1.862  12.238  22.231  0.00  0.00    +0.000 A 
ATOM      8  C   UNL     1      -2.612  13.229  22.865  0.00  0.00    +0.000 A 
ATOM      9  C   UNL     1      -2.791  14.454  22.238  0.00  0.00    +0.000 A 
ATOM     10  F   UNL     1      -3.550  15.390  22.824  0.00  0.00    +0.000 F 
ATOM     11  C   UNL     1      -2.201  14.727  21.011  0.00  0.00    +0.000 A 
ATOM     12  C   UNL     1      -1.413  13.755  20.399  0.00  0.00    +0.000 A 
ENDBRANCH   5   6
BRANCH   4  13
ATOM     13  C   UNL     1      -1.938  10.453  18.314  0.00  0.00    +0.000 A 
ATOM     14  C   UNL     1      -3.077  11.283  18.283  0.00  0.00    +0.000 A 
ATOM     15  C   UNL     1      -3.934  11.334  17.175  0.00  0.00    +0.000 A 
ATOM     16  C   UNL     1      -3.625  10.606  16.034  0.00  0.00    +0.000 A 
ATOM     17  C   UNL     1      -2.466   9.853  15.981  0.00  0.00    +0.000 A 
ATOM     18  C   UNL     1      -1.643   9.776  17.106  0.00  0.00    +0.000 A 
BRANCH  16  19
ATOM     19  O   UNL     1      -4.432  10.610  14.938  0.00  0.00    +0.000 OA
ATOM     20  H   UNL     1      -3.891  10.792  14.154  0.00  0.00    +0.000 HD
ENDBRANCH  16  19
ENDBRANCH   4  13
BRANCH   3  21
ATOM     21  C   UNL     1       1.228   9.842  18.209  0.00  0.00    +0.000 C 
BRANCH  21  22
ATOM     22  O   UNL     1       1.954  11.056  18.013  0.00  0.00    +0.000 OA
ATOM     23  H   UNL     1       1.325  11.797  17.941  0.00  0.00    +0.000 HD
ENDBRANCH  21  22
BRANCH  21  24
ATOM     24  C   UNL     1       2.220   8.668  18.167  0.00  0.00    +0.000 C 
BRANCH  24  25
ATOM     25  O   UNL     1       2.223   7.972  19.411  0.00  0.00    +0.000 OA
BRANCH  25  26
ATOM     26  C   UNL     1       2.083   6.612  19.308  0.00  0.00    +0.000 A 
ATOM     27  C   UNL     1       2.315   5.874  18.142  0.00  0.00    +0.000 A 
ATOM     28  C   UNL     1       2.173   4.488  18.147  0.00  0.00    +0.000 A 
ATOM     29  C   UNL     1       1.813   3.840  19.320  0.00  0.00    +0.000 A 
ATOM     30  F   UNL     1       1.686   2.507  19.324  0.00  0.00    +0.000 F 
ATOM     31  C   UNL     1       1.597   4.555  20.492  0.00  0.00    +0.000 A 
ATOM     32  C   UNL     1       1.737   5.944  20.486  0.00  0.00    +0.000 A 
ENDBRANCH  25  26
ENDBRANCH  24  25
ENDBRANCH  21  24
ENDBRANCH   3  21
TORSDOF 8
ENDMDL
MODEL 3
REMARK VINA RESULT:      -7.6      4.955      7.920
REMARK  Name = 
REMARK  8 active torsions:
REMARK  status: ('A' for Active; 'I' for Inactive)
REMARK    1  A    between atoms: C_3  and  C_4
REMARK    2  A    between atoms: C_4  and  O_5
REMARK    3  A    between atoms: C_4  and  C_6
REMARK    4  A    between atoms: C_6  and  O_7
REMARK    5  A    between atoms: O_7  and  C_8
REMARK    6  A    between atoms: C_15  and  C_16
REMARK    7  A    between atoms: C_19  and  O_20
REMARK    8  A    between atoms: N_23  and  C_24
REMARK                            x       y       z     vdW  Elec       q    Type
REMARK                         _______ _______ _______ _____ _____    ______ ____
ROOT
ATOM      1  O   UNL     1       1.573  11.863  21.048  0.00  0.00    +0.000 OA
ATOM      2  C   UNL     1       0.678  11.264  20.478  0.00  0.00    +0.000 C 
ATOM      3  C   UNL     1       0.598  10.074  19.510  0.00  0.00    +0.000 C 
ATOM      4  C   UNL     1      -0.969  10.236  19.672  0.00  0.00    +0.000 C 
ATOM      5  N   UNL     1      -0.656  11.437  20.462  0.00  0.00    +0.000 N 
ENDROOT
BRANCH   5   6
ATOM      6  C   UNL     1      -1.452  12.243  21.263  0.00  0.00    +0.000 A 
ATOM      7  C   UNL     1      -1.818  13.532  20.848  0.00  0.00    +0.000 A 
ATOM      8  C   UNL     1      -2.550  14.357  21.703  0.00  0.00    +0.000 A 
ATOM      9  C   UNL     1      -2.886  13.899  22.970  0.00  0.00    +0.000 A 
ATOM     10  F   UNL     1      -3.548  14.708  23.808  0.00  0.00    +0.000 F 
ATOM     11  C   UNL     1      -2.545  12.619  23.386  0.00  0.00    +0.000 A 
ATOM     12  C   UNL     1      -1.854  11.778  22.517  0.00  0.00    +0.000 A 
ENDBRANCH   5   6
BRANCH   4  13
ATOM     13  C   UNL     1      -1.885  10.452  18.374  0.00  0.00    +0.000 A 
ATOM     14  C   UNL     1      -3.024  11.283  18.401  0.00  0.00    +0.000 A 
ATOM     15  C   UNL     1      -3.918  11.360  17.323  0.00  0.00    +0.000 A 
ATOM     16  C   UNL     1      -3.649  10.659  16.157  0.00  0.00    +0.000 A 
ATOM     17  C   UNL     1      -2.493   9.907  16.047  0.00  0.00    +0.000 A 
ATOM     18  C   UNL     1      -1.633   9.803  17.142  0.00  0.00    +0.000 A 
BRANCH  16  19
ATOM     19  O   UNL     1      -4.492  10.689  15.089  0.00  0.00    +0.000 OA
ATOM     20  H   UNL     1      -5.186  11.346  15.259  0.00  0.00    +0.000 HD
ENDBRANCH  16  19
ENDBRANCH   4  13
BRANCH   3  21
ATOM     21  C   UNL     1       1.331  10.300  18.185  0.00  0.00    +0.000 C 
BRANCH  21  22
ATOM     22  O   UNL     1       2.134  11.480  18.246  0.00  0.00    +0.000 OA
ATOM     23  H   UNL     1       1.871  12.005  19.022  0.00  0.00    +0.000 HD
ENDBRANCH  21  22
BRANCH  21  24
ATOM     24  C   UNL     1       2.241   9.109  17.841  0.00  0.00    +0.000 C 
BRANCH  24  25
ATOM     25  O   UNL     1       2.206   8.137  18.885  0.00  0.00    +0.000 OA
BRANCH  25  26
ATOM     26  C   UNL     1       2.719   6.912  18.545  0.00  0.00    +0.000 A 
ATOM     27  C   UNL     1       2.244   5.689  19.031  0.00  0.00    +0.000 A 
ATOM     28  C   UNL     1       2.815   4.492  18.601  0.00  0.00    +0.000 A 
ATOM     29  C   UNL     1       3.851   4.520  17.677  0.00  0.00    +0.000 A 
ATOM     30  F   UNL     1       4.391   3.368  17.261  0.00  0.00    +0.000 F 
ATOM     31  C   UNL     1       4.323   5.725  17.171  0.00  0.00    +0.000 A 
ATOM     32  C   UNL     1       3.752   6.923  17.603  0.00  0.00    +0.000 A 
ENDBRANCH  25  26
ENDBRANCH  24  25
ENDBRANCH  21  24
ENDBRANCH   3  21
TORSDOF 8
ENDMDL
MODEL 4
REMARK VINA RESULT:      -7.6      5.122      8.374
REMARK  Name = 
REMARK  8 active torsions:
REMARK  status: ('A' for Active; 'I' for Inactive)
REMARK    1  A    between atoms: C_3  and  C_4
REMARK    2  A    between atoms: C_4  and  O_5
REMARK    3  A    between atoms: C_4  and  C_6
REMARK    4  A    between atoms: C_6  and  O_7
REMARK    5  A    between atoms: O_7  and  C_8
REMARK    6  A    between atoms: C_15  and  C_16
REMARK    7  A    between atoms: C_19  and  O_20
REMARK    8  A    between atoms: N_23  and  C_24
REMARK                            x       y       z     vdW  Elec       q    Type
REMARK                         _______ _______ _______ _____ _____    ______ ____
ROOT
ATOM      1  O   UNL     1      -0.526   9.370  23.606  0.00  0.00    +0.000 OA
ATOM      2  C   UNL     1      -0.522   9.952  22.536  0.00  0.00    +0.000 C 
ATOM      3  C   UNL     1      -0.126   9.596  21.096  0.00  0.00    +0.000 C 
ATOM      4  C   UNL     1      -0.703  11.026  20.738  0.00  0.00    +0.000 C 
ATOM      5  N   UNL     1      -0.868  11.205  22.189  0.00  0.00    +0.000 N 
ENDROOT
BRANCH   5   6
ATOM      6  C   UNL     1      -1.533  12.175  22.926  0.00  0.00    +0.000 A 
ATOM      7  C   UNL     1      -2.847  11.967  23.368  0.00  0.00    +0.000 A 
ATOM      8  C   UNL     1      -3.526  12.986  24.036  0.00  0.00    +0.000 A 
ATOM      9  C   UNL     1      -2.899  14.210  24.231  0.00  0.00    +0.000 A 
ATOM     10  F   UNL     1      -3.567  15.205  24.830  0.00  0.00    +0.000 F 
ATOM     11  C   UNL     1      -1.592  14.422  23.813  0.00  0.00    +0.000 A 
ATOM     12  C   UNL     1      -0.897  13.390  23.188  0.00  0.00    +0.000 A 
ENDBRANCH   5   6
BRANCH   4  13
ATOM     13  C   UNL     1       0.225  12.095  19.986  0.00  0.00    +0.000 A 
ATOM     14  C   UNL     1       1.465  12.505  20.519  0.00  0.00    +0.000 A 
ATOM     15  C   UNL     1       2.211  13.548  19.953  0.00  0.00    +0.000 A 
ATOM     16  C   UNL     1       1.768  14.158  18.789  0.00  0.00    +0.000 A 
ATOM     17  C   UNL     1       0.607  13.725  18.175  0.00  0.00    +0.000 A 
ATOM     18  C   UNL     1      -0.151  12.715  18.770  0.00  0.00    +0.000 A 
BRANCH  16  19
ATOM     19  O   UNL     1       2.449  15.185  18.210  0.00  0.00    +0.000 OA
ATOM     20  H   UNL     1       1.872  15.612  17.557  0.00  0.00    +0.000 HD
ENDBRANCH  16  19
ENDBRANCH   4  13
BRANCH   3  21
ATOM     21  C   UNL     1       1.351   9.225  20.932  0.00  0.00    +0.000 C 
BRANCH  21  22
ATOM     22  O   UNL     1       1.819   8.497  22.069  0.00  0.00    +0.000 OA
ATOM     23  H   UNL     1       1.074   8.012  22.466  0.00  0.00    +0.000 HD
ENDBRANCH  21  22
BRANCH  21  24
ATOM     24  C   UNL     1       1.573   8.364  19.677  0.00  0.00    +0.000 C 
BRANCH  24  25
ATOM     25  O   UNL     1       2.493   7.310  19.951  0.00  0.00    +0.000 OA
BRANCH  25  26
ATOM     26  C   UNL     1       2.084   6.068  19.536  0.00  0.00    +0.000 A 
ATOM     27  C   UNL     1       2.223   5.580  18.232  0.00  0.00    +0.000 A 
ATOM     28  C   UNL     1       1.801   4.290  17.915  0.00  0.00    +0.000 A 
ATOM     29  C   UNL     1       1.254   3.486  18.906  0.00  0.00    +0.000 A 
ATOM     30  F   UNL     1       0.858   2.244  18.600  0.00  0.00    +0.000 F 
ATOM     31  C   UNL     1       1.126   3.948  20.210  0.00  0.00    +0.000 A 
ATOM     32  C   UNL     1       1.547   5.241  20.526  0.00  0.00    +0.000 A 
ENDBRANCH  25  26
ENDBRANCH  24  25
ENDBRANCH  21  24
ENDBRANCH   3  21
TORSDOF 8
ENDMDL
MODEL 5
REMARK VINA RESULT:      -7.5      4.274      6.908
REMARK  Name = 
REMARK  8 active torsions:
REMARK  status: ('A' for Active; 'I' for Inactive)
REMARK    1  A    between atoms: C_3  and  C_4
REMARK    2  A    between atoms: C_4  and  O_5
REMARK    3  A    between atoms: C_4  and  C_6
REMARK    4  A    between atoms: C_6  and  O_7
REMARK    5  A    between atoms: O_7  and  C_8
REMARK    6  A    between atoms: C_15  and  C_16
REMARK    7  A    between atoms: C_19  and  O_20
REMARK    8  A    between atoms: N_23  and  C_24
REMARK                            x       y       z     vdW  Elec       q    Type
REMARK                         _______ _______ _______ _____ _____    ______ ____
ROOT
ATOM      1  O   UNL     1       5.031   6.311  19.560  0.00  0.00    +0.000 OA
ATOM      2  C   UNL     1       5.583   5.666  18.686  0.00  0.00    +0.000 C 
ATOM      3  C   UNL     1       6.975   5.666  18.037  0.00  0.00    +0.000 C 
ATOM      4  C   UNL     1       6.454   4.386  17.264  0.00  0.00    +0.000 C 
ATOM      5  N   UNL     1       5.156   4.662  17.899  0.00  0.00    +0.000 N 
ENDROOT
BRANCH   5   6
ATOM      6  C   UNL     1       3.993   3.909  17.980  0.00  0.00    +0.000 A 
ATOM      7  C   UNL     1       2.760   4.444  17.585  0.00  0.00    +0.000 A 
ATOM      8  C   UNL     1       1.592   3.700  17.751  0.00  0.00    +0.000 A 
ATOM      9  C   UNL     1       1.662   2.442  18.334  0.00  0.00    +0.000 A 
ATOM     10  F   UNL     1       0.536   1.745  18.538  0.00  0.00    +0.000 F 
ATOM     11  C   UNL     1       2.880   1.893  18.715  0.00  0.00    +0.000 A 
ATOM     12  C   UNL     1       4.052   2.617  18.506  0.00  0.00    +0.000 A 
ENDBRANCH   5   6
BRANCH   4  13
ATOM     13  C   UNL     1       6.475   4.359  15.661  0.00  0.00    +0.000 A 
ATOM     14  C   UNL     1       5.493   3.672  14.918  0.00  0.00    +0.000 A 
ATOM     15  C   UNL     1       5.586   3.511  13.529  0.00  0.00    +0.000 A 
ATOM     16  C   UNL     1       6.632   4.103  12.837  0.00  0.00    +0.000 A 
ATOM     17  C   UNL     1       7.567   4.868  13.510  0.00  0.00    +0.000 A 
ATOM     18  C   UNL     1       7.489   4.986  14.899  0.00  0.00    +0.000 A 
BRANCH  16  19
ATOM     19  O   UNL     1       6.774   3.963  11.490  0.00  0.00    +0.000 OA
ATOM     20  H   UNL     1       7.516   3.361  11.316  0.00  0.00    +0.000 HD
ENDBRANCH  16  19
ENDBRANCH   4  13
BRANCH   3  21
ATOM     21  C   UNL     1       7.333   6.980  17.335  0.00  0.00    +0.000 C 
BRANCH  21  22
ATOM     22  O   UNL     1       6.154   7.659  16.901  0.00  0.00    +0.000 OA
ATOM     23  H   UNL     1       5.384   7.077  17.031  0.00  0.00    +0.000 HD
ENDBRANCH  21  22
BRANCH  21  24
ATOM     24  C   UNL     1       8.118   7.915  18.269  0.00  0.00    +0.000 C 
BRANCH  24  25
ATOM     25  O   UNL     1       8.446   9.130  17.600  0.00  0.00    +0.000 OA
BRANCH  25  26
ATOM     26  C   UNL     1       8.820  10.158  18.427  0.00  0.00    +0.000 A 
ATOM     27  C   UNL     1       9.268   9.998  19.742  0.00  0.00    +0.000 A 
ATOM     28  C   UNL     1       9.655  11.107  20.493  0.00  0.00    +0.000 A 
ATOM     29  C   UNL     1       9.606  12.371  19.923  0.00  0.00    +0.000 A 
ATOM     30  F   UNL     1       9.986  13.433  20.645  0.00  0.00    +0.000 F 
ATOM     31  C   UNL     1       9.180  12.547  18.612  0.00  0.00    +0.000 A 
ATOM     32  C   UNL     1       8.792  11.436  17.861  0.00  0.00    +0.000 A 
ENDBRANCH  25  26
ENDBRANCH  24  25
ENDBRANCH  21  24
ENDBRANCH   3  21
TORSDOF 8
ENDMDL
MODEL 6
REMARK VINA RESULT:      -7.5      4.302      6.874
REMARK  Name = 
REMARK  8 active torsions:
REMARK  status: ('A' for Active; 'I' for Inactive)
REMARK    1  A    between atoms: C_3  and  C_4
REMARK    2  A    between atoms: C_4  and  O_5
REMARK    3  A    between atoms: C_4  and  C_6
REMARK    4  A    between atoms: C_6  and  O_7
REMARK    5  A    between atoms: O_7  and  C_8
REMARK    6  A    between atoms: C_15  and  C_16
REMARK    7  A    between atoms: C_19  and  O_20
REMARK    8  A    between atoms: N_23  and  C_24
REMARK                            x       y       z     vdW  Elec       q    Type
REMARK                         _______ _______ _______ _____ _____    ______ ____
ROOT
ATOM      1  O   UNL     1       5.235   6.319  19.778  0.00  0.00    +0.000 OA
ATOM      2  C   UNL     1       5.733   5.667  18.878  0.00  0.00    +0.000 C 
ATOM      3  C   UNL     1       7.095   5.638  18.169  0.00  0.00    +0.000 C 
ATOM      4  C   UNL     1       6.511   4.376  17.412  0.00  0.00    +0.000 C 
ATOM      5  N   UNL     1       5.248   4.680  18.103  0.00  0.00    +0.000 N 
ENDROOT
BRANCH   5   6
ATOM      6  C   UNL     1       4.072   3.954  18.230  0.00  0.00    +0.000 A 
ATOM      7  C   UNL     1       4.083   2.651  18.747  0.00  0.00    +0.000 A 
ATOM      8  C   UNL     1       2.902   1.909  18.789  0.00  0.00    +0.000 A 
ATOM      9  C   UNL     1       1.731   2.462  18.290  0.00  0.00    +0.000 A 
ATOM     10  F   UNL     1       0.607   1.733  18.286  0.00  0.00    +0.000 F 
ATOM     11  C   UNL     1       1.703   3.757  17.791  0.00  0.00    +0.000 A 
ATOM     12  C   UNL     1       2.871   4.516  17.792  0.00  0.00    +0.000 A 
ENDBRANCH   5   6
BRANCH   4  13
ATOM     13  C   UNL     1       6.464   4.359  15.810  0.00  0.00    +0.000 A 
ATOM     14  C   UNL     1       5.424   3.717  15.105  0.00  0.00    +0.000 A 
ATOM     15  C   UNL     1       5.452   3.563  13.712  0.00  0.00    +0.000 A 
ATOM     16  C   UNL     1       6.491   4.118  12.980  0.00  0.00    +0.000 A 
ATOM     17  C   UNL     1       7.483   4.841  13.616  0.00  0.00    +0.000 A 
ATOM     18  C   UNL     1       7.469   4.951  15.008  0.00  0.00    +0.000 A 
BRANCH  16  19
ATOM     19  O   UNL     1       6.570   3.982  11.627  0.00  0.00    +0.000 OA
ATOM     20  H   UNL     1       7.372   4.432  11.316  0.00  0.00    +0.000 HD
ENDBRANCH  16  19
ENDBRANCH   4  13
BRANCH   3  21
ATOM     21  C   UNL     1       7.455   6.947  17.460  0.00  0.00    +0.000 C 
BRANCH  21  22
ATOM     22  O   UNL     1       6.276   7.639  17.047  0.00  0.00    +0.000 OA
ATOM     23  H   UNL     1       6.350   7.860  16.102  0.00  0.00    +0.000 HD
ENDBRANCH  21  22
BRANCH  21  24
ATOM     24  C   UNL     1       8.268   7.873  18.381  0.00  0.00    +0.000 C 
BRANCH  24  25
ATOM     25  O   UNL     1       8.105   9.235  17.988  0.00  0.00    +0.000 OA
BRANCH  25  26
ATOM     26  C   UNL     1       8.969  10.113  18.591  0.00  0.00    +0.000 A 
ATOM     27  C   UNL     1       9.102  10.274  19.974  0.00  0.00    +0.000 A 
ATOM     28  C   UNL     1      10.032  11.174  20.491  0.00  0.00    +0.000 A 
ATOM     29  C   UNL     1      10.836  11.902  19.625  0.00  0.00    +0.000 A 
ATOM     30  F   UNL     1      11.734  12.760  20.125  0.00  0.00    +0.000 F 
ATOM     31  C   UNL     1      10.729  11.741  18.248  0.00  0.00    +0.000 A 
ATOM     32  C   UNL     1       9.796  10.840  17.731  0.00  0.00    +0.000 A 
ENDBRANCH  25  26
ENDBRANCH  24  25
ENDBRANCH  21  24
ENDBRANCH   3  21
TORSDOF 8
ENDMDL
MODEL 7
REMARK VINA RESULT:      -7.4      4.862      7.800
REMARK  Name = 
REMARK  8 active torsions:
REMARK  status: ('A' for Active; 'I' for Inactive)
REMARK    1  A    between atoms: C_3  and  C_4
REMARK    2  A    between atoms: C_4  and  O_5
REMARK    3  A    between atoms: C_4  and  C_6
REMARK    4  A    between atoms: C_6  and  O_7
REMARK    5  A    between atoms: O_7  and  C_8
REMARK    6  A    between atoms: C_15  and  C_16
REMARK    7  A    between atoms: C_19  and  O_20
REMARK    8  A    between atoms: N_23  and  C_24
REMARK                            x       y       z     vdW  Elec       q    Type
REMARK                         _______ _______ _______ _____ _____    ______ ____
ROOT
ATOM      1  O   UNL     1       1.614  11.885  21.240  0.00  0.00    +0.000 OA
ATOM      2  C   UNL     1       0.746  11.274  20.645  0.00  0.00    +0.000 C 
ATOM      3  C   UNL     1       0.715  10.132  19.618  0.00  0.00    +0.000 C 
ATOM      4  C   UNL     1      -0.856  10.208  19.797  0.00  0.00    +0.000 C 
ATOM      5  N   UNL     1      -0.596  11.380  20.647  0.00  0.00    +0.000 N 
ENDROOT
BRANCH   5   6
ATOM      6  C   UNL     1      -1.424  12.104  21.493  0.00  0.00    +0.000 A 
ATOM      7  C   UNL     1      -1.837  11.573  22.722  0.00  0.00    +0.000 A 
ATOM      8  C   UNL     1      -2.735  12.282  23.521  0.00  0.00    +0.000 A 
ATOM      9  C   UNL     1      -3.233  13.498  23.073  0.00  0.00    +0.000 A 
ATOM     10  F   UNL     1      -4.131  14.157  23.817  0.00  0.00    +0.000 F 
ATOM     11  C   UNL     1      -2.818  14.043  21.865  0.00  0.00    +0.000 A 
ATOM     12  C   UNL     1      -1.886  13.358  21.089  0.00  0.00    +0.000 A 
ENDBRANCH   5   6
BRANCH   4  13
ATOM     13  C   UNL     1      -1.793  10.445  18.518  0.00  0.00    +0.000 A 
ATOM     14  C   UNL     1      -1.571   9.768  17.300  0.00  0.00    +0.000 A 
ATOM     15  C   UNL     1      -2.283  10.079  16.133  0.00  0.00    +0.000 A 
ATOM     16  C   UNL     1      -3.294  11.028  16.177  0.00  0.00    +0.000 A 
ATOM     17  C   UNL     1      -3.614  11.649  17.371  0.00  0.00    +0.000 A 
ATOM     18  C   UNL     1      -2.869  11.364  18.517  0.00  0.00    +0.000 A 
BRANCH  16  19
ATOM     19  O   UNL     1      -4.003  11.375  15.069  0.00  0.00    +0.000 OA
ATOM     20  H   UNL     1      -4.912  11.588  15.335  0.00  0.00    +0.000 HD
ENDBRANCH  16  19
ENDBRANCH   4  13
BRANCH   3  21
ATOM     21  C   UNL     1       1.425  10.462  18.301  0.00  0.00    +0.000 C 
BRANCH  21  22
ATOM     22  O   UNL     1       2.301  11.578  18.465  0.00  0.00    +0.000 OA
ATOM     23  H   UNL     1       2.764  11.499  19.318  0.00  0.00    +0.000 HD
ENDBRANCH  21  22
BRANCH  21  24
ATOM     24  C   UNL     1       2.249   9.265  17.798  0.00  0.00    +0.000 C 
BRANCH  24  25
ATOM     25  O   UNL     1       2.166   8.179  18.718  0.00  0.00    +0.000 OA
BRANCH  25  26
ATOM     26  C   UNL     1       2.716   7.005  18.272  0.00  0.00    +0.000 A 
ATOM     27  C   UNL     1       2.140   5.742  18.441  0.00  0.00    +0.000 A 
ATOM     28  C   UNL     1       2.764   4.608  17.924  0.00  0.00    +0.000 A 
ATOM     29  C   UNL     1       3.957   4.742  17.227  0.00  0.00    +0.000 A 
ATOM     30  F   UNL     1       4.551   3.652  16.724  0.00  0.00    +0.000 F 
ATOM     31  C   UNL     1       4.535   5.991  17.034  0.00  0.00    +0.000 A 
ATOM     32  C   UNL     1       3.909   7.126  17.554  0.00  0.00    +0.000 A 
ENDBRANCH  25  26
ENDBRANCH  24  25
ENDBRANCH  21  24
ENDBRANCH   3  21
TORSDOF 8
ENDMDL
MODEL 8
REMARK VINA RESULT:      -7.4      4.274      6.866
REMARK  Name = 
REMARK  8 active torsions:
REMARK  status: ('A' for Active; 'I' for Inactive)
REMARK    1  A    between atoms: C_3  and  C_4
REMARK    2  A    between atoms: C_4  and  O_5
REMARK    3  A    between atoms: C_4  and  C_6
REMARK    4  A    between atoms: C_6  and  O_7
REMARK    5  A    between atoms: O_7  and  C_8
REMARK    6  A    between atoms: C_15  and  C_16
REMARK    7  A    between atoms: C_19  and  O_20
REMARK    8  A    between atoms: N_23  and  C_24
REMARK                            x       y       z     vdW  Elec       q    Type
REMARK                         _______ _______ _______ _____ _____    ______ ____
ROOT
ATOM      1  O   UNL     1       4.941   6.415  19.565  0.00  0.00    +0.000 OA
ATOM      2  C   UNL     1       5.536   5.726  18.756  0.00  0.00    +0.000 C 
ATOM      3  C   UNL     1       6.963   5.683  18.191  0.00  0.00    +0.000 C 
ATOM      4  C   UNL     1       6.474   4.372  17.449  0.00  0.00    +0.000 C 
ATOM      5  N   UNL     1       5.144   4.689  17.993  0.00  0.00    +0.000 N 
ENDROOT
BRANCH   5   6
ATOM      6  C   UNL     1       3.971   3.950  18.041  0.00  0.00    +0.000 A 
ATOM      7  C   UNL     1       2.755   4.502  17.614  0.00  0.00    +0.000 A 
ATOM      8  C   UNL     1       1.574   3.772  17.746  0.00  0.00    +0.000 A 
ATOM      9  C   UNL     1       1.613   2.511  18.327  0.00  0.00    +0.000 A 
ATOM     10  F   UNL     1       0.473   1.828  18.498  0.00  0.00    +0.000 F 
ATOM     11  C   UNL     1       2.813   1.946  18.738  0.00  0.00    +0.000 A 
ATOM     12  C   UNL     1       3.999   2.656  18.564  0.00  0.00    +0.000 A 
ENDBRANCH   5   6
BRANCH   4  13
ATOM     13  C   UNL     1       6.589   4.269  15.854  0.00  0.00    +0.000 A 
ATOM     14  C   UNL     1       7.592   4.954  15.137  0.00  0.00    +0.000 A 
ATOM     15  C   UNL     1       7.610   4.997  13.736  0.00  0.00    +0.000 A 
ATOM     16  C   UNL     1       6.662   4.287  13.014  0.00  0.00    +0.000 A 
ATOM     17  C   UNL     1       5.717   3.521  13.672  0.00  0.00    +0.000 A 
ATOM     18  C   UNL     1       5.681   3.521  15.067  0.00  0.00    +0.000 A 
BRANCH  16  19
ATOM     19  O   UNL     1       6.628   4.310  11.654  0.00  0.00    +0.000 OA
ATOM     20  H   UNL     1       6.155   3.522  11.341  0.00  0.00    +0.000 HD
ENDBRANCH  16  19
ENDBRANCH   4  13
BRANCH   3  21
ATOM     21  C   UNL     1       7.376   6.959  17.450  0.00  0.00    +0.000 C 
BRANCH  21  22
ATOM     22  O   UNL     1       6.226   7.693  17.027  0.00  0.00    +0.000 OA
ATOM     23  H   UNL     1       6.406   8.096  16.159  0.00  0.00    +0.000 HD
ENDBRANCH  21  22
BRANCH  21  24
ATOM     24  C   UNL     1       8.233   7.869  18.346  0.00  0.00    +0.000 C 
BRANCH  24  25
ATOM     25  O   UNL     1       8.069   9.235  17.971  0.00  0.00    +0.000 OA
BRANCH  25  26
ATOM     26  C   UNL     1       8.946  10.104  18.569  0.00  0.00    +0.000 A 
ATOM     27  C   UNL     1       9.082  10.271  19.951  0.00  0.00    +0.000 A 
ATOM     28  C   UNL     1      10.026  11.160  20.463  0.00  0.00    +0.000 A 
ATOM     29  C   UNL     1      10.841  11.870  19.592  0.00  0.00    +0.000 A 
ATOM     30  F   UNL     1      11.753  12.717  20.087  0.00  0.00    +0.000 F 
ATOM     31  C   UNL     1      10.732  11.702  18.217  0.00  0.00    +0.000 A 
ATOM     32  C   UNL     1       9.785  10.813  17.705  0.00  0.00    +0.000 A 
ENDBRANCH  25  26
ENDBRANCH  24  25
ENDBRANCH  21  24
ENDBRANCH   3  21
TORSDOF 8
ENDMDL
MODEL 9
REMARK VINA RESULT:      -7.4      3.007      6.691
REMARK  Name = 
REMARK  8 active torsions:
REMARK  status: ('A' for Active; 'I' for Inactive)
REMARK    1  A    between atoms: C_3  and  C_4
REMARK    2  A    between atoms: C_4  and  O_5
REMARK    3  A    between atoms: C_4  and  C_6
REMARK    4  A    between atoms: C_6  and  O_7
REMARK    5  A    between atoms: O_7  and  C_8
REMARK    6  A    between atoms: C_15  and  C_16
REMARK    7  A    between atoms: C_19  and  O_20
REMARK    8  A    between atoms: N_23  and  C_24
REMARK                            x       y       z     vdW  Elec       q    Type
REMARK                         _______ _______ _______ _____ _____    ______ ____
ROOT
ATOM      1  O   UNL     1       7.629   5.278  15.615  0.00  0.00    +0.000 OA
ATOM      2  C   UNL     1       6.811   5.379  16.511  0.00  0.00    +0.000 C 
ATOM      3  C   UNL     1       5.630   4.537  17.018  0.00  0.00    +0.000 C 
ATOM      4  C   UNL     1       5.554   5.610  18.181  0.00  0.00    +0.000 C 
ATOM      5  N   UNL     1       6.605   6.327  17.442  0.00  0.00    +0.000 N 
ENDROOT
BRANCH   5   6
ATOM      6  C   UNL     1       7.403   7.407  17.796  0.00  0.00    +0.000 A 
ATOM      7  C   UNL     1       8.356   7.293  18.817  0.00  0.00    +0.000 A 
ATOM      8  C   UNL     1       9.090   8.411  19.213  0.00  0.00    +0.000 A 
ATOM      9  C   UNL     1       8.846   9.636  18.606  0.00  0.00    +0.000 A 
ATOM     10  F   UNL     1       9.517  10.721  19.018  0.00  0.00    +0.000 F 
ATOM     11  C   UNL     1       7.916   9.759  17.582  0.00  0.00    +0.000 A 
ATOM     12  C   UNL     1       7.217   8.633  17.154  0.00  0.00    +0.000 A 
ENDBRANCH   5   6
BRANCH   4  13
ATOM     13  C   UNL     1       4.188   6.409  18.439  0.00  0.00    +0.000 A 
ATOM     14  C   UNL     1       3.748   7.427  17.568  0.00  0.00    +0.000 A 
ATOM     15  C   UNL     1       2.642   8.236  17.863  0.00  0.00    +0.000 A 
ATOM     16  C   UNL     1       1.900   7.992  19.010  0.00  0.00    +0.000 A 
ATOM     17  C   UNL     1       2.234   6.942  19.846  0.00  0.00    +0.000 A 
ATOM     18  C   UNL     1       3.363   6.171  19.564  0.00  0.00    +0.000 A 
BRANCH  16  19
ATOM     19  O   UNL     1       0.827   8.758  19.348  0.00  0.00    +0.000 OA
ATOM     20  H   UNL     1       1.117   9.440  19.975  0.00  0.00    +0.000 HD
ENDBRANCH  16  19
ENDBRANCH   4  13
BRANCH   3  21
ATOM     21  C   UNL     1       4.516   4.343  15.984  0.00  0.00    +0.000 C 
BRANCH  21  22
ATOM     22  O   UNL     1       5.036   3.770  14.784  0.00  0.00    +0.000 OA
ATOM     23  H   UNL     1       5.914   4.148  14.603  0.00  0.00    +0.000 HD
ENDBRANCH  21  22
BRANCH  21  24
ATOM     24  C   UNL     1       3.409   3.423  16.525  0.00  0.00    +0.000 C 
BRANCH  24  25
ATOM     25  O   UNL     1       3.886   2.667  17.635  0.00  0.00    +0.000 OA
BRANCH  25  26
ATOM     26  C   UNL     1       3.078   2.701  18.743  0.00  0.00    +0.000 A 
ATOM     27  C   UNL     1       1.683   2.797  18.707  0.00  0.00    +0.000 A 
ATOM     28  C   UNL     1       0.947   2.794  19.890  0.00  0.00    +0.000 A 
ATOM     29  C   UNL     1       1.606   2.681  21.106  0.00  0.00    +0.000 A 
ATOM     30  F   UNL     1       0.895   2.669  22.241  0.00  0.00    +0.000 F 
ATOM     31  C   UNL     1       2.990   2.565  21.160  0.00  0.00    +0.000 A 
ATOM     32  C   UNL     1       3.727   2.570  19.974  0.00  0.00    +0.000 A 
ENDBRANCH  25  26
ENDBRANCH  24  25
ENDBRANCH  21  24
ENDBRANCH   3  21
TORSDOF 8
ENDMDL
