MODEL 1
REMARK VINA RESULT:      -7.6      0.000      0.000
REMARK  Name = 
REMARK  6 active torsions:
REMARK  status: ('A' for Active; 'I' for Inactive)
REMARK    1  A    between atoms: C_1  and  N_2
REMARK    2  A    between atoms: C_6  and  S_7
REMARK    3  A    between atoms: S_7  and  C_8
REMARK    4  A    between atoms: C_8  and  C_9
REMARK    5  A    between atoms: N_11  and  C_12
REMARK    6  A    between atoms: C_12  and  C_13
REMARK                            x       y       z     vdW  Elec       q    Type
REMARK                         _______ _______ _______ _____ _____    ______ ____
ROOT
ATOM      1  C   UNL     1       2.056   4.126  20.902  0.00  0.00    +0.000 C 
ATOM      2  N   UNL     1       3.079   4.375  19.894  0.00  0.00    +0.000 N 
ATOM      3  C   UNL     1       3.975   3.355  19.612  0.00  0.00    +0.000 A 
ATOM      4  O   UNL     1       3.962   2.245  20.139  0.00  0.00    +0.000 OA
ATOM      5  C   UNL     1       5.038   3.639  18.628  0.00  0.00    +0.000 A 
ATOM      6  C   UNL     1       5.121   4.800  17.969  0.00  0.00    +0.000 A 
ATOM      7  C   UNL     1       4.115   5.857  18.228  0.00  0.00    +0.000 A 
ATOM      8  C   UNL     1       4.102   7.083  17.534  0.00  0.00    +0.000 A 
ATOM      9  C   UNL     1       3.151   8.068  17.817  0.00  0.00    +0.000 A 
ATOM     10  C   UNL     1       2.205   7.847  18.805  0.00  0.00    +0.000 A 
ATOM     11 CL   UNL     1       1.040   9.061  19.164  0.00  0.00    +0.000 Cl
ATOM     12  C   UNL     1       2.187   6.642  19.502  0.00  0.00    +0.000 A 
ATOM     13  C   UNL     1       3.125   5.633  19.213  0.00  0.00    +0.000 A 
ENDROOT
BRANCH   6  14
ATOM     14  S   UNL     1       6.490   5.126  16.937  0.00  0.00    +0.000 S 
BRANCH  14  15
ATOM     15  C   UNL     1       7.641   5.935  18.089  0.00  0.00    +0.000 C 
BRANCH  15  16
ATOM     16  C   UNL     1       7.751   7.427  17.806  0.00  0.00    +0.000 C 
ATOM     17  O   UNL     1       7.260   7.929  16.794  0.00  0.00    +0.000 OA
ATOM     18  N   UNL     1       8.514   8.157  18.703  0.00  0.00    +0.000 N 
ATOM     19  H   UNL     1       8.550   7.801  19.653  0.00  0.00    +0.000 HD
BRANCH  18  20
ATOM     20  C   UNL     1       8.608   9.600  18.546  0.00  0.00    +0.000 C 
BRANCH  20  21
ATOM     21  C   UNL     1       9.679  10.273  19.404  0.00  0.00    +0.000 C 
ATOM     22  C   UNL     1       9.188  11.110  20.571  0.00  0.00    +0.000 C 
ATOM     23  C   UNL     1      10.440  11.895  20.898  0.00  0.00    +0.000 C 
ATOM     24  C   UNL     1      11.037  12.155  19.525  0.00  0.00    +0.000 C 
ATOM     25  O   UNL     1      10.486  11.176  18.625  0.00  0.00    +0.000 OA
ENDBRANCH  20  21
ENDBRANCH  18  20
ENDBRANCH  15  16
ENDBRANCH  14  15
ENDBRANCH   6  14
TORSDOF 5
ENDMDL
MODEL 2
REMARK VINA RESULT:      -7.6      3.881      6.076
REMARK  Name = 
REMARK  6 active torsions:
REMARK  status: ('A' for Active; 'I' for Inactive)
REMARK    1  A    between atoms: C_1  and  N_2
REMARK    2  A    between atoms: C_6  and  S_7
REMARK    3  A    between atoms: S_7  and  C_8
REMARK    4  A    between atoms: C_8  and  C_9
REMARK    5  A    between atoms: N_11  and  C_12
REMARK    6  A    between atoms: C_12  and  C_13
REMARK                            x       y       z     vdW  Elec       q    Type
REMARK                         _______ _______ _______ _____ _____    ______ ____
ROOT
ATOM      1  C   UNL     1       1.855   3.543  21.188  0.00  0.00    +0.000 C 
ATOM      2  N   UNL     1       2.461   4.256  20.071  0.00  0.00    +0.000 N 
ATOM      3  C   UNL     1       3.212   3.524  19.165  0.00  0.00    +0.000 A 
ATOM      4  O   UNL     1       3.393   2.310  19.223  0.00  0.00    +0.000 OA
ATOM      5  C   UNL     1       3.865   4.267  18.068  0.00  0.00    +0.000 A 
ATOM      6  C   UNL     1       3.703   5.583  17.891  0.00  0.00    +0.000 A 
ATOM      7  C   UNL     1       2.840   6.342  18.826  0.00  0.00    +0.000 A 
ATOM      8  C   UNL     1       2.575   7.718  18.673  0.00  0.00    +0.000 A 
ATOM      9  C   UNL     1       1.773   8.410  19.585  0.00  0.00    +0.000 A 
ATOM     10  C   UNL     1       1.232   7.739  20.671  0.00  0.00    +0.000 A 
ATOM     11 CL   UNL     1       0.253   8.589  21.802  0.00  0.00    +0.000 Cl
ATOM     12  C   UNL     1       1.468   6.378  20.844  0.00  0.00    +0.000 A 
ATOM     13  C   UNL     1       2.257   5.664  19.922  0.00  0.00    +0.000 A 
ENDROOT
BRANCH   6  14
ATOM     14  S   UNL     1       4.624   6.422  16.670  0.00  0.00    +0.000 S 
BRANCH  14  15
ATOM     15  C   UNL     1       6.331   6.003  17.137  0.00  0.00    +0.000 C 
BRANCH  15  16
ATOM     16  C   UNL     1       7.034   5.227  16.031  0.00  0.00    +0.000 C 
ATOM     17  O   UNL     1       7.947   4.439  16.277  0.00  0.00    +0.000 OA
ATOM     18  N   UNL     1       6.647   5.537  14.737  0.00  0.00    +0.000 N 
ATOM     19  H   UNL     1       5.693   5.864  14.622  0.00  0.00    +0.000 HD
BRANCH  18  20
ATOM     20  C   UNL     1       7.216   4.789  13.628  0.00  0.00    +0.000 C 
BRANCH  20  21
ATOM     21  C   UNL     1       6.347   3.641  13.111  0.00  0.00    +0.000 C 
ATOM     22  C   UNL     1       6.794   2.979  11.822  0.00  0.00    +0.000 C 
ATOM     23  C   UNL     1       5.536   2.227  11.444  0.00  0.00    +0.000 C 
ATOM     24  C   UNL     1       4.436   3.183  11.872  0.00  0.00    +0.000 C 
ATOM     25  O   UNL     1       5.001   4.079  12.847  0.00  0.00    +0.000 OA
ENDBRANCH  20  21
ENDBRANCH  18  20
ENDBRANCH  15  16
ENDBRANCH  14  15
ENDBRANCH   6  14
TORSDOF 5
ENDMDL
MODEL 3
REMARK VINA RESULT:      -7.4      5.434      7.672
REMARK  Name = 
REMARK  6 active torsions:
REMARK  status: ('A' for Active; 'I' for Inactive)
REMARK    1  A    between atoms: C_1  and  N_2
REMARK    2  A    between atoms: C_6  and  S_7
REMARK    3  A    between atoms: S_7  and  C_8
REMARK    4  A    between atoms: C_8  and  C_9
REMARK    5  A    between atoms: N_11  and  C_12
REMARK    6  A    between atoms: C_12  and  C_13
REMARK                            x       y       z     vdW  Elec       q    Type
REMARK                         _______ _______ _______ _____ _____    ______ ____
ROOT
ATOM      1  C   UNL     1       3.226   1.926  18.102  0.00  0.00    +0.000 C 
ATOM      2  N   UNL     1       3.054   3.356  18.318  0.00  0.00    +0.000 N 
ATOM      3  C   UNL     1       2.201   3.762  19.332  0.00  0.00    +0.000 A 
ATOM      4  O   UNL     1       1.588   3.003  20.078  0.00  0.00    +0.000 OA
ATOM      5  C   UNL     1       1.994   5.214  19.505  0.00  0.00    +0.000 A 
ATOM      6  C   UNL     1       2.640   6.128  18.772  0.00  0.00    +0.000 A 
ATOM      7  C   UNL     1       3.604   5.682  17.738  0.00  0.00    +0.000 A 
ATOM      8  C   UNL     1       4.364   6.583  16.966  0.00  0.00    +0.000 A 
ATOM      9  C   UNL     1       5.249   6.130  15.983  0.00  0.00    +0.000 A 
ATOM     10  C   UNL     1       5.381   4.770  15.750  0.00  0.00    +0.000 A 
ATOM     11 CL   UNL     1       6.461   4.209  14.534  0.00  0.00    +0.000 Cl
ATOM     12  C   UNL     1       4.650   3.855  16.503  0.00  0.00    +0.000 A 
ATOM     13  C   UNL     1       3.770   4.296  17.510  0.00  0.00    +0.000 A 
ENDROOT
BRANCH   6  14
ATOM     14  S   UNL     1       2.235   7.818  18.922  0.00  0.00    +0.000 S 
BRANCH  14  15
ATOM     15  C   UNL     1       1.696   7.919  20.656  0.00  0.00    +0.000 C 
BRANCH  15  16
ATOM     16  C   UNL     1       0.487   8.833  20.809  0.00  0.00    +0.000 C 
ATOM     17  O   UNL     1      -0.429   8.566  21.586  0.00  0.00    +0.000 OA
ATOM     18  N   UNL     1       0.443   9.922  19.952  0.00  0.00    +0.000 N 
ATOM     19  H   UNL     1       1.339  10.287  19.646  0.00  0.00    +0.000 HD
BRANCH  18  20
ATOM     20  C   UNL     1      -0.640  10.884  20.084  0.00  0.00    +0.000 C 
BRANCH  20  21
ATOM     21  C   UNL     1      -1.489  11.075  18.826  0.00  0.00    +0.000 C 
ATOM     22  C   UNL     1      -2.782  11.850  18.991  0.00  0.00    +0.000 C 
ATOM     23  C   UNL     1      -3.491  11.487  17.704  0.00  0.00    +0.000 C 
ATOM     24  C   UNL     1      -3.090  10.035  17.503  0.00  0.00    +0.000 C 
ATOM     25  O   UNL     1      -1.892   9.810  18.268  0.00  0.00    +0.000 OA
ENDBRANCH  20  21
ENDBRANCH  18  20
ENDBRANCH  15  16
ENDBRANCH  14  15
ENDBRANCH   6  14
TORSDOF 5
ENDMDL
MODEL 4
REMARK VINA RESULT:      -7.3      5.129      8.151
REMARK  Name = 
REMARK  6 active torsions:
REMARK  status: ('A' for Active; 'I' for Inactive)
REMARK    1  A    between atoms: C_1  and  N_2
REMARK    2  A    between atoms: C_6  and  S_7
REMARK    3  A    between atoms: S_7  and  C_8
REMARK    4  A    between atoms: C_8  and  C_9
REMARK    5  A    between atoms: N_11  and  C_12
REMARK    6  A    between atoms: C_12  and  C_13
REMARK                            x       y       z     vdW  Elec       q    Type
REMARK                         _______ _______ _______ _____ _____    ______ ____
ROOT
ATOM      1  C   UNL     1       3.908   2.964  19.700  0.00  0.00    +0.000 C 
ATOM      2  N   UNL     1       3.534   4.323  19.332  0.00  0.00    +0.000 N 
ATOM      3  C   UNL     1       2.653   5.001  20.161  0.00  0.00    +0.000 A 
ATOM      4  O   UNL     1       2.173   4.545  21.196  0.00  0.00    +0.000 OA
ATOM      5  C   UNL     1       2.241   6.358  19.749  0.00  0.00    +0.000 A 
ATOM      6  C   UNL     1       2.732   6.962  18.662  0.00  0.00    +0.000 A 
ATOM      7  C   UNL     1       3.727   6.254  17.822  0.00  0.00    +0.000 A 
ATOM      8  C   UNL     1       4.331   6.845  16.694  0.00  0.00    +0.000 A 
ATOM      9  C   UNL     1       5.250   6.142  15.910  0.00  0.00    +0.000 A 
ATOM     10  C   UNL     1       5.573   4.834  16.236  0.00  0.00    +0.000 A 
ATOM     11 CL   UNL     1       6.696   3.961  15.268  0.00  0.00    +0.000 Cl
ATOM     12  C   UNL     1       5.000   4.226  17.350  0.00  0.00    +0.000 A 
ATOM     13  C   UNL     1       4.088   4.929  18.160  0.00  0.00    +0.000 A 
ENDROOT
BRANCH   6  14
ATOM     14  S   UNL     1       2.088   8.500  18.149  0.00  0.00    +0.000 S 
BRANCH  14  15
ATOM     15  C   UNL     1       1.413   9.159  19.704  0.00  0.00    +0.000 C 
BRANCH  15  16
ATOM     16  C   UNL     1       0.490  10.344  19.450  0.00  0.00    +0.000 C 
ATOM     17  O   UNL     1       0.907  11.502  19.471  0.00  0.00    +0.000 OA
ATOM     18  N   UNL     1      -0.853  10.039  19.292  0.00  0.00    +0.000 N 
ATOM     19  H   UNL     1      -1.062   9.122  18.910  0.00  0.00    +0.000 HD
BRANCH  18  20
ATOM     20  C   UNL     1      -1.789  11.105  18.972  0.00  0.00    +0.000 C 
BRANCH  20  21
ATOM     21  C   UNL     1      -2.870  10.730  17.958  0.00  0.00    +0.000 C 
ATOM     22  C   UNL     1      -2.432  10.612  16.511  0.00  0.00    +0.000 C 
ATOM     23  C   UNL     1      -3.773  10.639  15.810  0.00  0.00    +0.000 C 
ATOM     24  C   UNL     1      -4.566  11.628  16.648  0.00  0.00    +0.000 C 
ATOM     25  O   UNL     1      -3.932  11.703  17.938  0.00  0.00    +0.000 OA
ENDBRANCH  20  21
ENDBRANCH  18  20
ENDBRANCH  15  16
ENDBRANCH  14  15
ENDBRANCH   6  14
TORSDOF 5
ENDMDL
MODEL 5
REMARK VINA RESULT:      -7.1      1.345      1.499
REMARK  Name = 
REMARK  6 active torsions:
REMARK  status: ('A' for Active; 'I' for Inactive)
REMARK    1  A    between atoms: C_1  and  N_2
REMARK    2  A    between atoms: C_6  and  S_7
REMARK    3  A    between atoms: S_7  and  C_8
REMARK    4  A    between atoms: C_8  and  C_9
REMARK    5  A    between atoms: N_11  and  C_12
REMARK    6  A    between atoms: C_12  and  C_13
REMARK                            x       y       z     vdW  Elec       q    Type
REMARK                         _______ _______ _______ _____ _____    ______ ____
ROOT
ATOM      1  C   UNL     1       2.763   3.746  20.771  0.00  0.00    +0.000 C 
ATOM      2  N   UNL     1       3.366   4.226  19.534  0.00  0.00    +0.000 N 
ATOM      3  C   UNL     1       4.113   3.330  18.785  0.00  0.00    +0.000 A 
ATOM      4  O   UNL     1       4.293   2.150  19.078  0.00  0.00    +0.000 OA
ATOM      5  C   UNL     1       4.763   3.843  17.563  0.00  0.00    +0.000 A 
ATOM      6  C   UNL     1       4.602   5.100  17.132  0.00  0.00    +0.000 A 
ATOM      7  C   UNL     1       3.743   6.028  17.905  0.00  0.00    +0.000 A 
ATOM      8  C   UNL     1       3.479   7.348  17.487  0.00  0.00    +0.000 A 
ATOM      9  C   UNL     1       2.682   8.206  18.249  0.00  0.00    +0.000 A 
ATOM     10  C   UNL     1       2.143   7.762  19.447  0.00  0.00    +0.000 A 
ATOM     11 CL   UNL     1       1.170   8.818  20.394  0.00  0.00    +0.000 Cl
ATOM     12  C   UNL     1       2.378   6.461  19.882  0.00  0.00    +0.000 A 
ATOM     13  C   UNL     1       3.163   5.579  19.114  0.00  0.00    +0.000 A 
ENDROOT
BRANCH   6  14
ATOM     14  S   UNL     1       5.520   5.683  15.769  0.00  0.00    +0.000 S 
BRANCH  14  15
ATOM     15  C   UNL     1       7.223   5.597  16.401  0.00  0.00    +0.000 C 
BRANCH  15  16
ATOM     16  C   UNL     1       7.433   6.563  17.560  0.00  0.00    +0.000 C 
ATOM     17  O   UNL     1       7.515   6.166  18.722  0.00  0.00    +0.000 OA
ATOM     18  N   UNL     1       7.428   7.909  17.232  0.00  0.00    +0.000 N 
ATOM     19  H   UNL     1       7.739   8.142  16.294  0.00  0.00    +0.000 HD
BRANCH  18  20
ATOM     20  C   UNL     1       7.697   8.893  18.268  0.00  0.00    +0.000 C 
BRANCH  20  21
ATOM     21  C   UNL     1       8.728   9.958  17.895  0.00  0.00    +0.000 C 
ATOM     22  C   UNL     1       9.745  10.322  18.961  0.00  0.00    +0.000 C 
ATOM     23  C   UNL     1      10.288  11.617  18.397  0.00  0.00    +0.000 C 
ATOM     24  C   UNL     1       9.054  12.255  17.781  0.00  0.00    +0.000 C 
ATOM     25  O   UNL     1       8.096  11.206  17.555  0.00  0.00    +0.000 OA
ENDBRANCH  20  21
ENDBRANCH  18  20
ENDBRANCH  15  16
ENDBRANCH  14  15
ENDBRANCH   6  14
TORSDOF 5
ENDMDL
MODEL 6
REMARK VINA RESULT:      -7.1      4.987      7.884
REMARK  Name = 
REMARK  6 active torsions:
REMARK  status: ('A' for Active; 'I' for Inactive)
REMARK    1  A    between atoms: C_1  and  N_2
REMARK    2  A    between atoms: C_6  and  S_7
REMARK    3  A    between atoms: S_7  and  C_8
REMARK    4  A    between atoms: C_8  and  C_9
REMARK    5  A    between atoms: N_11  and  C_12
REMARK    6  A    between atoms: C_12  and  C_13
REMARK                            x       y       z     vdW  Elec       q    Type
REMARK                         _______ _______ _______ _____ _____    ______ ____
ROOT
ATOM      1  C   UNL     1       2.728   2.125  17.508  0.00  0.00    +0.000 C 
ATOM      2  N   UNL     1       2.693   3.497  17.999  0.00  0.00    +0.000 N 
ATOM      3  C   UNL     1       1.798   3.801  19.012  0.00  0.00    +0.000 A 
ATOM      4  O   UNL     1       1.039   2.994  19.543  0.00  0.00    +0.000 OA
ATOM      5  C   UNL     1       1.737   5.206  19.464  0.00  0.00    +0.000 A 
ATOM      6  C   UNL     1       2.545   6.156  18.981  0.00  0.00    +0.000 A 
ATOM      7  C   UNL     1       3.547   5.802  17.948  0.00  0.00    +0.000 A 
ATOM      8  C   UNL     1       4.470   6.733  17.431  0.00  0.00    +0.000 A 
ATOM      9  C   UNL     1       5.389   6.373  16.441  0.00  0.00    +0.000 A 
ATOM     10  C   UNL     1       5.391   5.079  15.944  0.00  0.00    +0.000 A 
ATOM     11 CL   UNL     1       6.513   4.634  14.717  0.00  0.00    +0.000 Cl
ATOM     12  C   UNL     1       4.498   4.134  16.440  0.00  0.00    +0.000 A 
ATOM     13  C   UNL     1       3.581   4.478  17.453  0.00  0.00    +0.000 A 
ENDROOT
BRANCH   6  14
ATOM     14  S   UNL     1       2.314   7.821  19.446  0.00  0.00    +0.000 S 
BRANCH  14  15
ATOM     15  C   UNL     1       1.737   8.566  17.890  0.00  0.00    +0.000 C 
BRANCH  15  16
ATOM     16  C   UNL     1       1.045   9.900  18.137  0.00  0.00    +0.000 C 
ATOM     17  O   UNL     1       1.678  10.903  18.468  0.00  0.00    +0.000 OA
ATOM     18  N   UNL     1      -0.339   9.885  18.061  0.00  0.00    +0.000 N 
ATOM     19  H   UNL     1      -0.745   9.192  17.441  0.00  0.00    +0.000 HD
BRANCH  18  20
ATOM     20  C   UNL     1      -1.071  11.132  18.210  0.00  0.00    +0.000 C 
BRANCH  20  21
ATOM     21  C   UNL     1      -2.167  11.365  17.170  0.00  0.00    +0.000 C 
ATOM     22  C   UNL     1      -3.587  11.475  17.692  0.00  0.00    +0.000 C 
ATOM     23  C   UNL     1      -4.370  11.294  16.410  0.00  0.00    +0.000 C 
ATOM     24  C   UNL     1      -3.544  10.263  15.658  0.00  0.00    +0.000 C 
ATOM     25  O   UNL     1      -2.215  10.294  16.208  0.00  0.00    +0.000 OA
ENDBRANCH  20  21
ENDBRANCH  18  20
ENDBRANCH  15  16
ENDBRANCH  14  15
ENDBRANCH   6  14
TORSDOF 5
ENDMDL
MODEL 7
REMARK VINA RESULT:      -7.0      5.095      6.315
REMARK  Name = 
REMARK  6 active torsions:
REMARK  status: ('A' for Active; 'I' for Inactive)
REMARK    1  A    between atoms: C_1  and  N_2
REMARK    2  A    between atoms: C_6  and  S_7
REMARK    3  A    between atoms: S_7  and  C_8
REMARK    4  A    between atoms: C_8  and  C_9
REMARK    5  A    between atoms: N_11  and  C_12
REMARK    6  A    between atoms: C_12  and  C_13
REMARK                            x       y       z     vdW  Elec       q    Type
REMARK                         _______ _______ _______ _____ _____    ______ ____
ROOT
ATOM      1  C   UNL     1       2.593   1.860  18.725  0.00  0.00    +0.000 C 
ATOM      2  N   UNL     1       2.555   3.306  18.906  0.00  0.00    +0.000 N 
ATOM      3  C   UNL     1       1.757   3.813  19.919  0.00  0.00    +0.000 A 
ATOM      4  O   UNL     1       1.087   3.131  20.691  0.00  0.00    +0.000 OA
ATOM      5  C   UNL     1       1.686   5.281  20.058  0.00  0.00    +0.000 A 
ATOM      6  C   UNL     1       2.404   6.114  19.295  0.00  0.00    +0.000 A 
ATOM      7  C   UNL     1       3.308   5.556  18.262  0.00  0.00    +0.000 A 
ATOM      8  C   UNL     1       4.137   6.364  17.458  0.00  0.00    +0.000 A 
ATOM      9  C   UNL     1       4.964   5.809  16.477  0.00  0.00    +0.000 A 
ATOM     10  C   UNL     1       4.967   4.437  16.277  0.00  0.00    +0.000 A 
ATOM     11 CL   UNL     1       5.974   3.750  15.063  0.00  0.00    +0.000 Cl
ATOM     12  C   UNL     1       4.166   3.611  17.061  0.00  0.00    +0.000 A 
ATOM     13  C   UNL     1       3.343   4.155  18.067  0.00  0.00    +0.000 A 
ENDROOT
BRANCH   6  14
ATOM     14  S   UNL     1       2.157   7.837  19.407  0.00  0.00    +0.000 S 
BRANCH  14  15
ATOM     15  C   UNL     1       1.357   7.994  21.033  0.00  0.00    +0.000 C 
BRANCH  15  16
ATOM     16  C   UNL     1       0.885   9.420  21.283  0.00  0.00    +0.000 C 
ATOM     17  O   UNL     1       0.855   9.900  22.416  0.00  0.00    +0.000 OA
ATOM     18  N   UNL     1       0.406  10.100  20.174  0.00  0.00    +0.000 N 
ATOM     19  H   UNL     1       0.799   9.828  19.279  0.00  0.00    +0.000 HD
BRANCH  18  20
ATOM     20  C   UNL     1       0.006  11.491  20.314  0.00  0.00    +0.000 C 
BRANCH  20  21
ATOM     21  C   UNL     1       1.072  12.512  19.914  0.00  0.00    +0.000 C 
ATOM     22  C   UNL     1       0.573  13.843  19.386  0.00  0.00    +0.000 C 
ATOM     23  C   UNL     1       1.836  14.382  18.750  0.00  0.00    +0.000 C 
ATOM     24  C   UNL     1       2.476  13.131  18.170  0.00  0.00    +0.000 C 
ATOM     25  O   UNL     1       1.923  12.002  18.870  0.00  0.00    +0.000 OA
ENDBRANCH  20  21
ENDBRANCH  18  20
ENDBRANCH  15  16
ENDBRANCH  14  15
ENDBRANCH   6  14
TORSDOF 5
ENDMDL
MODEL 8
REMARK VINA RESULT:      -7.0      5.102      8.507
REMARK  Name = 
REMARK  6 active torsions:
REMARK  status: ('A' for Active; 'I' for Inactive)
REMARK    1  A    between atoms: C_1  and  N_2
REMARK    2  A    between atoms: C_6  and  S_7
REMARK    3  A    between atoms: S_7  and  C_8
REMARK    4  A    between atoms: C_8  and  C_9
REMARK    5  A    between atoms: N_11  and  C_12
REMARK    6  A    between atoms: C_12  and  C_13
REMARK                            x       y       z     vdW  Elec       q    Type
REMARK                         _______ _______ _______ _____ _____    ______ ____
ROOT
ATOM      1  C   UNL     1      -1.802  13.592  20.812  0.00  0.00    +0.000 C 
ATOM      2  N   UNL     1      -1.039  12.512  20.200  0.00  0.00    +0.000 N 
ATOM      3  C   UNL     1       0.235  12.261  20.684  0.00  0.00    +0.000 A 
ATOM      4  O   UNL     1       0.768  12.874  21.607  0.00  0.00    +0.000 OA
ATOM      5  C   UNL     1       1.017  11.199  20.020  0.00  0.00    +0.000 A 
ATOM      6  C   UNL     1       0.520  10.447  19.032  0.00  0.00    +0.000 A 
ATOM      7  C   UNL     1      -0.869  10.678  18.571  0.00  0.00    +0.000 A 
ATOM      8  C   UNL     1      -1.483   9.890  17.576  0.00  0.00    +0.000 A 
ATOM      9  C   UNL     1      -2.788  10.147  17.148  0.00  0.00    +0.000 A 
ATOM     10  C   UNL     1      -3.498  11.202  17.701  0.00  0.00    +0.000 A 
ATOM     11 CL   UNL     1      -5.101  11.529  17.169  0.00  0.00    +0.000 Cl
ATOM     12  C   UNL     1      -2.923  11.992  18.692  0.00  0.00    +0.000 A 
ATOM     13  C   UNL     1      -1.615  11.732  19.148  0.00  0.00    +0.000 A 
ENDROOT
BRANCH   6  14
ATOM     14  S   UNL     1       1.548   9.317  18.189  0.00  0.00    +0.000 S 
BRANCH  14  15
ATOM     15  C   UNL     1       1.850   8.061  19.469  0.00  0.00    +0.000 C 
BRANCH  15  16
ATOM     16  C   UNL     1       2.812   6.988  18.976  0.00  0.00    +0.000 C 
ATOM     17  O   UNL     1       3.169   6.933  17.799  0.00  0.00    +0.000 OA
ATOM     18  N   UNL     1       3.178   6.031  19.910  0.00  0.00    +0.000 N 
ATOM     19  H   UNL     1       3.180   6.331  20.879  0.00  0.00    +0.000 HD
BRANCH  18  20
ATOM     20  C   UNL     1       4.151   5.015  19.540  0.00  0.00    +0.000 C 
BRANCH  20  21
ATOM     21  C   UNL     1       3.554   3.662  19.153  0.00  0.00    +0.000 C 
ATOM     22  C   UNL     1       3.498   3.344  17.671  0.00  0.00    +0.000 C 
ATOM     23  C   UNL     1       2.527   2.184  17.671  0.00  0.00    +0.000 C 
ATOM     24  C   UNL     1       1.538   2.578  18.755  0.00  0.00    +0.000 C 
ATOM     25  O   UNL     1       2.190   3.541  19.602  0.00  0.00    +0.000 OA
ENDBRANCH  20  21
ENDBRANCH  18  20
ENDBRANCH  15  16
ENDBRANCH  14  15
ENDBRANCH   6  14
TORSDOF 5
ENDMDL
MODEL 9
REMARK VINA RESULT:      -6.9      5.195      7.408
REMARK  Name = 
REMARK  6 active torsions:
REMARK  status: ('A' for Active; 'I' for Inactive)
REMARK    1  A    between atoms: C_1  and  N_2
REMARK    2  A    between atoms: C_6  and  S_7
REMARK    3  A    between atoms: S_7  and  C_8
REMARK    4  A    between atoms: C_8  and  C_9
REMARK    5  A    between atoms: N_11  and  C_12
REMARK    6  A    between atoms: C_12  and  C_13
REMARK                            x       y       z     vdW  Elec       q    Type
REMARK                         _______ _______ _______ _____ _____    ______ ____
ROOT
ATOM      1  C   UNL     1       3.835   2.693  19.529  0.00  0.00    +0.000 C 
ATOM      2  N   UNL     1       3.500   4.087  19.268  0.00  0.00    +0.000 N 
ATOM      3  C   UNL     1       2.664   4.733  20.166  0.00  0.00    +0.000 A 
ATOM      4  O   UNL     1       2.196   4.222  21.180  0.00  0.00    +0.000 OA
ATOM      5  C   UNL     1       2.291   6.129  19.861  0.00  0.00    +0.000 A 
ATOM      6  C   UNL     1       2.774   6.792  18.805  0.00  0.00    +0.000 A 
ATOM      7  C   UNL     1       3.722   6.112  17.891  0.00  0.00    +0.000 A 
ATOM      8  C   UNL     1       4.318   6.760  16.791  0.00  0.00    +0.000 A 
ATOM      9  C   UNL     1       5.192   6.085  15.935  0.00  0.00    +0.000 A 
ATOM     10  C   UNL     1       5.477   4.747  16.160  0.00  0.00    +0.000 A 
ATOM     11 CL   UNL     1       6.544   3.908  15.102  0.00  0.00    +0.000 Cl
ATOM     12  C   UNL     1       4.911   4.081  17.243  0.00  0.00    +0.000 A 
ATOM     13  C   UNL     1       4.045   4.755  18.126  0.00  0.00    +0.000 A 
ENDROOT
BRANCH   6  14
ATOM     14  S   UNL     1       2.172   8.383  18.419  0.00  0.00    +0.000 S 
BRANCH  14  15
ATOM     15  C   UNL     1       1.296   8.832  19.948  0.00  0.00    +0.000 C 
BRANCH  15  16
ATOM     16  C   UNL     1       0.784  10.265  19.894  0.00  0.00    +0.000 C 
ATOM     17  O   UNL     1       0.345  10.753  18.852  0.00  0.00    +0.000 OA
ATOM     18  N   UNL     1       0.933  11.004  21.057  0.00  0.00    +0.000 N 
ATOM     19  H   UNL     1       0.925  10.478  21.925  0.00  0.00    +0.000 HD
BRANCH  18  20
ATOM     20  C   UNL     1       0.403  12.357  21.111  0.00  0.00    +0.000 C 
BRANCH  20  21
ATOM     21  C   UNL     1      -0.666  12.588  22.180  0.00  0.00    +0.000 C 
ATOM     22  C   UNL     1      -1.392  11.358  22.690  0.00  0.00    +0.000 C 
ATOM     23  C   UNL     1      -2.577  12.000  23.379  0.00  0.00    +0.000 C 
ATOM     24  C   UNL     1      -2.895  13.173  22.468  0.00  0.00    +0.000 C 
ATOM     25  O   UNL     1      -1.711  13.454  21.699  0.00  0.00    +0.000 OA
ENDBRANCH  20  21
ENDBRANCH  18  20
ENDBRANCH  15  16
ENDBRANCH  14  15
ENDBRANCH   6  14
TORSDOF 5
ENDMDL
