MODEL 1
REMARK VINA RESULT:      -8.5      0.000      0.000
REMARK  Name = 
REMARK  5 active torsions:
REMARK  status: ('A' for Active; 'I' for Inactive)
REMARK    1  A    between atoms: C_1  and  C_2
REMARK    2  A    between atoms: C_2  and  C_3
REMARK    3  A    between atoms: C_2  and  C_4
REMARK    4  A    between atoms: C_7  and  C_8
REMARK    5  A    between atoms: C_21  and  C_23
REMARK                            x       y       z     vdW  Elec       q    Type
REMARK                         _______ _______ _______ _____ _____    ______ ____
ROOT
ATOM      1  C   UNL     1       0.361  10.803  19.972  0.00  0.00    +0.000 C 
ATOM      2  C   UNL     1      -0.813  10.692  19.023  0.00  0.00    +0.000 A 
ATOM      3  C   UNL     1      -0.952  10.017  17.822  0.00  0.00    +0.000 A 
ATOM      4  C   UNL     1      -2.089  10.283  17.057  0.00  0.00    +0.000 A 
ATOM      5  C   UNL     1      -3.038  11.233  17.478  0.00  0.00    +0.000 A 
ATOM      6  C   UNL     1      -2.930  11.849  18.726  0.00  0.00    +0.000 A 
ATOM      7  C   UNL     1      -1.833  11.521  19.492  0.00  0.00    +0.000 A 
ATOM      8  C   UNL     1      -1.553  11.803  20.906  0.00  0.00    +0.000 C 
ATOM      9  O   UNL     1      -2.350  12.297  21.680  0.00  0.00    +0.000 OA
ATOM     10  N   UNL     1      -0.340  11.188  21.203  0.00  0.00    +0.000 N 
ATOM     11  C   UNL     1      -0.313  10.123  22.187  0.00  0.00    +0.000 C 
ATOM     12  C   UNL     1       0.263   8.930  21.425  0.00  0.00    +0.000 C 
ATOM     13  N   UNL     1       0.950   9.506  20.272  0.00  0.00    +0.000 N 
ATOM     14  C   UNL     1       1.805   8.877  19.378  0.00  0.00    +0.000 C 
ATOM     15  O   UNL     1       2.379   9.471  18.470  0.00  0.00    +0.000 OA
ENDROOT
BRANCH  14  16
ATOM     16  C   UNL     1       2.018   7.402  19.438  0.00  0.00    +0.000 A 
ATOM     17  C   UNL     1       1.680   6.660  20.570  0.00  0.00    +0.000 A 
ATOM     18  C   UNL     1       1.802   5.269  20.572  0.00  0.00    +0.000 A 
ATOM     19  C   UNL     1       2.198   4.613  19.414  0.00  0.00    +0.000 A 
ATOM     20  F   UNL     1       2.268   3.277  19.409  0.00  0.00    +0.000 F 
ATOM     21  C   UNL     1       2.481   5.325  18.255  0.00  0.00    +0.000 A 
ATOM     22  C   UNL     1       2.397   6.722  18.265  0.00  0.00    +0.000 A 
ENDBRANCH  14  16
BRANCH   1  26
ATOM     23  C   UNL     1       2.971  14.179  18.890  0.00  0.00    +0.000 A 
ATOM     24  C   UNL     1       2.250  13.491  17.917  0.00  0.00    +0.000 A 
ATOM     25  C   UNL     1       1.451  12.406  18.267  0.00  0.00    +0.000 A 
ATOM     26  C   UNL     1       1.318  11.963  19.604  0.00  0.00    +0.000 A 
ATOM     27  C   UNL     1       2.010  12.692  20.583  0.00  0.00    +0.000 A 
ATOM     28  C   UNL     1       2.830  13.778  20.229  0.00  0.00    +0.000 A 
BRANCH  23  30
ATOM     29  C   UNL     1       5.222  14.772  17.904  0.00  0.00    +0.000 C 
ATOM     30  C   UNL     1       3.899  15.297  18.456  0.00  0.00    +0.000 C 
ATOM     31  C   UNL     1       3.192  16.227  17.468  0.00  0.00    +0.000 C 
ENDBRANCH  23  30
ENDBRANCH   1  26
TORSDOF 3
ENDMDL
MODEL 2
REMARK VINA RESULT:      -8.4      3.259      7.135
REMARK  Name = 
REMARK  5 active torsions:
REMARK  status: ('A' for Active; 'I' for Inactive)
REMARK    1  A    between atoms: C_1  and  C_2
REMARK    2  A    between atoms: C_2  and  C_3
REMARK    3  A    between atoms: C_2  and  C_4
REMARK    4  A    between atoms: C_7  and  C_8
REMARK    5  A    between atoms: C_21  and  C_23
REMARK                            x       y       z     vdW  Elec       q    Type
REMARK                         _______ _______ _______ _____ _____    ______ ____
ROOT
ATOM      1  C   UNL     1      -0.671  12.157  20.408  0.00  0.00    +0.000 C 
ATOM      2  C   UNL     1       0.175  10.905  20.311  0.00  0.00    +0.000 A 
ATOM      3  C   UNL     1       1.064  10.480  19.339  0.00  0.00    +0.000 A 
ATOM      4  C   UNL     1       1.532   9.168  19.416  0.00  0.00    +0.000 A 
ATOM      5  C   UNL     1       1.082   8.298  20.427  0.00  0.00    +0.000 A 
ATOM      6  C   UNL     1       0.247   8.758  21.448  0.00  0.00    +0.000 A 
ATOM      7  C   UNL     1      -0.148  10.076  21.386  0.00  0.00    +0.000 A 
ATOM      8  C   UNL     1      -0.811  10.909  22.397  0.00  0.00    +0.000 C 
ATOM      9  O   UNL     1      -1.016  10.565  23.546  0.00  0.00    +0.000 OA
ATOM     10  N   UNL     1      -0.920  12.186  21.854  0.00  0.00    +0.000 N 
ATOM     11  C   UNL     1      -0.222  13.284  22.494  0.00  0.00    +0.000 C 
ATOM     12  C   UNL     1       0.683  13.837  21.394  0.00  0.00    +0.000 C 
ATOM     13  N   UNL     1       0.100  13.363  20.142  0.00  0.00    +0.000 N 
ATOM     14  C   UNL     1       0.417  13.746  18.846  0.00  0.00    +0.000 C 
ATOM     15  O   UNL     1      -0.178  13.324  17.859  0.00  0.00    +0.000 OA
ENDROOT
BRANCH  14  16
ATOM     16  C   UNL     1       1.567  14.658  18.581  0.00  0.00    +0.000 A 
ATOM     17  C   UNL     1       1.453  16.040  18.724  0.00  0.00    +0.000 A 
ATOM     18  C   UNL     1       2.565  16.868  18.561  0.00  0.00    +0.000 A 
ATOM     19  C   UNL     1       3.812  16.303  18.322  0.00  0.00    +0.000 A 
ATOM     20  F   UNL     1       4.882  17.099  18.213  0.00  0.00    +0.000 F 
ATOM     21  C   UNL     1       3.963  14.925  18.237  0.00  0.00    +0.000 A 
ATOM     22  C   UNL     1       2.840  14.098  18.362  0.00  0.00    +0.000 A 
ENDBRANCH  14  16
BRANCH   1  26
ATOM     23  C   UNL     1      -4.578  11.597  18.460  0.00  0.00    +0.000 A 
ATOM     24  C   UNL     1      -3.453  10.907  18.018  0.00  0.00    +0.000 A 
ATOM     25  C   UNL     1      -2.216  11.114  18.623  0.00  0.00    +0.000 A 
ATOM     26  C   UNL     1      -2.042  12.007  19.706  0.00  0.00    +0.000 A 
ATOM     27  C   UNL     1      -3.191  12.662  20.175  0.00  0.00    +0.000 A 
ATOM     28  C   UNL     1      -4.437  12.467  19.555  0.00  0.00    +0.000 A 
BRANCH  23  30
ATOM     29  C   UNL     1      -6.949  10.729  18.577  0.00  0.00    +0.000 C 
ATOM     30  C   UNL     1      -5.887  11.411  17.717  0.00  0.00    +0.000 C 
ATOM     31  C   UNL     1      -6.376  12.746  17.152  0.00  0.00    +0.000 C 
ENDBRANCH  23  30
ENDBRANCH   1  26
TORSDOF 3
ENDMDL
MODEL 3
REMARK VINA RESULT:      -8.2      0.233      1.245
REMARK  Name = 
REMARK  5 active torsions:
REMARK  status: ('A' for Active; 'I' for Inactive)
REMARK    1  A    between atoms: C_1  and  C_2
REMARK    2  A    between atoms: C_2  and  C_3
REMARK    3  A    between atoms: C_2  and  C_4
REMARK    4  A    between atoms: C_7  and  C_8
REMARK    5  A    between atoms: C_21  and  C_23
REMARK                            x       y       z     vdW  Elec       q    Type
REMARK                         _______ _______ _______ _____ _____    ______ ____
ROOT
ATOM      1  C   UNL     1       0.252  10.899  19.943  0.00  0.00    +0.000 C 
ATOM      2  C   UNL     1      -0.955  10.793  19.034  0.00  0.00    +0.000 A 
ATOM      3  C   UNL     1      -1.131  10.140  17.826  0.00  0.00    +0.000 A 
ATOM      4  C   UNL     1      -2.297  10.408  17.108  0.00  0.00    +0.000 A 
ATOM      5  C   UNL     1      -3.241  11.339  17.581  0.00  0.00    +0.000 A 
ATOM      6  C   UNL     1      -3.093  11.931  18.837  0.00  0.00    +0.000 A 
ATOM      7  C   UNL     1      -1.966  11.601  19.556  0.00  0.00    +0.000 A 
ATOM      8  C   UNL     1      -1.638  11.858  20.964  0.00  0.00    +0.000 C 
ATOM      9  O   UNL     1      -2.412  12.328  21.776  0.00  0.00    +0.000 OA
ATOM     10  N   UNL     1      -0.409  11.252  21.205  0.00  0.00    +0.000 N 
ATOM     11  C   UNL     1      -0.336  10.168  22.166  0.00  0.00    +0.000 C 
ATOM     12  C   UNL     1       0.225   8.997  21.360  0.00  0.00    +0.000 C 
ATOM     13  N   UNL     1       0.865   9.602  20.196  0.00  0.00    +0.000 N 
ATOM     14  C   UNL     1       1.693   9.001  19.259  0.00  0.00    +0.000 C 
ATOM     15  O   UNL     1       2.228   9.618  18.343  0.00  0.00    +0.000 OA
ENDROOT
BRANCH  14  16
ATOM     16  C   UNL     1       1.923   7.527  19.282  0.00  0.00    +0.000 A 
ATOM     17  C   UNL     1       2.446   6.851  18.180  0.00  0.00    +0.000 A 
ATOM     18  C   UNL     1       2.739   5.489  18.253  0.00  0.00    +0.000 A 
ATOM     19  C   UNL     1       2.573   4.814  19.456  0.00  0.00    +0.000 A 
ATOM     20  F   UNL     1       2.900   3.519  19.532  0.00  0.00    +0.000 F 
ATOM     21  C   UNL     1       2.111   5.479  20.586  0.00  0.00    +0.000 A 
ATOM     22  C   UNL     1       1.781   6.837  20.500  0.00  0.00    +0.000 A 
ENDBRANCH  14  16
BRANCH   1  26
ATOM     23  C   UNL     1       3.008  14.168  18.898  0.00  0.00    +0.000 A 
ATOM     24  C   UNL     1       2.872  13.740  20.216  0.00  0.00    +0.000 A 
ATOM     25  C   UNL     1       1.976  12.724  20.539  0.00  0.00    +0.000 A 
ATOM     26  C   UNL     1       1.182  12.076  19.564  0.00  0.00    +0.000 A 
ATOM     27  C   UNL     1       1.360  12.482  18.233  0.00  0.00    +0.000 A 
ATOM     28  C   UNL     1       2.252  13.517  17.907  0.00  0.00    +0.000 A 
BRANCH  23  30
ATOM     29  C   UNL     1       5.242  14.890  17.963  0.00  0.00    +0.000 C 
ATOM     30  C   UNL     1       3.928  15.336  18.600  0.00  0.00    +0.000 C 
ATOM     31  C   UNL     1       3.205  16.385  17.753  0.00  0.00    +0.000 C 
ENDBRANCH  23  30
ENDBRANCH   1  26
TORSDOF 3
ENDMDL
MODEL 4
REMARK VINA RESULT:      -8.1      3.268      7.198
REMARK  Name = 
REMARK  5 active torsions:
REMARK  status: ('A' for Active; 'I' for Inactive)
REMARK    1  A    between atoms: C_1  and  C_2
REMARK    2  A    between atoms: C_2  and  C_3
REMARK    3  A    between atoms: C_2  and  C_4
REMARK    4  A    between atoms: C_7  and  C_8
REMARK    5  A    between atoms: C_21  and  C_23
REMARK                            x       y       z     vdW  Elec       q    Type
REMARK                         _______ _______ _______ _____ _____    ______ ____
ROOT
ATOM      1  C   UNL     1      -0.756  12.038  20.455  0.00  0.00    +0.000 C 
ATOM      2  C   UNL     1       0.122  10.806  20.387  0.00  0.00    +0.000 A 
ATOM      3  C   UNL     1       1.048  10.399  19.442  0.00  0.00    +0.000 A 
ATOM      4  C   UNL     1       1.544   9.098  19.539  0.00  0.00    +0.000 A 
ATOM      5  C   UNL     1       1.087   8.222  20.541  0.00  0.00    +0.000 A 
ATOM      6  C   UNL     1       0.213   8.666  21.535  0.00  0.00    +0.000 A 
ATOM      7  C   UNL     1      -0.212   9.974  21.457  0.00  0.00    +0.000 A 
ATOM      8  C   UNL     1      -0.923  10.794  22.445  0.00  0.00    +0.000 C 
ATOM      9  O   UNL     1      -1.151  10.450  23.589  0.00  0.00    +0.000 OA
ATOM     10  N   UNL     1      -1.047  12.066  21.893  0.00  0.00    +0.000 N 
ATOM     11  C   UNL     1      -0.394  13.183  22.547  0.00  0.00    +0.000 C 
ATOM     12  C   UNL     1       0.528  13.754  21.470  0.00  0.00    +0.000 C 
ATOM     13  N   UNL     1      -0.007  13.261  20.204  0.00  0.00    +0.000 N 
ATOM     14  C   UNL     1       0.336  13.646  18.916  0.00  0.00    +0.000 C 
ATOM     15  O   UNL     1      -0.220  13.205  17.915  0.00  0.00    +0.000 OA
ENDROOT
BRANCH  14  16
ATOM     16  C   UNL     1       1.472  14.584  18.680  0.00  0.00    +0.000 A 
ATOM     17  C   UNL     1       2.736  14.124  18.314  0.00  0.00    +0.000 A 
ATOM     18  C   UNL     1       3.760  15.022  18.009  0.00  0.00    +0.000 A 
ATOM     19  C   UNL     1       3.498  16.386  18.003  0.00  0.00    +0.000 A 
ATOM     20  F   UNL     1       4.472  17.239  17.664  0.00  0.00    +0.000 F 
ATOM     21  C   UNL     1       2.230  16.867  18.304  0.00  0.00    +0.000 A 
ATOM     22  C   UNL     1       1.214  15.967  18.648  0.00  0.00    +0.000 A 
ENDBRANCH  14  16
BRANCH   1  26
ATOM     23  C   UNL     1      -4.579  11.640  18.309  0.00  0.00    +0.000 A 
ATOM     24  C   UNL     1      -4.467  12.468  19.423  0.00  0.00    +0.000 A 
ATOM     25  C   UNL     1      -3.260  12.563  20.111  0.00  0.00    +0.000 A 
ATOM     26  C   UNL     1      -2.104  11.851  19.715  0.00  0.00    +0.000 A 
ATOM     27  C   UNL     1      -2.214  11.056  18.565  0.00  0.00    +0.000 A 
ATOM     28  C   UNL     1      -3.435  10.946  17.878  0.00  0.00    +0.000 A 
BRANCH  23  30
ATOM     29  C   UNL     1      -6.950  10.792  18.538  0.00  0.00    +0.000 C 
ATOM     30  C   UNL     1      -5.933  11.495  17.641  0.00  0.00    +0.000 C 
ATOM     31  C   UNL     1      -6.439  12.854  17.154  0.00  0.00    +0.000 C 
ENDBRANCH  23  30
ENDBRANCH   1  26
TORSDOF 3
ENDMDL
MODEL 5
REMARK VINA RESULT:      -8.1      3.815      6.775
REMARK  Name = 
REMARK  5 active torsions:
REMARK  status: ('A' for Active; 'I' for Inactive)
REMARK    1  A    between atoms: C_1  and  C_2
REMARK    2  A    between atoms: C_2  and  C_3
REMARK    3  A    between atoms: C_2  and  C_4
REMARK    4  A    between atoms: C_7  and  C_8
REMARK    5  A    between atoms: C_21  and  C_23
REMARK                            x       y       z     vdW  Elec       q    Type
REMARK                         _______ _______ _______ _____ _____    ______ ____
ROOT
ATOM      1  C   UNL     1      -1.258  12.399  20.253  0.00  0.00    +0.000 C 
ATOM      2  C   UNL     1      -0.794  11.183  21.026  0.00  0.00    +0.000 A 
ATOM      3  C   UNL     1      -0.719  10.944  22.387  0.00  0.00    +0.000 A 
ATOM      4  C   UNL     1      -0.037   9.802  22.809  0.00  0.00    +0.000 A 
ATOM      5  C   UNL     1       0.585   8.947  21.880  0.00  0.00    +0.000 A 
ATOM      6  C   UNL     1       0.437   9.153  20.507  0.00  0.00    +0.000 A 
ATOM      7  C   UNL     1      -0.297  10.250  20.115  0.00  0.00    +0.000 A 
ATOM      8  C   UNL     1      -0.824  10.608  18.791  0.00  0.00    +0.000 C 
ATOM      9  O   UNL     1      -0.782   9.883  17.815  0.00  0.00    +0.000 OA
ATOM     10  N   UNL     1      -1.556  11.780  18.956  0.00  0.00    +0.000 N 
ATOM     11  C   UNL     1      -2.981  11.763  18.688  0.00  0.00    +0.000 C 
ATOM     12  C   UNL     1      -3.610  12.213  20.006  0.00  0.00    +0.000 C 
ATOM     13  N   UNL     1      -2.541  12.897  20.728  0.00  0.00    +0.000 N 
ATOM     14  C   UNL     1      -2.635  13.664  21.881  0.00  0.00    +0.000 C 
ATOM     15  O   UNL     1      -1.675  14.246  22.379  0.00  0.00    +0.000 OA
ENDROOT
BRANCH  14  16
ATOM     16  C   UNL     1      -3.924  13.764  22.626  0.00  0.00    +0.000 A 
ATOM     17  C   UNL     1      -4.897  14.701  22.281  0.00  0.00    +0.000 A 
ATOM     18  C   UNL     1      -6.132  14.717  22.930  0.00  0.00    +0.000 A 
ATOM     19  C   UNL     1      -6.420  13.747  23.882  0.00  0.00    +0.000 A 
ATOM     20  F   UNL     1      -7.624  13.740  24.467  0.00  0.00    +0.000 F 
ATOM     21  C   UNL     1      -5.490  12.765  24.199  0.00  0.00    +0.000 A 
ATOM     22  C   UNL     1      -4.237  12.773  23.575  0.00  0.00    +0.000 A 
ENDBRANCH  14  16
BRANCH   1  26
ATOM     23  C   UNL     1       2.041  15.225  19.535  0.00  0.00    +0.000 A 
ATOM     24  C   UNL     1       2.195  14.152  20.410  0.00  0.00    +0.000 A 
ATOM     25  C   UNL     1       1.135  13.282  20.651  0.00  0.00    +0.000 A 
ATOM     26  C   UNL     1      -0.124  13.428  20.023  0.00  0.00    +0.000 A 
ATOM     27  C   UNL     1      -0.254  14.483  19.108  0.00  0.00    +0.000 A 
ATOM     28  C   UNL     1       0.809  15.372  18.875  0.00  0.00    +0.000 A 
BRANCH  23  30
ATOM     29  C   UNL     1       4.404  15.817  20.210  0.00  0.00    +0.000 C 
ATOM     30  C   UNL     1       3.189  16.201  19.368  0.00  0.00    +0.000 C 
ATOM     31  C   UNL     1       3.543  16.361  17.888  0.00  0.00    +0.000 C 
ENDBRANCH  23  30
ENDBRANCH   1  26
TORSDOF 3
ENDMDL
MODEL 6
REMARK VINA RESULT:      -8.0      0.780      1.226
REMARK  Name = 
REMARK  5 active torsions:
REMARK  status: ('A' for Active; 'I' for Inactive)
REMARK    1  A    between atoms: C_1  and  C_2
REMARK    2  A    between atoms: C_2  and  C_3
REMARK    3  A    between atoms: C_2  and  C_4
REMARK    4  A    between atoms: C_7  and  C_8
REMARK    5  A    between atoms: C_21  and  C_23
REMARK                            x       y       z     vdW  Elec       q    Type
REMARK                         _______ _______ _______ _____ _____    ______ ____
ROOT
ATOM      1  C   UNL     1       0.025  11.141  20.087  0.00  0.00    +0.000 C 
ATOM      2  C   UNL     1      -1.196  11.013  19.202  0.00  0.00    +0.000 A 
ATOM      3  C   UNL     1      -1.365  10.414  17.965  0.00  0.00    +0.000 A 
ATOM      4  C   UNL     1      -2.562  10.651  17.288  0.00  0.00    +0.000 A 
ATOM      5  C   UNL     1      -3.544  11.502  17.830  0.00  0.00    +0.000 A 
ATOM      6  C   UNL     1      -3.399  12.037  19.111  0.00  0.00    +0.000 A 
ATOM      7  C   UNL     1      -2.237  11.735  19.788  0.00  0.00    +0.000 A 
ATOM      8  C   UNL     1      -1.889  11.939  21.199  0.00  0.00    +0.000 C 
ATOM      9  O   UNL     1      -2.666  12.322  22.052  0.00  0.00    +0.000 OA
ATOM     10  N   UNL     1      -0.622  11.392  21.381  0.00  0.00    +0.000 N 
ATOM     11  C   UNL     1      -0.464  10.266  22.282  0.00  0.00    +0.000 C 
ATOM     12  C   UNL     1       0.140   9.172  21.404  0.00  0.00    +0.000 C 
ATOM     13  N   UNL     1       0.716   9.871  20.259  0.00  0.00    +0.000 N 
ATOM     14  C   UNL     1       1.553   9.366  19.274  0.00  0.00    +0.000 C 
ATOM     15  O   UNL     1       2.029  10.058  18.380  0.00  0.00    +0.000 OA
ENDROOT
BRANCH  14  16
ATOM     16  C   UNL     1       1.865   7.908  19.215  0.00  0.00    +0.000 A 
ATOM     17  C   UNL     1       2.436   7.328  18.083  0.00  0.00    +0.000 A 
ATOM     18  C   UNL     1       2.805   5.982  18.081  0.00  0.00    +0.000 A 
ATOM     19  C   UNL     1       2.664   5.230  19.241  0.00  0.00    +0.000 A 
ATOM     20  F   UNL     1       3.062   3.953  19.246  0.00  0.00    +0.000 F 
ATOM     21  C   UNL     1       2.154   5.801  20.400  0.00  0.00    +0.000 A 
ATOM     22  C   UNL     1       1.749   7.141  20.389  0.00  0.00    +0.000 A 
ENDBRANCH  14  16
BRANCH   1  26
ATOM     23  C   UNL     1       2.343  14.766  19.158  0.00  0.00    +0.000 A 
ATOM     24  C   UNL     1       1.270  14.378  18.359  0.00  0.00    +0.000 A 
ATOM     25  C   UNL     1       0.563  13.214  18.646  0.00  0.00    +0.000 A 
ATOM     26  C   UNL     1       0.879  12.388  19.750  0.00  0.00    +0.000 A 
ATOM     27  C   UNL     1       1.931  12.812  20.576  0.00  0.00    +0.000 A 
ATOM     28  C   UNL     1       2.656  13.978  20.279  0.00  0.00    +0.000 A 
BRANCH  23  30
ATOM     29  C   UNL     1       3.510  15.990  17.279  0.00  0.00    +0.000 C 
ATOM     30  C   UNL     1       3.143  15.992  18.761  0.00  0.00    +0.000 C 
ATOM     31  C   UNL     1       2.405  17.268  19.169  0.00  0.00    +0.000 C 
ENDBRANCH  23  30
ENDBRANCH   1  26
TORSDOF 3
ENDMDL
MODEL 7
REMARK VINA RESULT:      -8.0      3.813      6.730
REMARK  Name = 
REMARK  5 active torsions:
REMARK  status: ('A' for Active; 'I' for Inactive)
REMARK    1  A    between atoms: C_1  and  C_2
REMARK    2  A    between atoms: C_2  and  C_3
REMARK    3  A    between atoms: C_2  and  C_4
REMARK    4  A    between atoms: C_7  and  C_8
REMARK    5  A    between atoms: C_21  and  C_23
REMARK                            x       y       z     vdW  Elec       q    Type
REMARK                         _______ _______ _______ _____ _____    ______ ____
ROOT
ATOM      1  C   UNL     1      -1.126  12.340  20.072  0.00  0.00    +0.000 C 
ATOM      2  C   UNL     1      -0.695  11.146  20.898  0.00  0.00    +0.000 A 
ATOM      3  C   UNL     1      -0.687  10.942  22.267  0.00  0.00    +0.000 A 
ATOM      4  C   UNL     1      -0.021   9.816  22.752  0.00  0.00    +0.000 A 
ATOM      5  C   UNL     1       0.651   8.941  21.877  0.00  0.00    +0.000 A 
ATOM      6  C   UNL     1       0.571   9.111  20.494  0.00  0.00    +0.000 A 
ATOM      7  C   UNL     1      -0.149  10.194  20.037  0.00  0.00    +0.000 A 
ATOM      8  C   UNL     1      -0.610  10.514  18.680  0.00  0.00    +0.000 C 
ATOM      9  O   UNL     1      -0.516   9.765  17.727  0.00  0.00    +0.000 OA
ATOM     10  N   UNL     1      -1.355  11.685  18.778  0.00  0.00    +0.000 N 
ATOM     11  C   UNL     1      -2.765  11.652  18.440  0.00  0.00    +0.000 C 
ATOM     12  C   UNL     1      -3.461  12.132  19.713  0.00  0.00    +0.000 C 
ATOM     13  N   UNL     1      -2.433  12.841  20.470  0.00  0.00    +0.000 N 
ATOM     14  C   UNL     1      -2.589  13.637  21.596  0.00  0.00    +0.000 C 
ATOM     15  O   UNL     1      -1.659  14.237  22.126  0.00  0.00    +0.000 OA
ENDROOT
BRANCH  14  16
ATOM     16  C   UNL     1      -3.914  13.747  22.272  0.00  0.00    +0.000 A 
ATOM     17  C   UNL     1      -4.282  12.883  23.303  0.00  0.00    +0.000 A 
ATOM     18  C   UNL     1      -5.488  13.061  23.985  0.00  0.00    +0.000 A 
ATOM     19  C   UNL     1      -6.296  14.148  23.678  0.00  0.00    +0.000 A 
ATOM     20  F   UNL     1      -7.428  14.338  24.366  0.00  0.00    +0.000 F 
ATOM     21  C   UNL     1      -5.921  15.058  22.697  0.00  0.00    +0.000 A 
ATOM     22  C   UNL     1      -4.731  14.857  21.988  0.00  0.00    +0.000 A 
ENDBRANCH  14  16
BRANCH   1  26
ATOM     23  C   UNL     1       2.031  15.365  19.562  0.00  0.00    +0.000 A 
ATOM     24  C   UNL     1       0.846  15.438  18.835  0.00  0.00    +0.000 A 
ATOM     25  C   UNL     1      -0.134  14.459  18.983  0.00  0.00    +0.000 A 
ATOM     26  C   UNL     1       0.013  13.369  19.872  0.00  0.00    +0.000 A 
ATOM     27  C   UNL     1       1.190  13.330  20.635  0.00  0.00    +0.000 A 
ATOM     28  C   UNL     1       2.186  14.308  20.475  0.00  0.00    +0.000 A 
BRANCH  23  30
ATOM     29  C   UNL     1       4.397  16.096  20.068  0.00  0.00    +0.000 C 
ATOM     30  C   UNL     1       3.109  16.401  19.307  0.00  0.00    +0.000 C 
ATOM     31  C   UNL     1       3.352  16.561  17.805  0.00  0.00    +0.000 C 
ENDBRANCH  23  30
ENDBRANCH   1  26
TORSDOF 3
ENDMDL
MODEL 8
REMARK VINA RESULT:      -8.0      3.679      6.591
REMARK  Name = 
REMARK  5 active torsions:
REMARK  status: ('A' for Active; 'I' for Inactive)
REMARK    1  A    between atoms: C_1  and  C_2
REMARK    2  A    between atoms: C_2  and  C_3
REMARK    3  A    between atoms: C_2  and  C_4
REMARK    4  A    between atoms: C_7  and  C_8
REMARK    5  A    between atoms: C_21  and  C_23
REMARK                            x       y       z     vdW  Elec       q    Type
REMARK                         _______ _______ _______ _____ _____    ______ ____
ROOT
ATOM      1  C   UNL     1      -0.964  12.260  20.148  0.00  0.00    +0.000 C 
ATOM      2  C   UNL     1      -0.516  11.025  20.901  0.00  0.00    +0.000 A 
ATOM      3  C   UNL     1      -0.444  10.763  22.258  0.00  0.00    +0.000 A 
ATOM      4  C   UNL     1       0.223   9.605  22.660  0.00  0.00    +0.000 A 
ATOM      5  C   UNL     1       0.833   8.757  21.717  0.00  0.00    +0.000 A 
ATOM      6  C   UNL     1       0.687   8.987  20.348  0.00  0.00    +0.000 A 
ATOM      7  C   UNL     1      -0.032  10.101  19.974  0.00  0.00    +0.000 A 
ATOM      8  C   UNL     1      -0.554  10.487  18.657  0.00  0.00    +0.000 C 
ATOM      9  O   UNL     1      -0.523   9.778  17.669  0.00  0.00    +0.000 OA
ATOM     10  N   UNL     1      -1.270  11.665  18.841  0.00  0.00    +0.000 N 
ATOM     11  C   UNL     1      -2.696  11.672  18.574  0.00  0.00    +0.000 C 
ATOM     12  C   UNL     1      -3.318  12.109  19.900  0.00  0.00    +0.000 C 
ATOM     13  N   UNL     1      -2.240  12.767  20.632  0.00  0.00    +0.000 N 
ATOM     14  C   UNL     1      -2.324  13.516  21.798  0.00  0.00    +0.000 C 
ATOM     15  O   UNL     1      -1.356  14.077  22.304  0.00  0.00    +0.000 OA
ENDROOT
BRANCH  14  16
ATOM     16  C   UNL     1      -3.611  13.620  22.544  0.00  0.00    +0.000 A 
ATOM     17  C   UNL     1      -4.641  14.454  22.112  0.00  0.00    +0.000 A 
ATOM     18  C   UNL     1      -5.871  14.469  22.773  0.00  0.00    +0.000 A 
ATOM     19  C   UNL     1      -6.093  13.594  23.829  0.00  0.00    +0.000 A 
ATOM     20  F   UNL     1      -7.289  13.580  24.428  0.00  0.00    +0.000 F 
ATOM     21  C   UNL     1      -5.103  12.710  24.239  0.00  0.00    +0.000 A 
ATOM     22  C   UNL     1      -3.857  12.724  23.601  0.00  0.00    +0.000 A 
ENDBRANCH  14  16
BRANCH   1  26
ATOM     23  C   UNL     1       2.223  15.248  19.609  0.00  0.00    +0.000 A 
ATOM     24  C   UNL     1       0.995  15.388  18.968  0.00  0.00    +0.000 A 
ATOM     25  C   UNL     1       0.004  14.421  19.123  0.00  0.00    +0.000 A 
ATOM     26  C   UNL     1       0.183  13.277  19.934  0.00  0.00    +0.000 A 
ATOM     27  C   UNL     1       1.406  13.168  20.613  0.00  0.00    +0.000 A 
ATOM     28  C   UNL     1       2.413  14.135  20.445  0.00  0.00    +0.000 A 
BRANCH  23  30
ATOM     29  C   UNL     1       3.481  16.563  17.854  0.00  0.00    +0.000 C 
ATOM     30  C   UNL     1       3.306  16.275  19.344  0.00  0.00    +0.000 C 
ATOM     31  C   UNL     1       3.044  17.550  20.149  0.00  0.00    +0.000 C 
ENDBRANCH  23  30
ENDBRANCH   1  26
TORSDOF 3
ENDMDL
MODEL 9
REMARK VINA RESULT:      -8.0      3.931      6.891
REMARK  Name = 
REMARK  5 active torsions:
REMARK  status: ('A' for Active; 'I' for Inactive)
REMARK    1  A    between atoms: C_1  and  C_2
REMARK    2  A    between atoms: C_2  and  C_3
REMARK    3  A    between atoms: C_2  and  C_4
REMARK    4  A    between atoms: C_7  and  C_8
REMARK    5  A    between atoms: C_21  and  C_23
REMARK                            x       y       z     vdW  Elec       q    Type
REMARK                         _______ _______ _______ _____ _____    ______ ____
ROOT
ATOM      1  C   UNL     1      -1.255  12.480  20.189  0.00  0.00    +0.000 C 
ATOM      2  C   UNL     1      -0.832  11.280  21.009  0.00  0.00    +0.000 A 
ATOM      3  C   UNL     1      -0.836  11.065  22.377  0.00  0.00    +0.000 A 
ATOM      4  C   UNL     1      -0.175   9.934  22.858  0.00  0.00    +0.000 A 
ATOM      5  C   UNL     1       0.505   9.066  21.982  0.00  0.00    +0.000 A 
ATOM      6  C   UNL     1       0.436   9.247  20.600  0.00  0.00    +0.000 A 
ATOM      7  C   UNL     1      -0.278  10.334  20.145  0.00  0.00    +0.000 A 
ATOM      8  C   UNL     1      -0.728  10.665  18.787  0.00  0.00    +0.000 C 
ATOM      9  O   UNL     1      -0.626   9.924  17.828  0.00  0.00    +0.000 OA
ATOM     10  N   UNL     1      -1.473  11.836  18.888  0.00  0.00    +0.000 N 
ATOM     11  C   UNL     1      -2.880  11.807  18.537  0.00  0.00    +0.000 C 
ATOM     12  C   UNL     1      -3.587  12.277  19.808  0.00  0.00    +0.000 C 
ATOM     13  N   UNL     1      -2.566  12.979  20.579  0.00  0.00    +0.000 N 
ATOM     14  C   UNL     1      -2.731  13.766  21.711  0.00  0.00    +0.000 C 
ATOM     15  O   UNL     1      -1.805  14.361  22.253  0.00  0.00    +0.000 OA
ENDROOT
BRANCH  14  16
ATOM     16  C   UNL     1      -4.061  13.871  22.376  0.00  0.00    +0.000 A 
ATOM     17  C   UNL     1      -4.502  12.910  23.286  0.00  0.00    +0.000 A 
ATOM     18  C   UNL     1      -5.710  13.074  23.966  0.00  0.00    +0.000 A 
ATOM     19  C   UNL     1      -6.446  14.238  23.787  0.00  0.00    +0.000 A 
ATOM     20  F   UNL     1      -7.580  14.410  24.477  0.00  0.00    +0.000 F 
ATOM     21  C   UNL     1      -5.998  15.238  22.933  0.00  0.00    +0.000 A 
ATOM     22  C   UNL     1      -4.806  15.055  22.221  0.00  0.00    +0.000 A 
ENDBRANCH  14  16
BRANCH   1  26
ATOM     23  C   UNL     1       2.068  15.310  19.617  0.00  0.00    +0.000 A 
ATOM     24  C   UNL     1       2.171  14.259  20.525  0.00  0.00    +0.000 A 
ATOM     25  C   UNL     1       1.102  13.388  20.719  0.00  0.00    +0.000 A 
ATOM     26  C   UNL     1      -0.114  13.510  20.007  0.00  0.00    +0.000 A 
ATOM     27  C   UNL     1      -0.191  14.543  19.061  0.00  0.00    +0.000 A 
ATOM     28  C   UNL     1       0.881  15.433  18.875  0.00  0.00    +0.000 A 
BRANCH  23  30
ATOM     29  C   UNL     1       3.648  16.510  18.051  0.00  0.00    +0.000 C 
ATOM     30  C   UNL     1       3.220  16.289  19.500  0.00  0.00    +0.000 C 
ATOM     31  C   UNL     1       2.879  17.604  20.205  0.00  0.00    +0.000 C 
ENDBRANCH  23  30
ENDBRANCH   1  26
TORSDOF 3
ENDMDL
