MODEL 1
REMARK VINA RESULT:      -7.9      0.000      0.000
REMARK  Name = 
REMARK  14 active torsions:
REMARK  status: ('A' for Active; 'I' for Inactive)
REMARK    1  A    between atoms: C_2  and  C_3
REMARK    2  A    between atoms: C_3  and  C_4
REMARK    3  A    between atoms: C_3  and  C_5
REMARK    4  A    between atoms: C_3  and  C_6
REMARK    5  A    between atoms: C_18  and  C_19
REMARK    6  A    between atoms: C_19  and  C_20
REMARK    7  A    between atoms: C_19  and  C_21
REMARK    8  A    between atoms: C_19  and  O_22
REMARK    9  A    between atoms: O_22  and  C_23
REMARK   10  A    between atoms: C_23  and  O_25
REMARK   11  A    between atoms: O_25  and  C_26
REMARK   12  A    between atoms: C_26  and  C_27
REMARK   13  A    between atoms: C_27  and  C_28
REMARK   14  A    between atoms: C_32  and  C_33
REMARK                            x       y       z     vdW  Elec       q    Type
REMARK                         _______ _______ _______ _____ _____    ______ ____
ROOT
ATOM      1  C   UNL     1       2.731   5.303  19.009  0.00  0.00    +0.000 A 
ATOM      2  C   UNL     1       2.661   6.463  18.330  0.00  0.00    +0.000 A 
ATOM      3  C   UNL     1       2.080   7.665  18.898  0.00  0.00    +0.000 A 
ATOM      4  C   UNL     1       2.062   8.867  18.197  0.00  0.00    +0.000 A 
ATOM      5  C   UNL     1       1.499   9.970  18.815  0.00  0.00    +0.000 A 
ATOM      6  C   UNL     1       0.963   9.876  20.089  0.00  0.00    +0.000 A 
ATOM      7  C   UNL     1       0.953   8.693  20.796  0.00  0.00    +0.000 A 
ATOM      8  C   UNL     1       1.530   7.588  20.183  0.00  0.00    +0.000 A 
ATOM      9  O   UNL     1       1.565   6.385  20.901  0.00  0.00    +0.000 OA
ATOM     10  C   UNL     1       2.190   5.244  20.406  0.00  0.00    +0.000 A 
ATOM     11  O   UNL     1       2.260   4.235  21.102  0.00  0.00    +0.000 OA
ATOM     12  O   UNL     1       0.462  11.044  20.575  0.00  0.00    +0.000 OA
ATOM     13  C   UNL     1       0.695  12.020  19.532  0.00  0.00    +0.000 C 
ATOM     14  C   UNL     1       1.357  11.349  18.306  0.00  0.00    +0.000 C 
ENDROOT
BRANCH   1  15
ATOM     15  C   UNL     1       3.356   4.020  18.426  0.00  0.00    +0.000 C 
ATOM     16  C   UNL     1       4.069   4.263  17.068  0.00  0.00    +0.000 C 
ATOM     17  C   UNL     1       2.247   2.981  18.131  0.00  0.00    +0.000 C 
BRANCH  15  19
ATOM     18  C   UNL     1       4.431   2.151  19.798  0.00  0.00    +0.000 C 
ATOM     19  C   UNL     1       4.387   3.427  19.384  0.00  0.00    +0.000 C 
ENDBRANCH  15  19
ENDBRANCH   1  15
BRANCH  13  20
ATOM     20  C   UNL     1      -0.625  12.768  19.208  0.00  0.00    +0.000 C 
ATOM     21  C   UNL     1      -1.699  12.513  20.287  0.00  0.00    +0.000 C 
ATOM     22  C   UNL     1      -0.382  14.284  19.143  0.00  0.00    +0.000 C 
BRANCH  20  23
ATOM     23  O   UNL     1      -1.157  12.215  17.981  0.00  0.00    +0.000 OA
BRANCH  23  24
ATOM     24  C   UNL     1      -2.141  11.292  18.056  0.00  0.00    +0.000 C 
ATOM     25  O   UNL     1      -2.024  10.137  18.424  0.00  0.00    +0.000 OA
BRANCH  24  26
ATOM     26  O   UNL     1      -3.286  11.867  17.627  0.00  0.00    +0.000 OA
BRANCH  26  27
ATOM     27  C   UNL     1      -4.356  10.945  17.412  0.00  0.00    +0.000 C 
BRANCH  27  28
ATOM     28  C   UNL     1      -5.763  11.524  17.570  0.00  0.00    +0.000 C 
BRANCH  28  29
ATOM     29  C   UNL     1      -6.126  11.636  19.022  0.00  0.00    +0.000 A 
ATOM     30  S   UNL     1      -5.822  13.100  19.872  0.00  0.00    +0.000 S 
ATOM     31  C   UNL     1      -6.489  12.405  21.285  0.00  0.00    +0.000 A 
ATOM     32  N   UNL     1      -6.931  11.175  21.167  0.00  0.00    +0.000 NA
ATOM     33  C   UNL     1      -6.720  10.714  19.876  0.00  0.00    +0.000 A 
ATOM     34  C   UNL     1      -7.151   9.323  19.568  0.00  0.00    +0.000 C 
ENDBRANCH  28  29
ENDBRANCH  27  28
ENDBRANCH  26  27
ENDBRANCH  24  26
ENDBRANCH  23  24
ENDBRANCH  20  23
ENDBRANCH  13  20
TORSDOF 9
ENDMDL
MODEL 2
REMARK VINA RESULT:      -7.7      0.895      1.518
REMARK  Name = 
REMARK  14 active torsions:
REMARK  status: ('A' for Active; 'I' for Inactive)
REMARK    1  A    between atoms: C_2  and  C_3
REMARK    2  A    between atoms: C_3  and  C_4
REMARK    3  A    between atoms: C_3  and  C_5
REMARK    4  A    between atoms: C_3  and  C_6
REMARK    5  A    between atoms: C_18  and  C_19
REMARK    6  A    between atoms: C_19  and  C_20
REMARK    7  A    between atoms: C_19  and  C_21
REMARK    8  A    between atoms: C_19  and  O_22
REMARK    9  A    between atoms: O_22  and  C_23
REMARK   10  A    between atoms: C_23  and  O_25
REMARK   11  A    between atoms: O_25  and  C_26
REMARK   12  A    between atoms: C_26  and  C_27
REMARK   13  A    between atoms: C_27  and  C_28
REMARK   14  A    between atoms: C_32  and  C_33
REMARK                            x       y       z     vdW  Elec       q    Type
REMARK                         _______ _______ _______ _____ _____    ______ ____
ROOT
ATOM      1  C   UNL     1       2.874   5.515  18.750  0.00  0.00    +0.000 A 
ATOM      2  C   UNL     1       2.734   6.713  18.154  0.00  0.00    +0.000 A 
ATOM      3  C   UNL     1       2.110   7.844  18.815  0.00  0.00    +0.000 A 
ATOM      4  C   UNL     1       2.018   9.088  18.199  0.00  0.00    +0.000 A 
ATOM      5  C   UNL     1       1.419  10.118  18.902  0.00  0.00    +0.000 A 
ATOM      6  C   UNL     1       0.917   9.912  20.177  0.00  0.00    +0.000 A 
ATOM      7  C   UNL     1       0.979   8.685  20.801  0.00  0.00    +0.000 A 
ATOM      8  C   UNL     1       1.593   7.653  20.102  0.00  0.00    +0.000 A 
ATOM      9  O   UNL     1       1.702   6.407  20.735  0.00  0.00    +0.000 OA
ATOM     10  C   UNL     1       2.369   5.334  20.151  0.00  0.00    +0.000 A 
ATOM     11  O   UNL     1       2.502   4.285  20.774  0.00  0.00    +0.000 OA
ATOM     12  O   UNL     1       0.372  11.018  20.751  0.00  0.00    +0.000 OA
ATOM     13  C   UNL     1       0.535  12.073  19.774  0.00  0.00    +0.000 C 
ATOM     14  C   UNL     1       1.200  11.519  18.492  0.00  0.00    +0.000 C 
ENDROOT
BRANCH   1  15
ATOM     15  C   UNL     1       3.545   4.306  18.068  0.00  0.00    +0.000 C 
ATOM     16  C   UNL     1       4.501   3.534  19.019  0.00  0.00    +0.000 C 
ATOM     17  C   UNL     1       4.430   4.788  16.893  0.00  0.00    +0.000 C 
BRANCH  15  19
ATOM     18  C   UNL     1       2.259   2.097  18.083  0.00  0.00    +0.000 C 
ATOM     19  C   UNL     1       2.502   3.311  17.563  0.00  0.00    +0.000 C 
ENDBRANCH  15  19
ENDBRANCH   1  15
BRANCH  13  20
ATOM     20  C   UNL     1      -0.826  12.776  19.529  0.00  0.00    +0.000 C 
ATOM     21  C   UNL     1      -1.855  12.413  20.620  0.00  0.00    +0.000 C 
ATOM     22  C   UNL     1      -0.653  14.303  19.542  0.00  0.00    +0.000 C 
BRANCH  20  23
ATOM     23  O   UNL     1      -1.368  12.267  18.288  0.00  0.00    +0.000 OA
BRANCH  23  24
ATOM     24  C   UNL     1      -2.276  11.266  18.336  0.00  0.00    +0.000 C 
ATOM     25  O   UNL     1      -2.035  10.073  18.389  0.00  0.00    +0.000 OA
BRANCH  24  26
ATOM     26  O   UNL     1      -3.508  11.818  18.290  0.00  0.00    +0.000 OA
BRANCH  26  27
ATOM     27  C   UNL     1      -4.182  11.634  17.043  0.00  0.00    +0.000 C 
BRANCH  27  28
ATOM     28  C   UNL     1      -5.635  12.112  17.006  0.00  0.00    +0.000 C 
BRANCH  28  29
ATOM     29  C   UNL     1      -6.283  11.927  18.348  0.00  0.00    +0.000 A 
ATOM     30  S   UNL     1      -6.814  10.365  18.835  0.00  0.00    +0.000 S 
ATOM     31  C   UNL     1      -7.345  11.022  20.322  0.00  0.00    +0.000 A 
ATOM     32  N   UNL     1      -7.146  12.308  20.486  0.00  0.00    +0.000 NA
ATOM     33  C   UNL     1      -6.546  12.846  19.356  0.00  0.00    +0.000 A 
ATOM     34  C   UNL     1      -6.259  14.306  19.365  0.00  0.00    +0.000 C 
ENDBRANCH  28  29
ENDBRANCH  27  28
ENDBRANCH  26  27
ENDBRANCH  24  26
ENDBRANCH  23  24
ENDBRANCH  20  23
ENDBRANCH  13  20
TORSDOF 9
ENDMDL
MODEL 3
REMARK VINA RESULT:      -7.6      4.505     10.017
REMARK  Name = 
REMARK  14 active torsions:
REMARK  status: ('A' for Active; 'I' for Inactive)
REMARK    1  A    between atoms: C_2  and  C_3
REMARK    2  A    between atoms: C_3  and  C_4
REMARK    3  A    between atoms: C_3  and  C_5
REMARK    4  A    between atoms: C_3  and  C_6
REMARK    5  A    between atoms: C_18  and  C_19
REMARK    6  A    between atoms: C_19  and  C_20
REMARK    7  A    between atoms: C_19  and  C_21
REMARK    8  A    between atoms: C_19  and  O_22
REMARK    9  A    between atoms: O_22  and  C_23
REMARK   10  A    between atoms: C_23  and  O_25
REMARK   11  A    between atoms: O_25  and  C_26
REMARK   12  A    between atoms: C_26  and  C_27
REMARK   13  A    between atoms: C_27  and  C_28
REMARK   14  A    between atoms: C_32  and  C_33
REMARK                            x       y       z     vdW  Elec       q    Type
REMARK                         _______ _______ _______ _____ _____    ______ ____
ROOT
ATOM      1  C   UNL     1       0.008  11.763  20.431  0.00  0.00    +0.000 A 
ATOM      2  C   UNL     1       0.113  10.576  21.055  0.00  0.00    +0.000 A 
ATOM      3  C   UNL     1       0.757   9.428  20.443  0.00  0.00    +0.000 A 
ATOM      4  C   UNL     1       0.898   8.223  21.124  0.00  0.00    +0.000 A 
ATOM      5  C   UNL     1       1.534   7.180  20.473  0.00  0.00    +0.000 A 
ATOM      6  C   UNL     1       2.007   7.331  19.180  0.00  0.00    +0.000 A 
ATOM      7  C   UNL     1       1.862   8.509  18.477  0.00  0.00    +0.000 A 
ATOM      8  C   UNL     1       1.236   9.560  19.135  0.00  0.00    +0.000 A 
ATOM      9  O   UNL     1       1.114  10.779  18.452  0.00  0.00    +0.000 OA
ATOM     10  C   UNL     1       0.575  11.914  19.051  0.00  0.00    +0.000 A 
ATOM     11  O   UNL     1       0.557  12.978  18.438  0.00  0.00    +0.000 OA
ATOM     12  O   UNL     1       2.624   6.230  18.675  0.00  0.00    +0.000 OA
ATOM     13  C   UNL     1       2.574   5.247  19.737  0.00  0.00    +0.000 C 
ATOM     14  C   UNL     1       1.819   5.817  20.960  0.00  0.00    +0.000 C 
ENDROOT
BRANCH   1  15
ATOM     15  C   UNL     1      -0.661  12.996  21.070  0.00  0.00    +0.000 C 
ATOM     16  C   UNL     1      -1.021  12.777  22.565  0.00  0.00    +0.000 C 
ATOM     17  C   UNL     1      -2.004  13.295  20.361  0.00  0.00    +0.000 C 
BRANCH  15  19
ATOM     18  C   UNL     1       1.446  14.343  21.598  0.00  0.00    +0.000 C 
ATOM     19  C   UNL     1       0.253  14.218  20.996  0.00  0.00    +0.000 C 
ENDBRANCH  15  19
ENDBRANCH   1  15
BRANCH  13  20
ATOM     20  C   UNL     1       1.989   3.917  19.194  0.00  0.00    +0.000 C 
ATOM     21  C   UNL     1       0.807   3.426  20.055  0.00  0.00    +0.000 C 
ATOM     22  C   UNL     1       1.474   4.101  17.758  0.00  0.00    +0.000 C 
BRANCH  20  23
ATOM     23  O   UNL     1       3.014   2.902  19.314  0.00  0.00    +0.000 OA
BRANCH  23  24
ATOM     24  C   UNL     1       4.116   2.995  18.537  0.00  0.00    +0.000 C 
ATOM     25  O   UNL     1       4.158   2.884  17.324  0.00  0.00    +0.000 OA
BRANCH  24  26
ATOM     26  O   UNL     1       5.178   3.212  19.343  0.00  0.00    +0.000 OA
BRANCH  26  27
ATOM     27  C   UNL     1       5.700   4.540  19.274  0.00  0.00    +0.000 C 
BRANCH  27  28
ATOM     28  C   UNL     1       6.910   4.723  18.356  0.00  0.00    +0.000 C 
BRANCH  28  29
ATOM     29  C   UNL     1       7.048   6.161  17.946  0.00  0.00    +0.000 A 
ATOM     30  S   UNL     1       8.258   7.146  18.669  0.00  0.00    +0.000 S 
ATOM     31  C   UNL     1       7.748   8.461  17.702  0.00  0.00    +0.000 A 
ATOM     32  N   UNL     1       6.759   8.218  16.876  0.00  0.00    +0.000 NA
ATOM     33  C   UNL     1       6.337   6.903  17.011  0.00  0.00    +0.000 A 
ATOM     34  C   UNL     1       5.205   6.457  16.154  0.00  0.00    +0.000 C 
ENDBRANCH  28  29
ENDBRANCH  27  28
ENDBRANCH  26  27
ENDBRANCH  24  26
ENDBRANCH  23  24
ENDBRANCH  20  23
ENDBRANCH  13  20
TORSDOF 9
ENDMDL
MODEL 4
REMARK VINA RESULT:      -7.5      2.335      3.133
REMARK  Name = 
REMARK  14 active torsions:
REMARK  status: ('A' for Active; 'I' for Inactive)
REMARK    1  A    between atoms: C_2  and  C_3
REMARK    2  A    between atoms: C_3  and  C_4
REMARK    3  A    between atoms: C_3  and  C_5
REMARK    4  A    between atoms: C_3  and  C_6
REMARK    5  A    between atoms: C_18  and  C_19
REMARK    6  A    between atoms: C_19  and  C_20
REMARK    7  A    between atoms: C_19  and  C_21
REMARK    8  A    between atoms: C_19  and  O_22
REMARK    9  A    between atoms: O_22  and  C_23
REMARK   10  A    between atoms: C_23  and  O_25
REMARK   11  A    between atoms: O_25  and  C_26
REMARK   12  A    between atoms: C_26  and  C_27
REMARK   13  A    between atoms: C_27  and  C_28
REMARK   14  A    between atoms: C_32  and  C_33
REMARK                            x       y       z     vdW  Elec       q    Type
REMARK                         _______ _______ _______ _____ _____    ______ ____
ROOT
ATOM      1  C   UNL     1       4.039   5.768  17.998  0.00  0.00    +0.000 A 
ATOM      2  C   UNL     1       3.640   6.979  17.568  0.00  0.00    +0.000 A 
ATOM      3  C   UNL     1       2.755   7.829  18.343  0.00  0.00    +0.000 A 
ATOM      4  C   UNL     1       2.393   9.098  17.902  0.00  0.00    +0.000 A 
ATOM      5  C   UNL     1       1.554   9.850  18.706  0.00  0.00    +0.000 A 
ATOM      6  C   UNL     1       1.084   9.349  19.909  0.00  0.00    +0.000 A 
ATOM      7  C   UNL     1       1.413   8.087  20.359  0.00  0.00    +0.000 A 
ATOM      8  C   UNL     1       2.266   7.337  19.559  0.00  0.00    +0.000 A 
ATOM      9  O   UNL     1       2.644   6.068  20.017  0.00  0.00    +0.000 OA
ATOM     10  C   UNL     1       3.556   5.272  19.329  0.00  0.00    +0.000 A 
ATOM     11  O   UNL     1       3.913   4.199  19.806  0.00  0.00    +0.000 OA
ATOM     12  O   UNL     1       0.284  10.205  20.600  0.00  0.00    +0.000 OA
ATOM     13  C   UNL     1       0.221  11.403  19.790  0.00  0.00    +0.000 C 
ATOM     14  C   UNL     1       1.027  11.210  18.484  0.00  0.00    +0.000 C 
ENDROOT
BRANCH   1  15
ATOM     15  C   UNL     1       4.988   4.857  17.194  0.00  0.00    +0.000 C 
ATOM     16  C   UNL     1       5.299   5.415  15.779  0.00  0.00    +0.000 C 
ATOM     17  C   UNL     1       4.323   3.479  16.960  0.00  0.00    +0.000 C 
BRANCH  15  19
ATOM     18  C   UNL     1       7.139   5.667  18.313  0.00  0.00    +0.000 C 
ATOM     19  C   UNL     1       6.321   4.678  17.918  0.00  0.00    +0.000 C 
ENDBRANCH  15  19
ENDBRANCH   1  15
BRANCH  13  20
ATOM     20  C   UNL     1      -1.258  11.810  19.567  0.00  0.00    +0.000 C 
ATOM     21  C   UNL     1      -1.369  13.205  18.917  0.00  0.00    +0.000 C 
ATOM     22  C   UNL     1      -1.959  10.806  18.638  0.00  0.00    +0.000 C 
BRANCH  20  23
ATOM     23  O   UNL     1      -1.884  11.928  20.866  0.00  0.00    +0.000 OA
BRANCH  23  24
ATOM     24  C   UNL     1      -3.009  12.669  20.982  0.00  0.00    +0.000 C 
ATOM     25  O   UNL     1      -4.107  12.394  20.531  0.00  0.00    +0.000 OA
BRANCH  24  26
ATOM     26  O   UNL     1      -2.700  13.790  21.670  0.00  0.00    +0.000 OA
BRANCH  26  27
ATOM     27  C   UNL     1      -3.700  14.809  21.601  0.00  0.00    +0.000 C 
BRANCH  27  28
ATOM     28  C   UNL     1      -4.357  15.174  22.933  0.00  0.00    +0.000 C 
BRANCH  28  29
ATOM     29  C   UNL     1      -5.430  14.182  23.280  0.00  0.00    +0.000 A 
ATOM     30  S   UNL     1      -7.054  14.470  22.793  0.00  0.00    +0.000 S 
ATOM     31  C   UNL     1      -7.520  12.992  23.517  0.00  0.00    +0.000 A 
ATOM     32  N   UNL     1      -6.559  12.298  24.078  0.00  0.00    +0.000 NA
ATOM     33  C   UNL     1      -5.353  12.973  23.961  0.00  0.00    +0.000 A 
ATOM     34  C   UNL     1      -4.150  12.331  24.559  0.00  0.00    +0.000 C 
ENDBRANCH  28  29
ENDBRANCH  27  28
ENDBRANCH  26  27
ENDBRANCH  24  26
ENDBRANCH  23  24
ENDBRANCH  20  23
ENDBRANCH  13  20
TORSDOF 9
ENDMDL
MODEL 5
REMARK VINA RESULT:      -7.5      4.713     10.074
REMARK  Name = 
REMARK  14 active torsions:
REMARK  status: ('A' for Active; 'I' for Inactive)
REMARK    1  A    between atoms: C_2  and  C_3
REMARK    2  A    between atoms: C_3  and  C_4
REMARK    3  A    between atoms: C_3  and  C_5
REMARK    4  A    between atoms: C_3  and  C_6
REMARK    5  A    between atoms: C_18  and  C_19
REMARK    6  A    between atoms: C_19  and  C_20
REMARK    7  A    between atoms: C_19  and  C_21
REMARK    8  A    between atoms: C_19  and  O_22
REMARK    9  A    between atoms: O_22  and  C_23
REMARK   10  A    between atoms: C_23  and  O_25
REMARK   11  A    between atoms: O_25  and  C_26
REMARK   12  A    between atoms: C_26  and  C_27
REMARK   13  A    between atoms: C_27  and  C_28
REMARK   14  A    between atoms: C_32  and  C_33
REMARK                            x       y       z     vdW  Elec       q    Type
REMARK                         _______ _______ _______ _____ _____    ______ ____
ROOT
ATOM      1  C   UNL     1       0.507  11.660  20.251  0.00  0.00    +0.000 A 
ATOM      2  C   UNL     1       0.560  10.503  20.937  0.00  0.00    +0.000 A 
ATOM      3  C   UNL     1       1.083   9.278  20.361  0.00  0.00    +0.000 A 
ATOM      4  C   UNL     1       1.173   8.105  21.103  0.00  0.00    +0.000 A 
ATOM      5  C   UNL     1       1.695   6.983  20.482  0.00  0.00    +0.000 A 
ATOM      6  C   UNL     1       2.106   7.028  19.160  0.00  0.00    +0.000 A 
ATOM      7  C   UNL     1       2.010   8.173  18.398  0.00  0.00    +0.000 A 
ATOM      8  C   UNL     1       1.499   9.303  19.024  0.00  0.00    +0.000 A 
ATOM      9  O   UNL     1       1.429  10.489  18.280  0.00  0.00    +0.000 OA
ATOM     10  C   UNL     1       1.007  11.693  18.838  0.00  0.00    +0.000 A 
ATOM     11  O   UNL     1       1.033  12.720  18.167  0.00  0.00    +0.000 OA
ATOM     12  O   UNL     1       2.613   5.857  18.689  0.00  0.00    +0.000 OA
ATOM     13  C   UNL     1       2.550   4.940  19.807  0.00  0.00    +0.000 C 
ATOM     14  C   UNL     1       1.907   5.630  21.032  0.00  0.00    +0.000 C 
ENDROOT
BRANCH   1  15
ATOM     15  C   UNL     1      -0.034  12.973  20.852  0.00  0.00    +0.000 C 
ATOM     16  C   UNL     1      -1.096  12.734  21.959  0.00  0.00    +0.000 C 
ATOM     17  C   UNL     1      -0.756  13.795  19.756  0.00  0.00    +0.000 C 
BRANCH  15  19
ATOM     18  C   UNL     1       2.130  14.332  20.806  0.00  0.00    +0.000 C 
ATOM     19  C   UNL     1       1.092  13.800  21.469  0.00  0.00    +0.000 C 
ENDBRANCH  15  19
ENDBRANCH   1  15
BRANCH  13  20
ATOM     20  C   UNL     1       1.841   3.630  19.372  0.00  0.00    +0.000 C 
ATOM     21  C   UNL     1       0.586   3.357  20.228  0.00  0.00    +0.000 C 
ATOM     22  C   UNL     1       1.393   3.721  17.905  0.00  0.00    +0.000 C 
BRANCH  20  23
ATOM     23  O   UNL     1       2.745   2.531  19.633  0.00  0.00    +0.000 OA
BRANCH  23  24
ATOM     24  C   UNL     1       3.988   2.571  19.103  0.00  0.00    +0.000 C 
ATOM     25  O   UNL     1       5.011   2.896  19.679  0.00  0.00    +0.000 OA
BRANCH  24  26
ATOM     26  O   UNL     1       3.899   2.209  17.804  0.00  0.00    +0.000 OA
BRANCH  26  27
ATOM     27  C   UNL     1       4.818   2.888  16.946  0.00  0.00    +0.000 C 
BRANCH  27  28
ATOM     28  C   UNL     1       4.444   4.329  16.594  0.00  0.00    +0.000 C 
BRANCH  28  29
ATOM     29  C   UNL     1       5.655   5.215  16.646  0.00  0.00    +0.000 A 
ATOM     30  S   UNL     1       5.954   6.176  18.041  0.00  0.00    +0.000 S 
ATOM     31  C   UNL     1       7.380   6.773  17.309  0.00  0.00    +0.000 A 
ATOM     32  N   UNL     1       7.654   6.302  16.116  0.00  0.00    +0.000 NA
ATOM     33  C   UNL     1       6.667   5.414  15.715  0.00  0.00    +0.000 A 
ATOM     34  C   UNL     1       6.812   4.792  14.371  0.00  0.00    +0.000 C 
ENDBRANCH  28  29
ENDBRANCH  27  28
ENDBRANCH  26  27
ENDBRANCH  24  26
ENDBRANCH  23  24
ENDBRANCH  20  23
ENDBRANCH  13  20
TORSDOF 9
ENDMDL
MODEL 6
REMARK VINA RESULT:      -7.5      4.560     10.105
REMARK  Name = 
REMARK  14 active torsions:
REMARK  status: ('A' for Active; 'I' for Inactive)
REMARK    1  A    between atoms: C_2  and  C_3
REMARK    2  A    between atoms: C_3  and  C_4
REMARK    3  A    between atoms: C_3  and  C_5
REMARK    4  A    between atoms: C_3  and  C_6
REMARK    5  A    between atoms: C_18  and  C_19
REMARK    6  A    between atoms: C_19  and  C_20
REMARK    7  A    between atoms: C_19  and  C_21
REMARK    8  A    between atoms: C_19  and  O_22
REMARK    9  A    between atoms: O_22  and  C_23
REMARK   10  A    between atoms: C_23  and  O_25
REMARK   11  A    between atoms: O_25  and  C_26
REMARK   12  A    between atoms: C_26  and  C_27
REMARK   13  A    between atoms: C_27  and  C_28
REMARK   14  A    between atoms: C_32  and  C_33
REMARK                            x       y       z     vdW  Elec       q    Type
REMARK                         _______ _______ _______ _____ _____    ______ ____
ROOT
ATOM      1  C   UNL     1      -0.162  11.950  20.579  0.00  0.00    +0.000 A 
ATOM      2  C   UNL     1      -0.022  10.759  21.188  0.00  0.00    +0.000 A 
ATOM      3  C   UNL     1       0.662   9.640  20.564  0.00  0.00    +0.000 A 
ATOM      4  C   UNL     1       0.838   8.431  21.230  0.00  0.00    +0.000 A 
ATOM      5  C   UNL     1       1.511   7.419  20.569  0.00  0.00    +0.000 A 
ATOM      6  C   UNL     1       1.985   7.602  19.280  0.00  0.00    +0.000 A 
ATOM      7  C   UNL     1       1.806   8.784  18.592  0.00  0.00    +0.000 A 
ATOM      8  C   UNL     1       1.143   9.806  19.260  0.00  0.00    +0.000 A 
ATOM      9  O   UNL     1       0.985  11.029  18.593  0.00  0.00    +0.000 OA
ATOM     10  C   UNL     1       0.407  12.138  19.204  0.00  0.00    +0.000 A 
ATOM     11  O   UNL     1       0.357  13.209  18.606  0.00  0.00    +0.000 OA
ATOM     12  O   UNL     1       2.641   6.528  18.764  0.00  0.00    +0.000 OA
ATOM     13  C   UNL     1       2.617   5.530  19.812  0.00  0.00    +0.000 C 
ATOM     14  C   UNL     1       1.838   6.059  21.039  0.00  0.00    +0.000 C 
ENDROOT
BRANCH   1  15
ATOM     15  C   UNL     1      -0.874  13.152  21.231  0.00  0.00    +0.000 C 
ATOM     16  C   UNL     1      -1.210  12.911  22.728  0.00  0.00    +0.000 C 
ATOM     17  C   UNL     1      -2.234  13.401  20.536  0.00  0.00    +0.000 C 
BRANCH  15  19
ATOM     18  C   UNL     1      -0.392  15.647  21.508  0.00  0.00    +0.000 C 
ATOM     19  C   UNL     1      -0.010  14.410  21.154  0.00  0.00    +0.000 C 
ENDBRANCH  15  19
ENDBRANCH   1  15
BRANCH  13  20
ATOM     20  C   UNL     1       2.078   4.189  19.248  0.00  0.00    +0.000 C 
ATOM     21  C   UNL     1       0.967   3.605  20.146  0.00  0.00    +0.000 C 
ATOM     22  C   UNL     1       1.483   4.394  17.846  0.00  0.00    +0.000 C 
BRANCH  20  23
ATOM     23  O   UNL     1       3.160   3.229  19.282  0.00  0.00    +0.000 OA
BRANCH  23  24
ATOM     24  C   UNL     1       3.631   2.738  18.114  0.00  0.00    +0.000 C 
ATOM     25  O   UNL     1       3.603   1.575  17.754  0.00  0.00    +0.000 OA
BRANCH  24  26
ATOM     26  O   UNL     1       4.166   3.764  17.416  0.00  0.00    +0.000 OA
BRANCH  26  27
ATOM     27  C   UNL     1       4.608   3.407  16.105  0.00  0.00    +0.000 C 
BRANCH  27  28
ATOM     28  C   UNL     1       6.030   3.847  15.750  0.00  0.00    +0.000 C 
BRANCH  28  29
ATOM     29  C   UNL     1       6.464   4.983  16.630  0.00  0.00    +0.000 A 
ATOM     30  S   UNL     1       7.725   4.747  17.776  0.00  0.00    +0.000 S 
ATOM     31  C   UNL     1       7.576   6.381  18.259  0.00  0.00    +0.000 A 
ATOM     32  N   UNL     1       6.672   7.088  17.624  0.00  0.00    +0.000 NA
ATOM     33  C   UNL     1       6.016   6.297  16.692  0.00  0.00    +0.000 A 
ATOM     34  C   UNL     1       4.941   6.940  15.887  0.00  0.00    +0.000 C 
ENDBRANCH  28  29
ENDBRANCH  27  28
ENDBRANCH  26  27
ENDBRANCH  24  26
ENDBRANCH  23  24
ENDBRANCH  20  23
ENDBRANCH  13  20
TORSDOF 9
ENDMDL
MODEL 7
REMARK VINA RESULT:      -7.5      1.108      1.569
REMARK  Name = 
REMARK  14 active torsions:
REMARK  status: ('A' for Active; 'I' for Inactive)
REMARK    1  A    between atoms: C_2  and  C_3
REMARK    2  A    between atoms: C_3  and  C_4
REMARK    3  A    between atoms: C_3  and  C_5
REMARK    4  A    between atoms: C_3  and  C_6
REMARK    5  A    between atoms: C_18  and  C_19
REMARK    6  A    between atoms: C_19  and  C_20
REMARK    7  A    between atoms: C_19  and  C_21
REMARK    8  A    between atoms: C_19  and  O_22
REMARK    9  A    between atoms: O_22  and  C_23
REMARK   10  A    between atoms: C_23  and  O_25
REMARK   11  A    between atoms: O_25  and  C_26
REMARK   12  A    between atoms: C_26  and  C_27
REMARK   13  A    between atoms: C_27  and  C_28
REMARK   14  A    between atoms: C_32  and  C_33
REMARK                            x       y       z     vdW  Elec       q    Type
REMARK                         _______ _______ _______ _____ _____    ______ ____
ROOT
ATOM      1  C   UNL     1       2.914   4.862  18.757  0.00  0.00    +0.000 A 
ATOM      2  C   UNL     1       2.816   6.032  18.100  0.00  0.00    +0.000 A 
ATOM      3  C   UNL     1       2.289   7.233  18.721  0.00  0.00    +0.000 A 
ATOM      4  C   UNL     1       2.241   8.445  18.039  0.00  0.00    +0.000 A 
ATOM      5  C   UNL     1       1.735   9.546  18.707  0.00  0.00    +0.000 A 
ATOM      6  C   UNL     1       1.281   9.441  20.012  0.00  0.00    +0.000 A 
ATOM      7  C   UNL     1       1.301   8.248  20.702  0.00  0.00    +0.000 A 
ATOM      8  C   UNL     1       1.822   7.145  20.038  0.00  0.00    +0.000 A 
ATOM      9  O   UNL     1       1.887   5.931  20.735  0.00  0.00    +0.000 OA
ATOM     10  C   UNL     1       2.464   4.789  20.186  0.00  0.00    +0.000 A 
ATOM     11  O   UNL     1       2.565   3.769  20.862  0.00  0.00    +0.000 OA
ATOM     12  O   UNL     1       0.828  10.607  20.545  0.00  0.00    +0.000 OA
ATOM     13  C   UNL     1       1.007  11.595  19.503  0.00  0.00    +0.000 C 
ATOM     14  C   UNL     1       1.579  10.934  18.228  0.00  0.00    +0.000 C 
ENDROOT
BRANCH   1  15
ATOM     15  C   UNL     1       3.482   3.580  18.117  0.00  0.00    +0.000 C 
ATOM     16  C   UNL     1       2.389   2.511  17.841  0.00  0.00    +0.000 C 
ATOM     17  C   UNL     1       4.484   2.906  19.086  0.00  0.00    +0.000 C 
BRANCH  15  19
ATOM     18  C   UNL     1       5.473   4.145  16.617  0.00  0.00    +0.000 C 
ATOM     19  C   UNL     1       4.167   3.887  16.787  0.00  0.00    +0.000 C 
ENDBRANCH  15  19
ENDBRANCH   1  15
BRANCH  13  20
ATOM     20  C   UNL     1      -0.321  12.365  19.276  0.00  0.00    +0.000 C 
ATOM     21  C   UNL     1      -1.301  12.160  20.450  0.00  0.00    +0.000 C 
ATOM     22  C   UNL     1      -0.054  13.873  19.150  0.00  0.00    +0.000 C 
BRANCH  20  23
ATOM     23  O   UNL     1      -0.969  11.794  18.115  0.00  0.00    +0.000 OA
BRANCH  23  24
ATOM     24  C   UNL     1      -1.934  10.866  18.299  0.00  0.00    +0.000 C 
ATOM     25  O   UNL     1      -1.798   9.657  18.231  0.00  0.00    +0.000 OA
BRANCH  24  26
ATOM     26  O   UNL     1      -3.093  11.513  18.550  0.00  0.00    +0.000 OA
BRANCH  26  27
ATOM     27  C   UNL     1      -4.083  11.350  17.533  0.00  0.00    +0.000 C 
BRANCH  27  28
ATOM     28  C   UNL     1      -5.446  10.853  18.019  0.00  0.00    +0.000 C 
BRANCH  28  29
ATOM     29  C   UNL     1      -6.361  12.011  18.295  0.00  0.00    +0.000 A 
ATOM     30  S   UNL     1      -6.540  13.260  17.126  0.00  0.00    +0.000 S 
ATOM     31  C   UNL     1      -7.649  14.052  18.159  0.00  0.00    +0.000 A 
ATOM     32  N   UNL     1      -7.904  13.451  19.297  0.00  0.00    +0.000 NA
ATOM     33  C   UNL     1      -7.164  12.282  19.396  0.00  0.00    +0.000 A 
ATOM     34  C   UNL     1      -7.320  11.478  20.639  0.00  0.00    +0.000 C 
ENDBRANCH  28  29
ENDBRANCH  27  28
ENDBRANCH  26  27
ENDBRANCH  24  26
ENDBRANCH  23  24
ENDBRANCH  20  23
ENDBRANCH  13  20
TORSDOF 9
ENDMDL
MODEL 8
REMARK VINA RESULT:      -7.4      2.029      3.310
REMARK  Name = 
REMARK  14 active torsions:
REMARK  status: ('A' for Active; 'I' for Inactive)
REMARK    1  A    between atoms: C_2  and  C_3
REMARK    2  A    between atoms: C_3  and  C_4
REMARK    3  A    between atoms: C_3  and  C_5
REMARK    4  A    between atoms: C_3  and  C_6
REMARK    5  A    between atoms: C_18  and  C_19
REMARK    6  A    between atoms: C_19  and  C_20
REMARK    7  A    between atoms: C_19  and  C_21
REMARK    8  A    between atoms: C_19  and  O_22
REMARK    9  A    between atoms: O_22  and  C_23
REMARK   10  A    between atoms: C_23  and  O_25
REMARK   11  A    between atoms: O_25  and  C_26
REMARK   12  A    between atoms: C_26  and  C_27
REMARK   13  A    between atoms: C_27  and  C_28
REMARK   14  A    between atoms: C_32  and  C_33
REMARK                            x       y       z     vdW  Elec       q    Type
REMARK                         _______ _______ _______ _____ _____    ______ ____
ROOT
ATOM      1  C   UNL     1       2.732   4.983  18.824  0.00  0.00    +0.000 A 
ATOM      2  C   UNL     1       2.617   6.185  18.229  0.00  0.00    +0.000 A 
ATOM      3  C   UNL     1       2.139   7.361  18.932  0.00  0.00    +0.000 A 
ATOM      4  C   UNL     1       2.075   8.604  18.312  0.00  0.00    +0.000 A 
ATOM      5  C   UNL     1       1.618   9.678  19.056  0.00  0.00    +0.000 A 
ATOM      6  C   UNL     1       1.229   9.515  20.376  0.00  0.00    +0.000 A 
ATOM      7  C   UNL     1       1.266   8.290  21.007  0.00  0.00    +0.000 A 
ATOM      8  C   UNL     1       1.738   7.214  20.265  0.00  0.00    +0.000 A 
ATOM      9  O   UNL     1       1.821   5.967  20.900  0.00  0.00    +0.000 OA
ATOM     10  C   UNL     1       2.353   4.846  20.268  0.00  0.00    +0.000 A 
ATOM     11  O   UNL     1       2.474   3.794  20.889  0.00  0.00    +0.000 OA
ATOM     12  O   UNL     1       0.820  10.659  20.986  0.00  0.00    +0.000 OA
ATOM     13  C   UNL     1       0.959  11.694  19.985  0.00  0.00    +0.000 C 
ATOM     14  C   UNL     1       1.458  11.088  18.652  0.00  0.00    +0.000 C 
ENDROOT
BRANCH   1  15
ATOM     15  C   UNL     1       3.249   3.727  18.095  0.00  0.00    +0.000 C 
ATOM     16  C   UNL     1       2.140   2.663  17.872  0.00  0.00    +0.000 C 
ATOM     17  C   UNL     1       4.328   3.025  18.956  0.00  0.00    +0.000 C 
BRANCH  15  19
ATOM     18  C   UNL     1       5.126   4.098  16.400  0.00  0.00    +0.000 C 
ATOM     19  C   UNL     1       3.823   4.083  16.725  0.00  0.00    +0.000 C 
ENDBRANCH  15  19
ENDBRANCH   1  15
BRANCH  13  20
ATOM     20  C   UNL     1      -0.367  12.489  19.862  0.00  0.00    +0.000 C 
ATOM     21  C   UNL     1      -0.779  12.678  18.387  0.00  0.00    +0.000 C 
ATOM     22  C   UNL     1      -1.509  11.745  20.573  0.00  0.00    +0.000 C 
BRANCH  20  23
ATOM     23  O   UNL     1      -0.134  13.820  20.382  0.00  0.00    +0.000 OA
BRANCH  23  24
ATOM     24  C   UNL     1       0.386  13.952  21.622  0.00  0.00    +0.000 C 
ATOM     25  O   UNL     1       1.564  14.080  21.904  0.00  0.00    +0.000 OA
BRANCH  24  26
ATOM     26  O   UNL     1      -0.632  13.895  22.509  0.00  0.00    +0.000 OA
BRANCH  26  27
ATOM     27  C   UNL     1      -1.492  15.036  22.483  0.00  0.00    +0.000 C 
BRANCH  27  28
ATOM     28  C   UNL     1      -2.736  14.940  23.368  0.00  0.00    +0.000 C 
BRANCH  28  29
ATOM     29  C   UNL     1      -3.759  14.038  22.741  0.00  0.00    +0.000 A 
ATOM     30  S   UNL     1      -4.214  14.268  21.098  0.00  0.00    +0.000 S 
ATOM     31  C   UNL     1      -5.284  12.939  21.220  0.00  0.00    +0.000 A 
ATOM     32  N   UNL     1      -5.316  12.332  22.383  0.00  0.00    +0.000 NA
ATOM     33  C   UNL     1      -4.453  12.958  23.271  0.00  0.00    +0.000 A 
ATOM     34  C   UNL     1      -4.376  12.405  24.651  0.00  0.00    +0.000 C 
ENDBRANCH  28  29
ENDBRANCH  27  28
ENDBRANCH  26  27
ENDBRANCH  24  26
ENDBRANCH  23  24
ENDBRANCH  20  23
ENDBRANCH  13  20
TORSDOF 9
ENDMDL
MODEL 9
REMARK VINA RESULT:      -7.4      2.844      3.625
REMARK  Name = 
REMARK  14 active torsions:
REMARK  status: ('A' for Active; 'I' for Inactive)
REMARK    1  A    between atoms: C_2  and  C_3
REMARK    2  A    between atoms: C_3  and  C_4
REMARK    3  A    between atoms: C_3  and  C_5
REMARK    4  A    between atoms: C_3  and  C_6
REMARK    5  A    between atoms: C_18  and  C_19
REMARK    6  A    between atoms: C_19  and  C_20
REMARK    7  A    between atoms: C_19  and  C_21
REMARK    8  A    between atoms: C_19  and  O_22
REMARK    9  A    between atoms: O_22  and  C_23
REMARK   10  A    between atoms: C_23  and  O_25
REMARK   11  A    between atoms: O_25  and  C_26
REMARK   12  A    between atoms: C_26  and  C_27
REMARK   13  A    between atoms: C_27  and  C_28
REMARK   14  A    between atoms: C_32  and  C_33
REMARK                            x       y       z     vdW  Elec       q    Type
REMARK                         _______ _______ _______ _____ _____    ______ ____
ROOT
ATOM      1  C   UNL     1       2.748   4.505  19.482  0.00  0.00    +0.000 A 
ATOM      2  C   UNL     1       2.175   5.557  20.096  0.00  0.00    +0.000 A 
ATOM      3  C   UNL     1       2.078   6.865  19.474  0.00  0.00    +0.000 A 
ATOM      4  C   UNL     1       1.438   7.926  20.106  0.00  0.00    +0.000 A 
ATOM      5  C   UNL     1       1.380   9.138  19.440  0.00  0.00    +0.000 A 
ATOM      6  C   UNL     1       1.950   9.290  18.187  0.00  0.00    +0.000 A 
ATOM      7  C   UNL     1       2.606   8.258  17.548  0.00  0.00    +0.000 A 
ATOM      8  C   UNL     1       2.653   7.038  18.209  0.00  0.00    +0.000 A 
ATOM      9  O   UNL     1       3.280   5.965  17.560  0.00  0.00    +0.000 OA
ATOM     10  C   UNL     1       3.310   4.684  18.104  0.00  0.00    +0.000 A 
ATOM     11  O   UNL     1       3.807   3.761  17.465  0.00  0.00    +0.000 OA
ATOM     12  O   UNL     1       1.800  10.529  17.647  0.00  0.00    +0.000 OA
ATOM     13  C   UNL     1       1.045  11.280  18.627  0.00  0.00    +0.000 C 
ATOM     14  C   UNL     1       0.764  10.408  19.872  0.00  0.00    +0.000 C 
ENDROOT
BRANCH   1  15
ATOM     15  C   UNL     1       2.848   3.106  20.123  0.00  0.00    +0.000 C 
ATOM     16  C   UNL     1       2.368   3.086  21.599  0.00  0.00    +0.000 C 
ATOM     17  C   UNL     1       4.326   2.648  20.161  0.00  0.00    +0.000 C 
BRANCH  15  19
ATOM     18  C   UNL     1       0.748   2.279  18.922  0.00  0.00    +0.000 C 
ATOM     19  C   UNL     1       2.005   2.090  19.355  0.00  0.00    +0.000 C 
ENDBRANCH  15  19
ENDBRANCH   1  15
BRANCH  13  20
ATOM     20  C   UNL     1       1.770  12.615  18.939  0.00  0.00    +0.000 C 
ATOM     21  C   UNL     1       1.954  12.817  20.457  0.00  0.00    +0.000 C 
ATOM     22  C   UNL     1       3.165  12.634  18.295  0.00  0.00    +0.000 C 
BRANCH  20  23
ATOM     23  O   UNL     1       0.915  13.696  18.496  0.00  0.00    +0.000 OA
BRANCH  23  24
ATOM     24  C   UNL     1      -0.420  13.586  18.677  0.00  0.00    +0.000 C 
ATOM     25  O   UNL     1      -1.179  12.866  18.053  0.00  0.00    +0.000 OA
BRANCH  24  26
ATOM     26  O   UNL     1      -0.778  14.437  19.663  0.00  0.00    +0.000 OA
BRANCH  26  27
ATOM     27  C   UNL     1      -1.815  13.941  20.512  0.00  0.00    +0.000 C 
BRANCH  27  28
ATOM     28  C   UNL     1      -1.749  14.407  21.968  0.00  0.00    +0.000 C 
BRANCH  28  29
ATOM     29  C   UNL     1      -2.730  13.642  22.810  0.00  0.00    +0.000 A 
ATOM     30  S   UNL     1      -4.195  14.390  23.311  0.00  0.00    +0.000 S 
ATOM     31  C   UNL     1      -4.643  12.948  24.114  0.00  0.00    +0.000 A 
ATOM     32  N   UNL     1      -3.793  11.953  24.025  0.00  0.00    +0.000 NA
ATOM     33  C   UNL     1      -2.683  12.339  23.288  0.00  0.00    +0.000 A 
ATOM     34  C   UNL     1      -1.605  11.330  23.099  0.00  0.00    +0.000 C 
ENDBRANCH  28  29
ENDBRANCH  27  28
ENDBRANCH  26  27
ENDBRANCH  24  26
ENDBRANCH  23  24
ENDBRANCH  20  23
ENDBRANCH  13  20
TORSDOF 9
ENDMDL
