MODEL 1
REMARK VINA RESULT:      -5.8      0.000      0.000
REMARK  Name = 
REMARK  15 active torsions:
REMARK  status: ('A' for Active; 'I' for Inactive)
REMARK    1  A    between atoms: C_1  and  C_2
REMARK    2  A    between atoms: C_2  and  O_3
REMARK    3  A    between atoms: O_3  and  C_4
REMARK    4  A    between atoms: C_4  and  C_6
REMARK    5  A    between atoms: C_7  and  C_8
REMARK    6  A    between atoms: C_10  and  O_11
REMARK    7  A    between atoms: O_11  and  C_12
REMARK    8  A    between atoms: N_13  and  C_14
REMARK    9  A    between atoms: C_14  and  C_15
REMARK   10  A    between atoms: C_15  and  C_17
REMARK   11  A    between atoms: C_20  and  O_21
REMARK   12  A    between atoms: O_21  and  C_22
REMARK   13  A    between atoms: C_25  and  C_26
REMARK   14  A    between atoms: C_29  and  O_30
REMARK   15  A    between atoms: O_30  and  C_31
REMARK                            x       y       z     vdW  Elec       q    Type
REMARK                         _______ _______ _______ _____ _____    ______ ____
ROOT
ATOM      1  C   UNL     1      -4.905  12.046  19.485  0.00  0.00    +0.000 C 
ATOM      2  C   UNL     1      -4.933  12.187  18.143  0.00  0.00    +0.000 C 
ATOM      3  C   UNL     1      -6.140  12.447  17.268  0.00  0.00    +0.000 C 
ATOM      4  N   UNL     1      -3.743  12.090  17.446  0.00  0.00    +0.000 N 
ATOM      5  C   UNL     1      -2.554  11.530  18.029  0.00  0.00    +0.000 C 
ATOM      6  N   UNL     1      -2.311  11.634  19.465  0.00  0.00    +0.000 NA
ATOM      7  C   UNL     1      -3.571  11.896  20.232  0.00  0.00    +0.000 C 
ATOM      8  H   UNL     1      -3.836  11.841  16.465  0.00  0.00    +0.000 HD
ENDROOT
BRANCH   7   9
ATOM      9  C   UNL     1      -3.440  13.022  21.272  0.00  0.00    +0.000 A 
ATOM     10  C   UNL     1      -3.293  12.738  22.641  0.00  0.00    +0.000 A 
ATOM     11  C   UNL     1      -3.130  13.773  23.561  0.00  0.00    +0.000 A 
ATOM     12  C   UNL     1      -3.117  15.098  23.131  0.00  0.00    +0.000 A 
ATOM     13  C   UNL     1      -3.325  15.393  21.783  0.00  0.00    +0.000 A 
ATOM     14  C   UNL     1      -3.476  14.362  20.856  0.00  0.00    +0.000 A 
BRANCH  12  15
ATOM     15  O   UNL     1      -2.933  16.037  24.110  0.00  0.00    +0.000 OA
ATOM     16  C   UNL     1      -4.128  16.461  24.757  0.00  0.00    +0.000 C 
ENDBRANCH  12  15
ENDBRANCH   7   9
BRANCH   1  17
ATOM     17  C   UNL     1      -6.152  12.091  20.313  0.00  0.00    +0.000 C 
ATOM     18  O   UNL     1      -6.653  11.120  20.863  0.00  0.00    +0.000 OA
BRANCH  17  19
ATOM     19  O   UNL     1      -6.674  13.344  20.377  0.00  0.00    +0.000 OA
BRANCH  19  21
ATOM     20  C   UNL     1      -6.803  14.255  22.648  0.00  0.00    +0.000 C 
ATOM     21  C   UNL     1      -7.541  13.585  21.498  0.00  0.00    +0.000 C 
ENDBRANCH  19  21
ENDBRANCH  17  19
ENDBRANCH   1  17
BRANCH   5  22
ATOM     22  O   UNL     1      -2.386  10.190  17.559  0.00  0.00    +0.000 OA
ATOM     23  C   UNL     1      -2.678   9.967  16.190  0.00  0.00    +0.000 C 
ENDBRANCH   5  22
BRANCH   6  24
ATOM     24  C   UNL     1      -1.183  12.543  19.755  0.00  0.00    +0.000 C 
BRANCH  24  25
ATOM     25  C   UNL     1      -0.075  11.870  20.563  0.00  0.00    +0.000 C 
ATOM     26  O   UNL     1       0.260  12.309  21.664  0.00  0.00    +0.000 OA
BRANCH  25  27
ATOM     27  C   UNL     1       0.599  10.645  20.039  0.00  0.00    +0.000 A 
ATOM     28  C   UNL     1       1.032  10.657  18.707  0.00  0.00    +0.000 A 
ATOM     29  C   UNL     1       1.643   9.529  18.155  0.00  0.00    +0.000 A 
ATOM     30  C   UNL     1       1.864   8.391  18.931  0.00  0.00    +0.000 A 
ATOM     31  C   UNL     1       1.461   8.384  20.266  0.00  0.00    +0.000 A 
ATOM     32  C   UNL     1       0.827   9.506  20.820  0.00  0.00    +0.000 A 
BRANCH  30  33
ATOM     33  O   UNL     1       2.434   7.342  18.266  0.00  0.00    +0.000 OA
ATOM     34  C   UNL     1       2.932   6.285  19.078  0.00  0.00    +0.000 C 
ENDBRANCH  30  33
ENDBRANCH  25  27
ENDBRANCH  24  25
ENDBRANCH   6  24
TORSDOF 10
ENDMDL
MODEL 2
REMARK VINA RESULT:      -5.7      0.617      1.046
REMARK  Name = 
REMARK  15 active torsions:
REMARK  status: ('A' for Active; 'I' for Inactive)
REMARK    1  A    between atoms: C_1  and  C_2
REMARK    2  A    between atoms: C_2  and  O_3
REMARK    3  A    between atoms: O_3  and  C_4
REMARK    4  A    between atoms: C_4  and  C_6
REMARK    5  A    between atoms: C_7  and  C_8
REMARK    6  A    between atoms: C_10  and  O_11
REMARK    7  A    between atoms: O_11  and  C_12
REMARK    8  A    between atoms: N_13  and  C_14
REMARK    9  A    between atoms: C_14  and  C_15
REMARK   10  A    between atoms: C_15  and  C_17
REMARK   11  A    between atoms: C_20  and  O_21
REMARK   12  A    between atoms: O_21  and  C_22
REMARK   13  A    between atoms: C_25  and  C_26
REMARK   14  A    between atoms: C_29  and  O_30
REMARK   15  A    between atoms: O_30  and  C_31
REMARK                            x       y       z     vdW  Elec       q    Type
REMARK                         _______ _______ _______ _____ _____    ______ ____
ROOT
ATOM      1  C   UNL     1      -4.966  12.289  19.932  0.00  0.00    +0.000 C 
ATOM      2  C   UNL     1      -5.132  12.404  18.598  0.00  0.00    +0.000 C 
ATOM      3  C   UNL     1      -6.403  12.751  17.853  0.00  0.00    +0.000 C 
ATOM      4  N   UNL     1      -4.040  12.188  17.777  0.00  0.00    +0.000 N 
ATOM      5  C   UNL     1      -2.846  11.537  18.244  0.00  0.00    +0.000 C 
ATOM      6  N   UNL     1      -2.435  11.649  19.640  0.00  0.00    +0.000 NA
ATOM      7  C   UNL     1      -3.575  12.037  20.532  0.00  0.00    +0.000 C 
ATOM      8  H   UNL     1      -4.263  11.928  16.821  0.00  0.00    +0.000 HD
ENDROOT
BRANCH   7   9
ATOM      9  C   UNL     1      -3.233  13.168  21.518  0.00  0.00    +0.000 A 
ATOM     10  C   UNL     1      -2.958  12.902  22.870  0.00  0.00    +0.000 A 
ATOM     11  C   UNL     1      -2.606  13.937  23.735  0.00  0.00    +0.000 A 
ATOM     12  C   UNL     1      -2.528  15.247  23.266  0.00  0.00    +0.000 A 
ATOM     13  C   UNL     1      -2.859  15.530  21.941  0.00  0.00    +0.000 A 
ATOM     14  C   UNL     1      -3.201  14.498  21.067  0.00  0.00    +0.000 A 
BRANCH  12  15
ATOM     15  O   UNL     1      -2.156  16.185  24.190  0.00  0.00    +0.000 OA
ATOM     16  C   UNL     1      -2.170  15.728  25.538  0.00  0.00    +0.000 C 
ENDBRANCH  12  15
ENDBRANCH   7   9
BRANCH   1  17
ATOM     17  C   UNL     1      -6.104  12.460  20.890  0.00  0.00    +0.000 C 
ATOM     18  O   UNL     1      -6.634  11.546  21.507  0.00  0.00    +0.000 OA
BRANCH  17  19
ATOM     19  O   UNL     1      -6.492  13.760  20.990  0.00  0.00    +0.000 OA
BRANCH  19  21
ATOM     20  C   UNL     1      -6.293  14.654  23.263  0.00  0.00    +0.000 C 
ATOM     21  C   UNL     1      -7.212  14.088  22.190  0.00  0.00    +0.000 C 
ENDBRANCH  19  21
ENDBRANCH  17  19
ENDBRANCH   1  17
BRANCH   5  22
ATOM     22  O   UNL     1      -2.845  10.178  17.799  0.00  0.00    +0.000 OA
ATOM     23  C   UNL     1      -2.290   9.941  16.517  0.00  0.00    +0.000 C 
ENDBRANCH   5  22
BRANCH   6  24
ATOM     24  C   UNL     1      -1.209  12.462  19.777  0.00  0.00    +0.000 C 
BRANCH  24  25
ATOM     25  C   UNL     1      -0.092  11.725  20.515  0.00  0.00    +0.000 C 
ATOM     26  O   UNL     1       0.250  12.068  21.648  0.00  0.00    +0.000 OA
BRANCH  25  27
ATOM     27  C   UNL     1       0.581  10.552  19.882  0.00  0.00    +0.000 A 
ATOM     28  C   UNL     1       0.875   9.450  20.694  0.00  0.00    +0.000 A 
ATOM     29  C   UNL     1       1.529   8.337  20.163  0.00  0.00    +0.000 A 
ATOM     30  C   UNL     1       1.865   8.292  18.810  0.00  0.00    +0.000 A 
ATOM     31  C   UNL     1       1.550   9.375  17.989  0.00  0.00    +0.000 A 
ATOM     32  C   UNL     1       0.911  10.504  18.522  0.00  0.00    +0.000 A 
BRANCH  30  33
ATOM     33  O   UNL     1       2.536   7.167  18.419  0.00  0.00    +0.000 OA
ATOM     34  C   UNL     1       2.925   6.278  19.460  0.00  0.00    +0.000 C 
ENDBRANCH  30  33
ENDBRANCH  25  27
ENDBRANCH  24  25
ENDBRANCH   6  24
TORSDOF 10
ENDMDL
MODEL 3
REMARK VINA RESULT:      -5.7      0.514      1.289
REMARK  Name = 
REMARK  15 active torsions:
REMARK  status: ('A' for Active; 'I' for Inactive)
REMARK    1  A    between atoms: C_1  and  C_2
REMARK    2  A    between atoms: C_2  and  O_3
REMARK    3  A    between atoms: O_3  and  C_4
REMARK    4  A    between atoms: C_4  and  C_6
REMARK    5  A    between atoms: C_7  and  C_8
REMARK    6  A    between atoms: C_10  and  O_11
REMARK    7  A    between atoms: O_11  and  C_12
REMARK    8  A    between atoms: N_13  and  C_14
REMARK    9  A    between atoms: C_14  and  C_15
REMARK   10  A    between atoms: C_15  and  C_17
REMARK   11  A    between atoms: C_20  and  O_21
REMARK   12  A    between atoms: O_21  and  C_22
REMARK   13  A    between atoms: C_25  and  C_26
REMARK   14  A    between atoms: C_29  and  O_30
REMARK   15  A    between atoms: O_30  and  C_31
REMARK                            x       y       z     vdW  Elec       q    Type
REMARK                         _______ _______ _______ _____ _____    ______ ____
ROOT
ATOM      1  C   UNL     1      -4.872  12.046  19.478  0.00  0.00    +0.000 C 
ATOM      2  C   UNL     1      -4.915  12.159  18.134  0.00  0.00    +0.000 C 
ATOM      3  C   UNL     1      -6.133  12.391  17.266  0.00  0.00    +0.000 C 
ATOM      4  N   UNL     1      -3.731  12.058  17.427  0.00  0.00    +0.000 N 
ATOM      5  C   UNL     1      -2.531  11.520  18.010  0.00  0.00    +0.000 C 
ATOM      6  N   UNL     1      -2.275  11.655  19.440  0.00  0.00    +0.000 NA
ATOM      7  C   UNL     1      -3.530  11.922  20.214  0.00  0.00    +0.000 C 
ATOM      8  H   UNL     1      -3.831  11.788  16.453  0.00  0.00    +0.000 HD
ENDROOT
BRANCH   7   9
ATOM      9  C   UNL     1      -3.398  13.070  21.230  0.00  0.00    +0.000 A 
ATOM     10  C   UNL     1      -3.436  14.415  20.822  0.00  0.00    +0.000 A 
ATOM     11  C   UNL     1      -3.361  15.440  21.765  0.00  0.00    +0.000 A 
ATOM     12  C   UNL     1      -3.243  15.138  23.120  0.00  0.00    +0.000 A 
ATOM     13  C   UNL     1      -3.142  13.808  23.529  0.00  0.00    +0.000 A 
ATOM     14  C   UNL     1      -3.228  12.779  22.593  0.00  0.00    +0.000 A 
BRANCH  12  15
ATOM     15  O   UNL     1      -3.195  16.215  23.964  0.00  0.00    +0.000 OA
ATOM     16  C   UNL     1      -2.723  15.921  25.274  0.00  0.00    +0.000 C 
ENDBRANCH  12  15
ENDBRANCH   7   9
BRANCH   1  17
ATOM     17  C   UNL     1      -6.111  12.096  20.318  0.00  0.00    +0.000 C 
ATOM     18  O   UNL     1      -6.613  11.128  20.871  0.00  0.00    +0.000 OA
BRANCH  17  19
ATOM     19  O   UNL     1      -6.625  13.353  20.388  0.00  0.00    +0.000 OA
BRANCH  19  21
ATOM     20  C   UNL     1      -6.882  14.383  22.597  0.00  0.00    +0.000 C 
ATOM     21  C   UNL     1      -7.532  13.579  21.480  0.00  0.00    +0.000 C 
ENDBRANCH  19  21
ENDBRANCH  17  19
ENDBRANCH   1  17
BRANCH   5  22
ATOM     22  O   UNL     1      -2.355  10.172  17.566  0.00  0.00    +0.000 OA
ATOM     23  C   UNL     1      -2.846   9.872  16.269  0.00  0.00    +0.000 C 
ENDBRANCH   5  22
BRANCH   6  24
ATOM     24  C   UNL     1      -1.152  12.580  19.700  0.00  0.00    +0.000 C 
BRANCH  24  25
ATOM     25  C   UNL     1      -0.064  11.958  20.573  0.00  0.00    +0.000 C 
ATOM     26  O   UNL     1       0.298  12.503  21.617  0.00  0.00    +0.000 OA
BRANCH  25  27
ATOM     27  C   UNL     1       0.556  10.655  20.187  0.00  0.00    +0.000 A 
ATOM     28  C   UNL     1       0.639   9.656  21.164  0.00  0.00    +0.000 A 
ATOM     29  C   UNL     1       1.235   8.428  20.868  0.00  0.00    +0.000 A 
ATOM     30  C   UNL     1       1.720   8.167  19.586  0.00  0.00    +0.000 A 
ATOM     31  C   UNL     1       1.613   9.148  18.600  0.00  0.00    +0.000 A 
ATOM     32  C   UNL     1       1.035  10.391  18.898  0.00  0.00    +0.000 A 
BRANCH  30  33
ATOM     33  O   UNL     1       2.313   6.945  19.432  0.00  0.00    +0.000 OA
ATOM     34  C   UNL     1       1.932   5.943  20.366  0.00  0.00    +0.000 C 
ENDBRANCH  30  33
ENDBRANCH  25  27
ENDBRANCH  24  25
ENDBRANCH   6  24
TORSDOF 10
ENDMDL
MODEL 4
REMARK VINA RESULT:      -5.6      2.366      5.452
REMARK  Name = 
REMARK  15 active torsions:
REMARK  status: ('A' for Active; 'I' for Inactive)
REMARK    1  A    between atoms: C_1  and  C_2
REMARK    2  A    between atoms: C_2  and  O_3
REMARK    3  A    between atoms: O_3  and  C_4
REMARK    4  A    between atoms: C_4  and  C_6
REMARK    5  A    between atoms: C_7  and  C_8
REMARK    6  A    between atoms: C_10  and  O_11
REMARK    7  A    between atoms: O_11  and  C_12
REMARK    8  A    between atoms: N_13  and  C_14
REMARK    9  A    between atoms: C_14  and  C_15
REMARK   10  A    between atoms: C_15  and  C_17
REMARK   11  A    between atoms: C_20  and  O_21
REMARK   12  A    between atoms: O_21  and  C_22
REMARK   13  A    between atoms: C_25  and  C_26
REMARK   14  A    between atoms: C_29  and  O_30
REMARK   15  A    between atoms: O_30  and  C_31
REMARK                            x       y       z     vdW  Elec       q    Type
REMARK                         _______ _______ _______ _____ _____    ______ ____
ROOT
ATOM      1  C   UNL     1      -1.772  12.232  20.514  0.00  0.00    +0.000 C 
ATOM      2  C   UNL     1      -1.555  11.688  21.729  0.00  0.00    +0.000 C 
ATOM      3  C   UNL     1      -2.360  11.902  22.993  0.00  0.00    +0.000 C 
ATOM      4  N   UNL     1      -0.483  10.828  21.883  0.00  0.00    +0.000 N 
ATOM      5  C   UNL     1       0.581  10.747  20.920  0.00  0.00    +0.000 C 
ATOM      6  N   UNL     1       0.328  11.017  19.508  0.00  0.00    +0.000 NA
ATOM      7  C   UNL     1      -0.921  11.819  19.304  0.00  0.00    +0.000 C 
ATOM      8  H   UNL     1      -0.139  10.732  22.835  0.00  0.00    +0.000 HD
ENDROOT
BRANCH   7   9
ATOM      9  C   UNL     1      -1.839  11.267  18.200  0.00  0.00    +0.000 A 
ATOM     10  C   UNL     1      -1.910  11.876  16.935  0.00  0.00    +0.000 A 
ATOM     11  C   UNL     1      -2.713  11.331  15.934  0.00  0.00    +0.000 A 
ATOM     12  C   UNL     1      -3.458  10.180  16.182  0.00  0.00    +0.000 A 
ATOM     13  C   UNL     1      -3.442   9.603  17.452  0.00  0.00    +0.000 A 
ATOM     14  C   UNL     1      -2.632  10.136  18.454  0.00  0.00    +0.000 A 
BRANCH  12  15
ATOM     15  O   UNL     1      -4.199   9.716  15.129  0.00  0.00    +0.000 OA
ATOM     16  C   UNL     1      -3.663  10.022  13.846  0.00  0.00    +0.000 C 
ENDBRANCH  12  15
ENDBRANCH   7   9
BRANCH   1  17
ATOM     17  C   UNL     1      -2.882  13.208  20.269  0.00  0.00    +0.000 C 
ATOM     18  O   UNL     1      -2.748  14.424  20.271  0.00  0.00    +0.000 OA
BRANCH  17  19
ATOM     19  O   UNL     1      -4.069  12.583  20.051  0.00  0.00    +0.000 OA
BRANCH  19  21
ATOM     20  C   UNL     1      -6.171  12.418  21.301  0.00  0.00    +0.000 C 
ATOM     21  C   UNL     1      -5.228  13.304  20.500  0.00  0.00    +0.000 C 
ENDBRANCH  19  21
ENDBRANCH  17  19
ENDBRANCH   1  17
BRANCH   5  22
ATOM     22  O   UNL     1       1.711  11.477  21.404  0.00  0.00    +0.000 OA
ATOM     23  C   UNL     1       2.006  12.690  20.730  0.00  0.00    +0.000 C 
ENDBRANCH   5  22
BRANCH   6  24
ATOM     24  C   UNL     1       0.439   9.787  18.697  0.00  0.00    +0.000 C 
BRANCH  24  25
ATOM     25  C   UNL     1       1.864   9.528  18.211  0.00  0.00    +0.000 C 
ATOM     26  O   UNL     1       2.523  10.422  17.678  0.00  0.00    +0.000 OA
BRANCH  25  27
ATOM     27  C   UNL     1       2.492   8.187  18.407  0.00  0.00    +0.000 A 
ATOM     28  C   UNL     1       3.424   7.757  17.455  0.00  0.00    +0.000 A 
ATOM     29  C   UNL     1       4.023   6.501  17.571  0.00  0.00    +0.000 A 
ATOM     30  C   UNL     1       3.729   5.674  18.656  0.00  0.00    +0.000 A 
ATOM     31  C   UNL     1       2.823   6.108  19.623  0.00  0.00    +0.000 A 
ATOM     32  C   UNL     1       2.203   7.361  19.500  0.00  0.00    +0.000 A 
BRANCH  30  33
ATOM     33  O   UNL     1       4.349   4.455  18.637  0.00  0.00    +0.000 OA
ATOM     34  C   UNL     1       4.932   4.071  17.398  0.00  0.00    +0.000 C 
ENDBRANCH  30  33
ENDBRANCH  25  27
ENDBRANCH  24  25
ENDBRANCH   6  24
TORSDOF 10
ENDMDL
MODEL 5
REMARK VINA RESULT:      -5.6      4.937     11.680
REMARK  Name = 
REMARK  15 active torsions:
REMARK  status: ('A' for Active; 'I' for Inactive)
REMARK    1  A    between atoms: C_1  and  C_2
REMARK    2  A    between atoms: C_2  and  O_3
REMARK    3  A    between atoms: O_3  and  C_4
REMARK    4  A    between atoms: C_4  and  C_6
REMARK    5  A    between atoms: C_7  and  C_8
REMARK    6  A    between atoms: C_10  and  O_11
REMARK    7  A    between atoms: O_11  and  C_12
REMARK    8  A    between atoms: N_13  and  C_14
REMARK    9  A    between atoms: C_14  and  C_15
REMARK   10  A    between atoms: C_15  and  C_17
REMARK   11  A    between atoms: C_20  and  O_21
REMARK   12  A    between atoms: O_21  and  C_22
REMARK   13  A    between atoms: C_25  and  C_26
REMARK   14  A    between atoms: C_29  and  O_30
REMARK   15  A    between atoms: O_30  and  C_31
REMARK                            x       y       z     vdW  Elec       q    Type
REMARK                         _______ _______ _______ _____ _____    ______ ____
ROOT
ATOM      1  C   UNL     1       5.093   3.992  16.342  0.00  0.00    +0.000 C 
ATOM      2  C   UNL     1       4.737   2.779  16.815  0.00  0.00    +0.000 C 
ATOM      3  C   UNL     1       5.221   1.426  16.342  0.00  0.00    +0.000 C 
ATOM      4  N   UNL     1       3.824   2.719  17.852  0.00  0.00    +0.000 N 
ATOM      5  C   UNL     1       3.005   3.842  18.221  0.00  0.00    +0.000 C 
ATOM      6  N   UNL     1       3.484   5.207  18.026  0.00  0.00    +0.000 NA
ATOM      7  C   UNL     1       4.587   5.277  17.014  0.00  0.00    +0.000 C 
ATOM      8  H   UNL     1       3.319   1.841  17.933  0.00  0.00    +0.000 HD
ENDROOT
BRANCH   7   9
ATOM      9  C   UNL     1       5.790   6.123  17.467  0.00  0.00    +0.000 A 
ATOM     10  C   UNL     1       5.988   7.429  16.986  0.00  0.00    +0.000 A 
ATOM     11  C   UNL     1       7.059   8.194  17.445  0.00  0.00    +0.000 A 
ATOM     12  C   UNL     1       7.946   7.668  18.382  0.00  0.00    +0.000 A 
ATOM     13  C   UNL     1       7.794   6.352  18.819  0.00  0.00    +0.000 A 
ATOM     14  C   UNL     1       6.718   5.585  18.373  0.00  0.00    +0.000 A 
BRANCH  12  15
ATOM     15  O   UNL     1       8.952   8.506  18.780  0.00  0.00    +0.000 OA
ATOM     16  C   UNL     1       8.765   9.870  18.420  0.00  0.00    +0.000 C 
ENDBRANCH  12  15
ENDBRANCH   7   9
BRANCH   1  17
ATOM     17  C   UNL     1       6.039   4.148  15.192  0.00  0.00    +0.000 C 
ATOM     18  O   UNL     1       7.253   4.248  15.302  0.00  0.00    +0.000 OA
BRANCH  17  19
ATOM     19  O   UNL     1       5.387   4.176  13.999  0.00  0.00    +0.000 OA
BRANCH  19  21
ATOM     20  C   UNL     1       5.239   2.962  11.876  0.00  0.00    +0.000 C 
ATOM     21  C   UNL     1       6.136   3.663  12.885  0.00  0.00    +0.000 C 
ENDBRANCH  19  21
ENDBRANCH  17  19
ENDBRANCH   1  17
BRANCH   5  22
ATOM     22  O   UNL     1       1.690   3.661  17.688  0.00  0.00    +0.000 OA
ATOM     23  C   UNL     1       0.759   3.004  18.531  0.00  0.00    +0.000 C 
ENDBRANCH   5  22
BRANCH   6  24
ATOM     24  C   UNL     1       3.755   5.872  19.317  0.00  0.00    +0.000 C 
BRANCH  24  25
ATOM     25  C   UNL     1       2.493   6.435  19.968  0.00  0.00    +0.000 C 
ATOM     26  O   UNL     1       1.892   5.799  20.835  0.00  0.00    +0.000 OA
BRANCH  25  27
ATOM     27  C   UNL     1       1.987   7.786  19.582  0.00  0.00    +0.000 A 
ATOM     28  C   UNL     1       1.291   8.523  20.548  0.00  0.00    +0.000 A 
ATOM     29  C   UNL     1       0.770   9.780  20.235  0.00  0.00    +0.000 A 
ATOM     30  C   UNL     1       0.967  10.334  18.970  0.00  0.00    +0.000 A 
ATOM     31  C   UNL     1       1.685   9.617  18.012  0.00  0.00    +0.000 A 
ATOM     32  C   UNL     1       2.193   8.344  18.315  0.00  0.00    +0.000 A 
BRANCH  30  33
ATOM     33  O   UNL     1       0.377  11.551  18.775  0.00  0.00    +0.000 OA
ATOM     34  C   UNL     1      -0.664  11.894  19.682  0.00  0.00    +0.000 C 
ENDBRANCH  30  33
ENDBRANCH  25  27
ENDBRANCH  24  25
ENDBRANCH   6  24
TORSDOF 10
ENDMDL
MODEL 6
REMARK VINA RESULT:      -5.6      3.244      6.879
REMARK  Name = 
REMARK  15 active torsions:
REMARK  status: ('A' for Active; 'I' for Inactive)
REMARK    1  A    between atoms: C_1  and  C_2
REMARK    2  A    between atoms: C_2  and  O_3
REMARK    3  A    between atoms: O_3  and  C_4
REMARK    4  A    between atoms: C_4  and  C_6
REMARK    5  A    between atoms: C_7  and  C_8
REMARK    6  A    between atoms: C_10  and  O_11
REMARK    7  A    between atoms: O_11  and  C_12
REMARK    8  A    between atoms: N_13  and  C_14
REMARK    9  A    between atoms: C_14  and  C_15
REMARK   10  A    between atoms: C_15  and  C_17
REMARK   11  A    between atoms: C_20  and  O_21
REMARK   12  A    between atoms: O_21  and  C_22
REMARK   13  A    between atoms: C_25  and  C_26
REMARK   14  A    between atoms: C_29  and  O_30
REMARK   15  A    between atoms: O_30  and  C_31
REMARK                            x       y       z     vdW  Elec       q    Type
REMARK                         _______ _______ _______ _____ _____    ______ ____
ROOT
ATOM      1  C   UNL     1      -1.786  11.801  18.955  0.00  0.00    +0.000 C 
ATOM      2  C   UNL     1      -2.664  12.400  19.788  0.00  0.00    +0.000 C 
ATOM      3  C   UNL     1      -4.161  12.190  19.856  0.00  0.00    +0.000 C 
ATOM      4  N   UNL     1      -2.182  13.319  20.701  0.00  0.00    +0.000 N 
ATOM      5  C   UNL     1      -0.872  13.901  20.587  0.00  0.00    +0.000 C 
ATOM      6  N   UNL     1       0.222  13.155  19.971  0.00  0.00    +0.000 NA
ATOM      7  C   UNL     1      -0.277  12.048  19.094  0.00  0.00    +0.000 C 
ATOM      8  H   UNL     1      -2.865  13.991  21.039  0.00  0.00    +0.000 HD
ENDROOT
BRANCH   7   9
ATOM      9  C   UNL     1       0.440  10.706  19.324  0.00  0.00    +0.000 A 
ATOM     10  C   UNL     1       0.244   9.965  20.502  0.00  0.00    +0.000 A 
ATOM     11  C   UNL     1       0.868   8.729  20.670  0.00  0.00    +0.000 A 
ATOM     12  C   UNL     1       1.696   8.221  19.672  0.00  0.00    +0.000 A 
ATOM     13  C   UNL     1       1.946   8.976  18.526  0.00  0.00    +0.000 A 
ATOM     14  C   UNL     1       1.316  10.208  18.347  0.00  0.00    +0.000 A 
BRANCH  12  15
ATOM     15  O   UNL     1       2.245   6.993  19.926  0.00  0.00    +0.000 OA
ATOM     16  C   UNL     1       2.973   6.432  18.839  0.00  0.00    +0.000 C 
ENDBRANCH  12  15
ENDBRANCH   7   9
BRANCH   1  17
ATOM     17  C   UNL     1      -2.227  10.828  17.905  0.00  0.00    +0.000 C 
ATOM     18  O   UNL     1      -2.510   9.657  18.121  0.00  0.00    +0.000 OA
BRANCH  17  19
ATOM     19  O   UNL     1      -2.267  11.397  16.671  0.00  0.00    +0.000 OA
BRANCH  19  21
ATOM     20  C   UNL     1      -3.028  10.146  14.706  0.00  0.00    +0.000 C 
ATOM     21  C   UNL     1      -3.410  11.041  15.875  0.00  0.00    +0.000 C 
ENDBRANCH  19  21
ENDBRANCH  17  19
ENDBRANCH   1  17
BRANCH   5  22
ATOM     22  O   UNL     1      -0.987  15.218  20.043  0.00  0.00    +0.000 OA
ATOM     23  C   UNL     1      -0.625  15.364  18.679  0.00  0.00    +0.000 C 
ENDBRANCH   5  22
BRANCH   6  24
ATOM     24  C   UNL     1       1.242  12.773  20.970  0.00  0.00    +0.000 C 
BRANCH  24  25
ATOM     25  C   UNL     1       2.512  13.616  20.869  0.00  0.00    +0.000 C 
ATOM     26  O   UNL     1       3.484  13.383  21.589  0.00  0.00    +0.000 OA
BRANCH  25  27
ATOM     27  C   UNL     1       2.604  14.720  19.867  0.00  0.00    +0.000 A 
ATOM     28  C   UNL     1       2.882  14.374  18.539  0.00  0.00    +0.000 A 
ATOM     29  C   UNL     1       3.008  15.366  17.564  0.00  0.00    +0.000 A 
ATOM     30  C   UNL     1       2.820  16.709  17.892  0.00  0.00    +0.000 A 
ATOM     31  C   UNL     1       2.514  17.057  19.208  0.00  0.00    +0.000 A 
ATOM     32  C   UNL     1       2.408  16.066  20.195  0.00  0.00    +0.000 A 
BRANCH  30  33
ATOM     33  O   UNL     1       3.008  17.586  16.860  0.00  0.00    +0.000 OA
ATOM     34  C   UNL     1       1.827  18.127  16.278  0.00  0.00    +0.000 C 
ENDBRANCH  30  33
ENDBRANCH  25  27
ENDBRANCH  24  25
ENDBRANCH   6  24
TORSDOF 10
ENDMDL
MODEL 7
REMARK VINA RESULT:      -5.5      2.533      7.294
REMARK  Name = 
REMARK  15 active torsions:
REMARK  status: ('A' for Active; 'I' for Inactive)
REMARK    1  A    between atoms: C_1  and  C_2
REMARK    2  A    between atoms: C_2  and  O_3
REMARK    3  A    between atoms: O_3  and  C_4
REMARK    4  A    between atoms: C_4  and  C_6
REMARK    5  A    between atoms: C_7  and  C_8
REMARK    6  A    between atoms: C_10  and  O_11
REMARK    7  A    between atoms: O_11  and  C_12
REMARK    8  A    between atoms: N_13  and  C_14
REMARK    9  A    between atoms: C_14  and  C_15
REMARK   10  A    between atoms: C_15  and  C_17
REMARK   11  A    between atoms: C_20  and  O_21
REMARK   12  A    between atoms: O_21  and  C_22
REMARK   13  A    between atoms: C_25  and  C_26
REMARK   14  A    between atoms: C_29  and  O_30
REMARK   15  A    between atoms: O_30  and  C_31
REMARK                            x       y       z     vdW  Elec       q    Type
REMARK                         _______ _______ _______ _____ _____    ______ ____
ROOT
ATOM      1  C   UNL     1       0.382  11.342  20.588  0.00  0.00    +0.000 C 
ATOM      2  C   UNL     1       1.244  11.626  19.589  0.00  0.00    +0.000 C 
ATOM      3  C   UNL     1       1.643  10.734  18.433  0.00  0.00    +0.000 C 
ATOM      4  N   UNL     1       1.857  12.866  19.581  0.00  0.00    +0.000 N 
ATOM      5  C   UNL     1       1.876  13.721  20.736  0.00  0.00    +0.000 C 
ATOM      6  N   UNL     1       0.784  13.685  21.705  0.00  0.00    +0.000 NA
ATOM      7  C   UNL     1       0.004  12.408  21.626  0.00  0.00    +0.000 C 
ATOM      8  H   UNL     1       2.730  12.913  19.063  0.00  0.00    +0.000 HD
ENDROOT
BRANCH   7   9
ATOM      9  C   UNL     1      -1.521  12.615  21.612  0.00  0.00    +0.000 A 
ATOM     10  C   UNL     1      -2.304  12.357  22.750  0.00  0.00    +0.000 A 
ATOM     11  C   UNL     1      -3.678  12.595  22.729  0.00  0.00    +0.000 A 
ATOM     12  C   UNL     1      -4.287  13.086  21.576  0.00  0.00    +0.000 A 
ATOM     13  C   UNL     1      -3.529  13.285  20.422  0.00  0.00    +0.000 A 
ATOM     14  C   UNL     1      -2.152  13.061  20.440  0.00  0.00    +0.000 A 
BRANCH  12  15
ATOM     15  O   UNL     1      -5.635  13.302  21.665  0.00  0.00    +0.000 OA
ATOM     16  C   UNL     1      -6.164  13.217  22.984  0.00  0.00    +0.000 C 
ENDBRANCH  12  15
ENDBRANCH   7   9
BRANCH   1  17
ATOM     17  C   UNL     1      -0.290  10.009  20.700  0.00  0.00    +0.000 C 
ATOM     18  O   UNL     1      -1.042   9.539  19.857  0.00  0.00    +0.000 OA
BRANCH  17  19
ATOM     19  O   UNL     1       0.025   9.377  21.862  0.00  0.00    +0.000 OA
BRANCH  19  21
ATOM     20  C   UNL     1       1.579   7.775  20.849  0.00  0.00    +0.000 C 
ATOM     21  C   UNL     1       1.355   8.836  21.917  0.00  0.00    +0.000 C 
ENDBRANCH  19  21
ENDBRANCH  17  19
ENDBRANCH   1  17
BRANCH   5  22
ATOM     22  O   UNL     1       3.152  13.625  21.374  0.00  0.00    +0.000 OA
ATOM     23  C   UNL     1       4.134  14.556  20.950  0.00  0.00    +0.000 C 
ENDBRANCH   5  22
BRANCH   6  24
ATOM     24  C   UNL     1      -0.014  14.928  21.663  0.00  0.00    +0.000 C 
BRANCH  24  25
ATOM     25  C   UNL     1      -0.258  15.519  23.051  0.00  0.00    +0.000 C 
ATOM     26  O   UNL     1       0.685  15.847  23.773  0.00  0.00    +0.000 OA
BRANCH  25  27
ATOM     27  C   UNL     1      -1.652  15.739  23.539  0.00  0.00    +0.000 A 
ATOM     28  C   UNL     1      -2.591  16.241  22.630  0.00  0.00    +0.000 A 
ATOM     29  C   UNL     1      -3.902  16.493  23.038  0.00  0.00    +0.000 A 
ATOM     30  C   UNL     1      -4.304  16.214  24.344  0.00  0.00    +0.000 A 
ATOM     31  C   UNL     1      -3.380  15.687  25.247  0.00  0.00    +0.000 A 
ATOM     32  C   UNL     1      -2.056  15.451  24.848  0.00  0.00    +0.000 A 
BRANCH  30  33
ATOM     33  O   UNL     1      -5.600  16.539  24.631  0.00  0.00    +0.000 OA
ATOM     34  C   UNL     1      -6.404  16.938  23.527  0.00  0.00    +0.000 C 
ENDBRANCH  30  33
ENDBRANCH  25  27
ENDBRANCH  24  25
ENDBRANCH   6  24
TORSDOF 10
ENDMDL
MODEL 8
REMARK VINA RESULT:      -5.5      1.415      1.691
REMARK  Name = 
REMARK  15 active torsions:
REMARK  status: ('A' for Active; 'I' for Inactive)
REMARK    1  A    between atoms: C_1  and  C_2
REMARK    2  A    between atoms: C_2  and  O_3
REMARK    3  A    between atoms: O_3  and  C_4
REMARK    4  A    between atoms: C_4  and  C_6
REMARK    5  A    between atoms: C_7  and  C_8
REMARK    6  A    between atoms: C_10  and  O_11
REMARK    7  A    between atoms: O_11  and  C_12
REMARK    8  A    between atoms: N_13  and  C_14
REMARK    9  A    between atoms: C_14  and  C_15
REMARK   10  A    between atoms: C_15  and  C_17
REMARK   11  A    between atoms: C_20  and  O_21
REMARK   12  A    between atoms: O_21  and  C_22
REMARK   13  A    between atoms: C_25  and  C_26
REMARK   14  A    between atoms: C_29  and  O_30
REMARK   15  A    between atoms: O_30  and  C_31
REMARK                            x       y       z     vdW  Elec       q    Type
REMARK                         _______ _______ _______ _____ _____    ______ ____
ROOT
ATOM      1  C   UNL     1      -5.867  12.477  19.825  0.00  0.00    +0.000 C 
ATOM      2  C   UNL     1      -6.004  12.430  18.483  0.00  0.00    +0.000 C 
ATOM      3  C   UNL     1      -7.281  12.556  17.681  0.00  0.00    +0.000 C 
ATOM      4  N   UNL     1      -4.871  12.247  17.712  0.00  0.00    +0.000 N 
ATOM      5  C   UNL     1      -3.629  11.783  18.269  0.00  0.00    +0.000 C 
ATOM      6  N   UNL     1      -3.275  12.087  19.652  0.00  0.00    +0.000 NA
ATOM      7  C   UNL     1      -4.476  12.443  20.475  0.00  0.00    +0.000 C 
ATOM      8  H   UNL     1      -5.036  11.862  16.786  0.00  0.00    +0.000 HD
ENDROOT
BRANCH   7   9
ATOM      9  C   UNL     1      -4.285  13.704  21.336  0.00  0.00    +0.000 A 
ATOM     10  C   UNL     1      -3.861  13.618  22.673  0.00  0.00    +0.000 A 
ATOM     11  C   UNL     1      -3.651  14.776  23.421  0.00  0.00    +0.000 A 
ATOM     12  C   UNL     1      -3.863  16.029  22.849  0.00  0.00    +0.000 A 
ATOM     13  C   UNL     1      -4.343  16.123  21.542  0.00  0.00    +0.000 A 
ATOM     14  C   UNL     1      -4.544  14.969  20.785  0.00  0.00    +0.000 A 
BRANCH  12  15
ATOM     15  O   UNL     1      -3.610  17.101  23.661  0.00  0.00    +0.000 OA
ATOM     16  C   UNL     1      -3.837  16.862  25.046  0.00  0.00    +0.000 C 
ENDBRANCH  12  15
ENDBRANCH   7   9
BRANCH   1  17
ATOM     17  C   UNL     1      -7.045  12.627  20.737  0.00  0.00    +0.000 C 
ATOM     18  O   UNL     1      -7.837  13.558  20.699  0.00  0.00    +0.000 OA
BRANCH  17  19
ATOM     19  O   UNL     1      -7.130  11.603  21.628  0.00  0.00    +0.000 OA
BRANCH  19  21
ATOM     20  C   UNL     1      -7.082  12.513  23.903  0.00  0.00    +0.000 C 
ATOM     21  C   UNL     1      -7.916  11.880  22.799  0.00  0.00    +0.000 C 
ENDBRANCH  19  21
ENDBRANCH  17  19
ENDBRANCH   1  17
BRANCH   5  22
ATOM     22  O   UNL     1      -3.472  10.391  17.976  0.00  0.00    +0.000 OA
ATOM     23  C   UNL     1      -2.582  10.072  16.920  0.00  0.00    +0.000 C 
ENDBRANCH   5  22
BRANCH   6  24
ATOM     24  C   UNL     1      -2.146  13.037  19.721  0.00  0.00    +0.000 C 
BRANCH  24  25
ATOM     25  C   UNL     1      -0.845  12.449  19.178  0.00  0.00    +0.000 C 
ATOM     26  O   UNL     1      -0.280  12.953  18.206  0.00  0.00    +0.000 OA
BRANCH  25  27
ATOM     27  C   UNL     1      -0.220  11.266  19.843  0.00  0.00    +0.000 A 
ATOM     28  C   UNL     1       0.555  10.408  19.054  0.00  0.00    +0.000 A 
ATOM     29  C   UNL     1       1.141   9.271  19.615  0.00  0.00    +0.000 A 
ATOM     30  C   UNL     1       0.993   8.995  20.974  0.00  0.00    +0.000 A 
ATOM     31  C   UNL     1       0.245   9.862  21.772  0.00  0.00    +0.000 A 
ATOM     32  C   UNL     1      -0.363  10.995  21.209  0.00  0.00    +0.000 A 
BRANCH  30  33
ATOM     33  O   UNL     1       1.580   7.835  21.395  0.00  0.00    +0.000 OA
ATOM     34  C   UNL     1       1.650   6.787  20.436  0.00  0.00    +0.000 C 
ENDBRANCH  30  33
ENDBRANCH  25  27
ENDBRANCH  24  25
ENDBRANCH   6  24
TORSDOF 10
ENDMDL
MODEL 9
REMARK VINA RESULT:      -5.5      0.812      1.170
REMARK  Name = 
REMARK  15 active torsions:
REMARK  status: ('A' for Active; 'I' for Inactive)
REMARK    1  A    between atoms: C_1  and  C_2
REMARK    2  A    between atoms: C_2  and  O_3
REMARK    3  A    between atoms: O_3  and  C_4
REMARK    4  A    between atoms: C_4  and  C_6
REMARK    5  A    between atoms: C_7  and  C_8
REMARK    6  A    between atoms: C_10  and  O_11
REMARK    7  A    between atoms: O_11  and  C_12
REMARK    8  A    between atoms: N_13  and  C_14
REMARK    9  A    between atoms: C_14  and  C_15
REMARK   10  A    between atoms: C_15  and  C_17
REMARK   11  A    between atoms: C_20  and  O_21
REMARK   12  A    between atoms: O_21  and  C_22
REMARK   13  A    between atoms: C_25  and  C_26
REMARK   14  A    between atoms: C_29  and  O_30
REMARK   15  A    between atoms: O_30  and  C_31
REMARK                            x       y       z     vdW  Elec       q    Type
REMARK                         _______ _______ _______ _____ _____    ______ ____
ROOT
ATOM      1  C   UNL     1      -5.298  12.312  19.945  0.00  0.00    +0.000 C 
ATOM      2  C   UNL     1      -5.477  12.275  18.608  0.00  0.00    +0.000 C 
ATOM      3  C   UNL     1      -6.781  12.378  17.848  0.00  0.00    +0.000 C 
ATOM      4  N   UNL     1      -4.365  12.125  17.799  0.00  0.00    +0.000 N 
ATOM      5  C   UNL     1      -3.096  11.685  18.311  0.00  0.00    +0.000 C 
ATOM      6  N   UNL     1      -2.705  11.984  19.686  0.00  0.00    +0.000 NA
ATOM      7  C   UNL     1      -3.886  12.304  20.550  0.00  0.00    +0.000 C 
ATOM      8  H   UNL     1      -4.550  11.746  16.875  0.00  0.00    +0.000 HD
ENDROOT
BRANCH   7   9
ATOM      9  C   UNL     1      -3.697  13.560  21.418  0.00  0.00    +0.000 A 
ATOM     10  C   UNL     1      -3.848  14.850  20.879  0.00  0.00    +0.000 A 
ATOM     11  C   UNL     1      -3.717  15.974  21.695  0.00  0.00    +0.000 A 
ATOM     12  C   UNL     1      -3.430  15.827  23.050  0.00  0.00    +0.000 A 
ATOM     13  C   UNL     1      -3.217  14.554  23.580  0.00  0.00    +0.000 A 
ATOM     14  C   UNL     1      -3.358  13.426  22.773  0.00  0.00    +0.000 A 
BRANCH  12  15
ATOM     15  O   UNL     1      -3.340  16.990  23.765  0.00  0.00    +0.000 OA
ATOM     16  C   UNL     1      -2.929  16.824  25.118  0.00  0.00    +0.000 C 
ENDBRANCH  12  15
ENDBRANCH   7   9
BRANCH   1  17
ATOM     17  C   UNL     1      -6.449  12.424  20.896  0.00  0.00    +0.000 C 
ATOM     18  O   UNL     1      -6.837  11.521  21.625  0.00  0.00    +0.000 OA
BRANCH  17  19
ATOM     19  O   UNL     1      -7.028  13.654  20.849  0.00  0.00    +0.000 OA
BRANCH  19  21
ATOM     20  C   UNL     1      -7.035  14.790  23.020  0.00  0.00    +0.000 C 
ATOM     21  C   UNL     1      -7.827  13.994  21.994  0.00  0.00    +0.000 C 
ENDBRANCH  19  21
ENDBRANCH  17  19
ENDBRANCH   1  17
BRANCH   5  22
ATOM     22  O   UNL     1      -2.916  10.301  18.000  0.00  0.00    +0.000 OA
ATOM     23  C   UNL     1      -2.088  10.014  16.885  0.00  0.00    +0.000 C 
ENDBRANCH   5  22
BRANCH   6  24
ATOM     24  C   UNL     1      -1.596  12.960  19.730  0.00  0.00    +0.000 C 
BRANCH  24  25
ATOM     25  C   UNL     1      -0.401  12.459  20.538  0.00  0.00    +0.000 C 
ATOM     26  O   UNL     1       0.020  13.096  21.505  0.00  0.00    +0.000 OA
BRANCH  25  27
ATOM     27  C   UNL     1       0.258  11.166  20.184  0.00  0.00    +0.000 A 
ATOM     28  C   UNL     1       0.801  11.041  18.899  0.00  0.00    +0.000 A 
ATOM     29  C   UNL     1       1.404   9.846  18.503  0.00  0.00    +0.000 A 
ATOM     30  C   UNL     1       1.507   8.775  19.391  0.00  0.00    +0.000 A 
ATOM     31  C   UNL     1       0.994   8.904  20.682  0.00  0.00    +0.000 A 
ATOM     32  C   UNL     1       0.368  10.096  21.079  0.00  0.00    +0.000 A 
BRANCH  30  33
ATOM     33  O   UNL     1       2.083   7.649  18.873  0.00  0.00    +0.000 OA
ATOM     34  C   UNL     1       3.017   7.852  17.820  0.00  0.00    +0.000 C 
ENDBRANCH  30  33
ENDBRANCH  25  27
ENDBRANCH  24  25
ENDBRANCH   6  24
TORSDOF 10
ENDMDL
