MODEL 1
REMARK VINA RESULT:      -8.0      0.000      0.000
REMARK  Name = 
REMARK  9 active torsions:
REMARK  status: ('A' for Active; 'I' for Inactive)
REMARK    1  A    between atoms: C_1  and  C_2
REMARK    2  A    between atoms: C_2  and  O_3
REMARK    3  A    between atoms: C_2  and  C_29
REMARK    4  A    between atoms: O_3  and  C_4
REMARK    5  A    between atoms: C_11  and  C_12
REMARK    6  A    between atoms: C_12  and  C_13
REMARK    7  A    between atoms: C_13  and  O_15
REMARK    8  A    between atoms: C_19  and  C_20
REMARK    9  A    between atoms: N_22  and  C_23
REMARK                            x       y       z     vdW  Elec       q    Type
REMARK                         _______ _______ _______ _____ _____    ______ ____
ROOT
ATOM      1  C   UNL     1       1.316   9.649  20.195  0.00  0.00    +0.000 A 
ATOM      2  N   UNL     1       1.728   8.353  20.327  0.00  0.00    +0.000 NA
ATOM      3  C   UNL     1       2.164   7.703  19.215  0.00  0.00    +0.000 A 
ATOM      4  N   UNL     1       2.653   6.413  19.313  0.00  0.00    +0.000 N 
ATOM      5  C   UNL     1       3.794   5.960  18.524  0.00  0.00    +0.000 C 
ATOM      6  C   UNL     1       3.359   4.823  17.610  0.00  0.00    +0.000 C 
ATOM      7  C   UNL     1       2.731   3.698  18.428  0.00  0.00    +0.000 C 
ATOM      8  C   UNL     1       1.549   4.219  19.278  0.00  0.00    +0.000 C 
ATOM      9  C   UNL     1       1.983   5.426  20.149  0.00  0.00    +0.000 C 
ATOM     10  C   UNL     1       2.136   8.333  17.969  0.00  0.00    +0.000 A 
ATOM     11  C   UNL     1       1.683   9.641  17.848  0.00  0.00    +0.000 A 
ATOM     12  C   UNL     1       1.254  10.321  18.981  0.00  0.00    +0.000 A 
ENDROOT
BRANCH  12  13
ATOM     13  C   UNL     1       0.846  11.736  18.827  0.00  0.00    +0.000 C 
ATOM     14  O   UNL     1      -0.171  11.981  18.182  0.00  0.00    +0.000 OA
ATOM     15  N   UNL     1       1.619  12.709  19.427  0.00  0.00    +0.000 N 
ATOM     16  H   UNL     1       2.506  12.429  19.829  0.00  0.00    +0.000 HD
BRANCH  15  17
ATOM     17  C   UNL     1       1.350  14.131  19.208  0.00  0.00    +0.000 C 
ATOM     18  C   UNL     1       0.442  14.738  20.285  0.00  0.00    +0.000 C 
ATOM     19  C   UNL     1       1.131  14.830  21.643  0.00  0.00    +0.000 C 
ATOM     20  C   UNL     1       2.444  15.599  21.571  0.00  0.00    +0.000 C 
ATOM     21  C   UNL     1       3.363  15.130  20.446  0.00  0.00    +0.000 C 
ATOM     22  C   UNL     1       2.648  14.950  19.107  0.00  0.00    +0.000 C 
ENDBRANCH  15  17
ENDBRANCH  12  13
BRANCH   1  23
ATOM     23  O   UNL     1       0.890  10.355  21.301  0.00  0.00    +0.000 OA
BRANCH  23  25
ATOM     24  C   UNL     1      -0.169   9.449  23.240  0.00  0.00    +0.000 C 
ATOM     25  C   UNL     1      -0.393  10.036  21.841  0.00  0.00    +0.000 C 
BRANCH  25  26
ATOM     26  C   UNL     1      -1.169  11.337  21.931  0.00  0.00    +0.000 A 
ATOM     27  C   UNL     1      -1.116  12.106  23.099  0.00  0.00    +0.000 A 
ATOM     28  C   UNL     1      -1.850  13.289  23.199  0.00  0.00    +0.000 A 
ATOM     29  C   UNL     1      -2.649  13.713  22.139  0.00  0.00    +0.000 A 
ATOM     30  C   UNL     1      -2.708  12.962  20.968  0.00  0.00    +0.000 A 
ATOM     31  C   UNL     1      -1.970  11.782  20.863  0.00  0.00    +0.000 A 
ENDBRANCH  25  26
ENDBRANCH  23  25
ENDBRANCH   1  23
BRANCH   8  32
ATOM     32  C   UNL     1       0.969   3.102  20.160  0.00  0.00    +0.000 C 
BRANCH  32  33
ATOM     33  C   UNL     1       1.882   2.722  21.307  0.00  0.00    +0.000 C 
ATOM     34  O   UNL     1       3.076   2.490  21.205  0.00  0.00    +0.000 OA
BRANCH  33  35
ATOM     35  O   UNL     1       1.232   2.627  22.489  0.00  0.00    +0.000 OA
ATOM     36  H   UNL     1       0.277   2.447  22.414  0.00  0.00    +0.000 HD
ENDBRANCH  33  35
ENDBRANCH  32  33
ENDBRANCH   8  32
TORSDOF 8
ENDMDL
MODEL 2
REMARK VINA RESULT:      -7.8      0.818      1.044
REMARK  Name = 
REMARK  9 active torsions:
REMARK  status: ('A' for Active; 'I' for Inactive)
REMARK    1  A    between atoms: C_1  and  C_2
REMARK    2  A    between atoms: C_2  and  O_3
REMARK    3  A    between atoms: C_2  and  C_29
REMARK    4  A    between atoms: O_3  and  C_4
REMARK    5  A    between atoms: C_11  and  C_12
REMARK    6  A    between atoms: C_12  and  C_13
REMARK    7  A    between atoms: C_13  and  O_15
REMARK    8  A    between atoms: C_19  and  C_20
REMARK    9  A    between atoms: N_22  and  C_23
REMARK                            x       y       z     vdW  Elec       q    Type
REMARK                         _______ _______ _______ _____ _____    ______ ____
ROOT
ATOM      1  C   UNL     1       1.363   9.624  20.215  0.00  0.00    +0.000 A 
ATOM      2  N   UNL     1       1.753   8.322  20.348  0.00  0.00    +0.000 NA
ATOM      3  C   UNL     1       2.193   7.669  19.238  0.00  0.00    +0.000 A 
ATOM      4  N   UNL     1       2.662   6.372  19.338  0.00  0.00    +0.000 N 
ATOM      5  C   UNL     1       3.806   5.905  18.561  0.00  0.00    +0.000 C 
ATOM      6  C   UNL     1       3.365   4.778  17.638  0.00  0.00    +0.000 C 
ATOM      7  C   UNL     1       2.710   3.659  18.444  0.00  0.00    +0.000 C 
ATOM      8  C   UNL     1       1.526   4.196  19.280  0.00  0.00    +0.000 C 
ATOM      9  C   UNL     1       1.967   5.393  20.162  0.00  0.00    +0.000 C 
ATOM     10  C   UNL     1       2.191   8.304  17.995  0.00  0.00    +0.000 A 
ATOM     11  C   UNL     1       1.759   9.620  17.873  0.00  0.00    +0.000 A 
ATOM     12  C   UNL     1       1.327  10.302  19.003  0.00  0.00    +0.000 A 
ENDROOT
BRANCH  12  13
ATOM     13  C   UNL     1       0.941  11.723  18.849  0.00  0.00    +0.000 C 
ATOM     14  O   UNL     1      -0.209  11.981  18.503  0.00  0.00    +0.000 OA
ATOM     15  N   UNL     1       1.890  12.691  19.115  0.00  0.00    +0.000 N 
ATOM     16  H   UNL     1       2.845  12.388  19.269  0.00  0.00    +0.000 HD
BRANCH  15  17
ATOM     17  C   UNL     1       1.620  14.105  18.858  0.00  0.00    +0.000 C 
ATOM     18  C   UNL     1       1.668  14.962  20.131  0.00  0.00    +0.000 C 
ATOM     19  C   UNL     1       3.080  15.084  20.695  0.00  0.00    +0.000 C 
ATOM     20  C   UNL     1       4.067  15.621  19.665  0.00  0.00    +0.000 C 
ATOM     21  C   UNL     1       4.002  14.894  18.325  0.00  0.00    +0.000 C 
ATOM     22  C   UNL     1       2.578  14.690  17.807  0.00  0.00    +0.000 C 
ENDBRANCH  15  17
ENDBRANCH  12  13
BRANCH   1  23
ATOM     23  O   UNL     1       0.933  10.333  21.318  0.00  0.00    +0.000 OA
BRANCH  23  25
ATOM     24  C   UNL     1      -0.374   9.061  22.860  0.00  0.00    +0.000 C 
ATOM     25  C   UNL     1      -0.409  10.128  21.759  0.00  0.00    +0.000 C 
BRANCH  25  26
ATOM     26  C   UNL     1      -0.895  11.452  22.321  0.00  0.00    +0.000 A 
ATOM     27  C   UNL     1      -2.034  11.494  23.132  0.00  0.00    +0.000 A 
ATOM     28  C   UNL     1      -2.503  12.712  23.629  0.00  0.00    +0.000 A 
ATOM     29  C   UNL     1      -1.844  13.899  23.316  0.00  0.00    +0.000 A 
ATOM     30  C   UNL     1      -0.706  13.873  22.515  0.00  0.00    +0.000 A 
ATOM     31  C   UNL     1      -0.232  12.657  22.023  0.00  0.00    +0.000 A 
ENDBRANCH  25  26
ENDBRANCH  23  25
ENDBRANCH   1  23
BRANCH   8  32
ATOM     32  C   UNL     1       0.917   3.084  20.150  0.00  0.00    +0.000 C 
BRANCH  32  33
ATOM     33  C   UNL     1       1.796   2.708  21.326  0.00  0.00    +0.000 C 
ATOM     34  O   UNL     1       2.992   2.473  21.260  0.00  0.00    +0.000 OA
BRANCH  33  35
ATOM     35  O   UNL     1       1.111   2.620  22.489  0.00  0.00    +0.000 OA
ATOM     36  H   UNL     1       1.567   3.007  23.259  0.00  0.00    +0.000 HD
ENDBRANCH  33  35
ENDBRANCH  32  33
ENDBRANCH   8  32
TORSDOF 8
ENDMDL
MODEL 3
REMARK VINA RESULT:      -7.7      2.287      4.507
REMARK  Name = 
REMARK  9 active torsions:
REMARK  status: ('A' for Active; 'I' for Inactive)
REMARK    1  A    between atoms: C_1  and  C_2
REMARK    2  A    between atoms: C_2  and  O_3
REMARK    3  A    between atoms: C_2  and  C_29
REMARK    4  A    between atoms: O_3  and  C_4
REMARK    5  A    between atoms: C_11  and  C_12
REMARK    6  A    between atoms: C_12  and  C_13
REMARK    7  A    between atoms: C_13  and  O_15
REMARK    8  A    between atoms: C_19  and  C_20
REMARK    9  A    between atoms: N_22  and  C_23
REMARK                            x       y       z     vdW  Elec       q    Type
REMARK                         _______ _______ _______ _____ _____    ______ ____
ROOT
ATOM      1  C   UNL     1       1.298   9.720  20.134  0.00  0.00    +0.000 A 
ATOM      2  N   UNL     1       1.908   8.927  19.204  0.00  0.00    +0.000 NA
ATOM      3  C   UNL     1       1.934   7.585  19.425  0.00  0.00    +0.000 A 
ATOM      4  N   UNL     1       2.480   6.737  18.478  0.00  0.00    +0.000 N 
ATOM      5  C   UNL     1       1.895   5.433  18.184  0.00  0.00    +0.000 C 
ATOM      6  C   UNL     1       2.901   4.339  18.514  0.00  0.00    +0.000 C 
ATOM      7  C   UNL     1       4.207   4.578  17.761  0.00  0.00    +0.000 C 
ATOM      8  C   UNL     1       4.780   5.980  18.069  0.00  0.00    +0.000 C 
ATOM      9  C   UNL     1       3.722   7.082  17.801  0.00  0.00    +0.000 C 
ATOM     10  C   UNL     1       1.399   7.049  20.598  0.00  0.00    +0.000 A 
ATOM     11  C   UNL     1       0.812   7.875  21.549  0.00  0.00    +0.000 A 
ATOM     12  C   UNL     1       0.761   9.245  21.324  0.00  0.00    +0.000 A 
ENDROOT
BRANCH  12  13
ATOM     13  C   UNL     1       0.066  10.087  22.324  0.00  0.00    +0.000 C 
ATOM     14  O   UNL     1       0.285   9.878  23.514  0.00  0.00    +0.000 OA
ATOM     15  N   UNL     1      -0.784  11.075  21.869  0.00  0.00    +0.000 N 
ATOM     16  H   UNL     1      -1.004  11.093  20.880  0.00  0.00    +0.000 HD
BRANCH  15  17
ATOM     17  C   UNL     1      -1.602  11.855  22.798  0.00  0.00    +0.000 C 
ATOM     18  C   UNL     1      -0.934  13.171  23.220  0.00  0.00    +0.000 C 
ATOM     19  C   UNL     1      -0.849  14.173  22.073  0.00  0.00    +0.000 C 
ATOM     20  C   UNL     1      -2.212  14.454  21.451  0.00  0.00    +0.000 C 
ATOM     21  C   UNL     1      -2.995  13.189  21.106  0.00  0.00    +0.000 C 
ATOM     22  C   UNL     1      -2.999  12.148  22.224  0.00  0.00    +0.000 C 
ENDBRANCH  15  17
ENDBRANCH  12  13
BRANCH   1  23
ATOM     23  O   UNL     1       1.227  11.083  19.939  0.00  0.00    +0.000 OA
BRANCH  23  25
ATOM     24  C   UNL     1      -0.658  11.108  18.472  0.00  0.00    +0.000 C 
ATOM     25  C   UNL     1       0.798  11.552  18.660  0.00  0.00    +0.000 C 
BRANCH  25  26
ATOM     26  C   UNL     1       0.889  13.066  18.692  0.00  0.00    +0.000 A 
ATOM     27  C   UNL     1       2.112  13.691  18.962  0.00  0.00    +0.000 A 
ATOM     28  C   UNL     1       2.197  15.082  19.021  0.00  0.00    +0.000 A 
ATOM     29  C   UNL     1       1.061  15.865  18.820  0.00  0.00    +0.000 A 
ATOM     30  C   UNL     1      -0.162  15.260  18.545  0.00  0.00    +0.000 A 
ATOM     31  C   UNL     1      -0.247  13.869  18.479  0.00  0.00    +0.000 A 
ENDBRANCH  25  26
ENDBRANCH  23  25
ENDBRANCH   1  23
BRANCH   8  32
ATOM     32  C   UNL     1       6.053   6.248  17.248  0.00  0.00    +0.000 C 
BRANCH  32  33
ATOM     33  C   UNL     1       7.124   5.199  17.463  0.00  0.00    +0.000 C 
ATOM     34  O   UNL     1       7.567   4.862  18.549  0.00  0.00    +0.000 OA
BRANCH  33  35
ATOM     35  O   UNL     1       7.588   4.674  16.306  0.00  0.00    +0.000 OA
ATOM     36  H   UNL     1       8.553   4.741  16.188  0.00  0.00    +0.000 HD
ENDBRANCH  33  35
ENDBRANCH  32  33
ENDBRANCH   8  32
TORSDOF 8
ENDMDL
MODEL 4
REMARK VINA RESULT:      -7.6      2.443      4.902
REMARK  Name = 
REMARK  9 active torsions:
REMARK  status: ('A' for Active; 'I' for Inactive)
REMARK    1  A    between atoms: C_1  and  C_2
REMARK    2  A    between atoms: C_2  and  O_3
REMARK    3  A    between atoms: C_2  and  C_29
REMARK    4  A    between atoms: O_3  and  C_4
REMARK    5  A    between atoms: C_11  and  C_12
REMARK    6  A    between atoms: C_12  and  C_13
REMARK    7  A    between atoms: C_13  and  O_15
REMARK    8  A    between atoms: C_19  and  C_20
REMARK    9  A    between atoms: N_22  and  C_23
REMARK                            x       y       z     vdW  Elec       q    Type
REMARK                         _______ _______ _______ _____ _____    ______ ____
ROOT
ATOM      1  C   UNL     1       1.002   9.962  20.184  0.00  0.00    +0.000 A 
ATOM      2  N   UNL     1       1.587   9.218  19.199  0.00  0.00    +0.000 NA
ATOM      3  C   UNL     1       1.822   7.901  19.445  0.00  0.00    +0.000 A 
ATOM      4  N   UNL     1       2.349   7.094  18.453  0.00  0.00    +0.000 N 
ATOM      5  C   UNL     1       1.911   5.714  18.269  0.00  0.00    +0.000 C 
ATOM      6  C   UNL     1       3.090   4.774  18.487  0.00  0.00    +0.000 C 
ATOM      7  C   UNL     1       4.243   5.151  17.560  0.00  0.00    +0.000 C 
ATOM      8  C   UNL     1       4.657   6.627  17.756  0.00  0.00    +0.000 C 
ATOM      9  C   UNL     1       3.435   7.570  17.608  0.00  0.00    +0.000 C 
ATOM     10  C   UNL     1       1.520   7.348  20.691  0.00  0.00    +0.000 A 
ATOM     11  C   UNL     1       0.955   8.128  21.693  0.00  0.00    +0.000 A 
ATOM     12  C   UNL     1       0.693   9.469  21.446  0.00  0.00    +0.000 A 
ENDROOT
BRANCH  12  13
ATOM     13  C   UNL     1       0.027  10.253  22.510  0.00  0.00    +0.000 C 
ATOM     14  O   UNL     1       0.151   9.878  23.674  0.00  0.00    +0.000 OA
ATOM     15  N   UNL     1      -0.690  11.375  22.145  0.00  0.00    +0.000 N 
ATOM     16  H   UNL     1      -0.846  11.537  21.157  0.00  0.00    +0.000 HD
BRANCH  15  17
ATOM     17  C   UNL     1      -1.480  12.120  23.126  0.00  0.00    +0.000 C 
ATOM     18  C   UNL     1      -1.004  13.569  23.298  0.00  0.00    +0.000 C 
ATOM     19  C   UNL     1      -1.282  14.423  22.066  0.00  0.00    +0.000 C 
ATOM     20  C   UNL     1      -2.754  14.399  21.669  0.00  0.00    +0.000 C 
ATOM     21  C   UNL     1      -3.339  12.992  21.587  0.00  0.00    +0.000 C 
ATOM     22  C   UNL     1      -2.979  12.109  22.782  0.00  0.00    +0.000 C 
ENDBRANCH  15  17
ENDBRANCH  12  13
BRANCH   1  23
ATOM     23  O   UNL     1       0.723  11.295  19.969  0.00  0.00    +0.000 OA
BRANCH  23  25
ATOM     24  C   UNL     1      -0.891  11.873  18.307  0.00  0.00    +0.000 C 
ATOM     25  C   UNL     1       0.605  11.742  18.618  0.00  0.00    +0.000 C 
BRANCH  25  26
ATOM     26  C   UNL     1       1.281  13.099  18.542  0.00  0.00    +0.000 A 
ATOM     27  C   UNL     1       0.558  14.261  18.834  0.00  0.00    +0.000 A 
ATOM     28  C   UNL     1       1.166  15.514  18.738  0.00  0.00    +0.000 A 
ATOM     29  C   UNL     1       2.499  15.621  18.343  0.00  0.00    +0.000 A 
ATOM     30  C   UNL     1       3.233  14.474  18.054  0.00  0.00    +0.000 A 
ATOM     31  C   UNL     1       2.629  13.220  18.156  0.00  0.00    +0.000 A 
ENDBRANCH  25  26
ENDBRANCH  23  25
ENDBRANCH   1  23
BRANCH   8  32
ATOM     32  C   UNL     1       5.765   7.024  16.767  0.00  0.00    +0.000 C 
BRANCH  32  33
ATOM     33  C   UNL     1       7.069   6.297  17.018  0.00  0.00    +0.000 C 
ATOM     34  O   UNL     1       7.645   6.242  18.093  0.00  0.00    +0.000 OA
BRANCH  33  35
ATOM     35  O   UNL     1       7.575   5.720  15.904  0.00  0.00    +0.000 OA
ATOM     36  H   UNL     1       6.978   5.736  15.132  0.00  0.00    +0.000 HD
ENDBRANCH  33  35
ENDBRANCH  32  33
ENDBRANCH   8  32
TORSDOF 8
ENDMDL
MODEL 5
REMARK VINA RESULT:      -7.5      1.922      3.282
REMARK  Name = 
REMARK  9 active torsions:
REMARK  status: ('A' for Active; 'I' for Inactive)
REMARK    1  A    between atoms: C_1  and  C_2
REMARK    2  A    between atoms: C_2  and  O_3
REMARK    3  A    between atoms: C_2  and  C_29
REMARK    4  A    between atoms: O_3  and  C_4
REMARK    5  A    between atoms: C_11  and  C_12
REMARK    6  A    between atoms: C_12  and  C_13
REMARK    7  A    between atoms: C_13  and  O_15
REMARK    8  A    between atoms: C_19  and  C_20
REMARK    9  A    between atoms: N_22  and  C_23
REMARK                            x       y       z     vdW  Elec       q    Type
REMARK                         _______ _______ _______ _____ _____    ______ ____
ROOT
ATOM      1  C   UNL     1       1.527   9.023  19.835  0.00  0.00    +0.000 A 
ATOM      2  N   UNL     1       2.248   7.888  20.072  0.00  0.00    +0.000 NA
ATOM      3  C   UNL     1       2.685   7.170  19.002  0.00  0.00    +0.000 A 
ATOM      4  N   UNL     1       3.475   6.052  19.193  0.00  0.00    +0.000 N 
ATOM      5  C   UNL     1       4.584   5.731  18.300  0.00  0.00    +0.000 C 
ATOM      6  C   UNL     1       4.322   4.391  17.627  0.00  0.00    +0.000 C 
ATOM      7  C   UNL     1       4.085   3.309  18.677  0.00  0.00    +0.000 C 
ATOM      8  C   UNL     1       2.928   3.697  19.626  0.00  0.00    +0.000 C 
ATOM      9  C   UNL     1       3.168   5.097  20.249  0.00  0.00    +0.000 C 
ATOM     10  C   UNL     1       2.354   7.563  17.703  0.00  0.00    +0.000 A 
ATOM     11  C   UNL     1       1.592   8.704  17.482  0.00  0.00    +0.000 A 
ATOM     12  C   UNL     1       1.158   9.455  18.567  0.00  0.00    +0.000 A 
ENDROOT
BRANCH  12  13
ATOM     13  C   UNL     1       0.409  10.702  18.292  0.00  0.00    +0.000 C 
ATOM     14  O   UNL     1       0.957  11.775  18.529  0.00  0.00    +0.000 OA
ATOM     15  N   UNL     1      -0.865  10.598  17.768  0.00  0.00    +0.000 N 
ATOM     16  H   UNL     1      -1.285   9.677  17.724  0.00  0.00    +0.000 HD
BRANCH  15  17
ATOM     17  C   UNL     1      -1.710  11.779  17.594  0.00  0.00    +0.000 C 
ATOM     18  C   UNL     1      -2.695  11.641  16.426  0.00  0.00    +0.000 C 
ATOM     19  C   UNL     1      -3.782  10.607  16.702  0.00  0.00    +0.000 C 
ATOM     20  C   UNL     1      -4.538  10.895  17.993  0.00  0.00    +0.000 C 
ATOM     21  C   UNL     1      -3.623  11.160  19.187  0.00  0.00    +0.000 C 
ATOM     22  C   UNL     1      -2.480  12.126  18.879  0.00  0.00    +0.000 C 
ENDBRANCH  15  17
ENDBRANCH  12  13
BRANCH   1  23
ATOM     23  O   UNL     1       1.086   9.794  20.889  0.00  0.00    +0.000 OA
BRANCH  23  25
ATOM     24  C   UNL     1      -0.468   8.559  22.217  0.00  0.00    +0.000 C 
ATOM     25  C   UNL     1      -0.298   9.724  21.233  0.00  0.00    +0.000 C 
BRANCH  25  26
ATOM     26  C   UNL     1      -0.654  11.038  21.903  0.00  0.00    +0.000 A 
ATOM     27  C   UNL     1      -1.692  11.091  22.840  0.00  0.00    +0.000 A 
ATOM     28  C   UNL     1      -2.044  12.302  23.438  0.00  0.00    +0.000 A 
ATOM     29  C   UNL     1      -1.368  13.474  23.102  0.00  0.00    +0.000 A 
ATOM     30  C   UNL     1      -0.329  13.437  22.177  0.00  0.00    +0.000 A 
ATOM     31  C   UNL     1       0.028  12.227  21.582  0.00  0.00    +0.000 A 
ENDBRANCH  25  26
ENDBRANCH  23  25
ENDBRANCH   1  23
BRANCH   8  32
ATOM     32  C   UNL     1       2.744   2.643  20.731  0.00  0.00    +0.000 C 
BRANCH  32  33
ATOM     33  C   UNL     1       1.377   2.701  21.379  0.00  0.00    +0.000 C 
ATOM     34  O   UNL     1       1.141   2.422  22.543  0.00  0.00    +0.000 OA
BRANCH  33  35
ATOM     35  O   UNL     1       0.400   3.069  20.518  0.00  0.00    +0.000 OA
ATOM     36  H   UNL     1      -0.502   2.837  20.805  0.00  0.00    +0.000 HD
ENDBRANCH  33  35
ENDBRANCH  32  33
ENDBRANCH   8  32
TORSDOF 8
ENDMDL
MODEL 6
REMARK VINA RESULT:      -7.3      0.992      1.402
REMARK  Name = 
REMARK  9 active torsions:
REMARK  status: ('A' for Active; 'I' for Inactive)
REMARK    1  A    between atoms: C_1  and  C_2
REMARK    2  A    between atoms: C_2  and  O_3
REMARK    3  A    between atoms: C_2  and  C_29
REMARK    4  A    between atoms: O_3  and  C_4
REMARK    5  A    between atoms: C_11  and  C_12
REMARK    6  A    between atoms: C_12  and  C_13
REMARK    7  A    between atoms: C_13  and  O_15
REMARK    8  A    between atoms: C_19  and  C_20
REMARK    9  A    between atoms: N_22  and  C_23
REMARK                            x       y       z     vdW  Elec       q    Type
REMARK                         _______ _______ _______ _____ _____    ______ ____
ROOT
ATOM      1  C   UNL     1       1.159  10.029  20.129  0.00  0.00    +0.000 A 
ATOM      2  N   UNL     1       1.661   8.763  20.227  0.00  0.00    +0.000 NA
ATOM      3  C   UNL     1       2.141   8.175  19.098  0.00  0.00    +0.000 A 
ATOM      4  N   UNL     1       2.720   6.921  19.162  0.00  0.00    +0.000 N 
ATOM      5  C   UNL     1       3.890   6.572  18.362  0.00  0.00    +0.000 C 
ATOM      6  C   UNL     1       3.536   5.432  17.416  0.00  0.00    +0.000 C 
ATOM      7  C   UNL     1       2.988   4.244  18.202  0.00  0.00    +0.000 C 
ATOM      8  C   UNL     1       1.773   4.657  19.063  0.00  0.00    +0.000 C 
ATOM      9  C   UNL     1       2.121   5.867  19.969  0.00  0.00    +0.000 C 
ATOM     10  C   UNL     1       2.069   8.836  17.870  0.00  0.00    +0.000 A 
ATOM     11  C   UNL     1       1.525  10.112  17.784  0.00  0.00    +0.000 A 
ATOM     12  C   UNL     1       1.050  10.729  18.934  0.00  0.00    +0.000 A 
ENDROOT
BRANCH  12  13
ATOM     13  C   UNL     1       0.543  12.115  18.818  0.00  0.00    +0.000 C 
ATOM     14  O   UNL     1      -0.462  12.313  18.141  0.00  0.00    +0.000 OA
ATOM     15  N   UNL     1       1.217  13.117  19.489  0.00  0.00    +0.000 N 
ATOM     16  H   UNL     1       2.106  12.885  19.917  0.00  0.00    +0.000 HD
BRANCH  15  17
ATOM     17  C   UNL     1       0.851  14.522  19.315  0.00  0.00    +0.000 C 
ATOM     18  C   UNL     1       0.219  15.134  20.572  0.00  0.00    +0.000 C 
ATOM     19  C   UNL     1       1.222  15.286  21.711  0.00  0.00    +0.000 C 
ATOM     20  C   UNL     1       2.447  16.091  21.297  0.00  0.00    +0.000 C 
ATOM     21  C   UNL     1       3.072  15.616  19.987  0.00  0.00    +0.000 C 
ATOM     22  C   UNL     1       2.052  15.376  18.874  0.00  0.00    +0.000 C 
ENDBRANCH  15  17
ENDBRANCH  12  13
BRANCH   1  23
ATOM     23  O   UNL     1       0.684  10.673  21.253  0.00  0.00    +0.000 OA
BRANCH  23  25
ATOM     24  C   UNL     1      -0.409   9.554  23.058  0.00  0.00    +0.000 C 
ATOM     25  C   UNL     1      -0.609  10.305  21.735  0.00  0.00    +0.000 C 
BRANCH  25  26
ATOM     26  C   UNL     1      -1.375  11.594  21.969  0.00  0.00    +0.000 A 
ATOM     27  C   UNL     1      -2.276  12.059  21.005  0.00  0.00    +0.000 A 
ATOM     28  C   UNL     1      -2.962  13.259  21.201  0.00  0.00    +0.000 A 
ATOM     29  C   UNL     1      -2.752  14.009  22.357  0.00  0.00    +0.000 A 
ATOM     30  C   UNL     1      -1.863  13.556  23.328  0.00  0.00    +0.000 A 
ATOM     31  C   UNL     1      -1.180  12.355  23.137  0.00  0.00    +0.000 A 
ENDBRANCH  25  26
ENDBRANCH  23  25
ENDBRANCH   1  23
BRANCH   8  32
ATOM     32  C   UNL     1       1.273   3.478  19.913  0.00  0.00    +0.000 C 
BRANCH  32  33
ATOM     33  C   UNL     1       1.037   2.222  19.099  0.00  0.00    +0.000 C 
ATOM     34  O   UNL     1       0.087   2.037  18.356  0.00  0.00    +0.000 OA
BRANCH  33  35
ATOM     35  O   UNL     1       1.986   1.279  19.299  0.00  0.00    +0.000 OA
ATOM     36  H   UNL     1       2.881   1.535  19.007  0.00  0.00    +0.000 HD
ENDBRANCH  33  35
ENDBRANCH  32  33
ENDBRANCH   8  32
TORSDOF 8
ENDMDL
MODEL 7
REMARK VINA RESULT:      -7.3      2.230      3.805
REMARK  Name = 
REMARK  9 active torsions:
REMARK  status: ('A' for Active; 'I' for Inactive)
REMARK    1  A    between atoms: C_1  and  C_2
REMARK    2  A    between atoms: C_2  and  O_3
REMARK    3  A    between atoms: C_2  and  C_29
REMARK    4  A    between atoms: O_3  and  C_4
REMARK    5  A    between atoms: C_11  and  C_12
REMARK    6  A    between atoms: C_12  and  C_13
REMARK    7  A    between atoms: C_13  and  O_15
REMARK    8  A    between atoms: C_19  and  C_20
REMARK    9  A    between atoms: N_22  and  C_23
REMARK                            x       y       z     vdW  Elec       q    Type
REMARK                         _______ _______ _______ _____ _____    ______ ____
ROOT
ATOM      1  C   UNL     1       0.005  10.570  20.106  0.00  0.00    +0.000 A 
ATOM      2  N   UNL     1       0.924   9.573  20.264  0.00  0.00    +0.000 NA
ATOM      3  C   UNL     1       1.223   8.800  19.185  0.00  0.00    +0.000 A 
ATOM      4  N   UNL     1       2.197   7.823  19.281  0.00  0.00    +0.000 N 
ATOM      5  C   UNL     1       3.122   7.548  18.186  0.00  0.00    +0.000 C 
ATOM      6  C   UNL     1       2.928   6.117  17.705  0.00  0.00    +0.000 C 
ATOM      7  C   UNL     1       3.091   5.141  18.868  0.00  0.00    +0.000 C 
ATOM      8  C   UNL     1       2.121   5.482  20.022  0.00  0.00    +0.000 C 
ATOM      9  C   UNL     1       2.274   6.964  20.454  0.00  0.00    +0.000 C 
ATOM     10  C   UNL     1       0.564   8.995  17.970  0.00  0.00    +0.000 A 
ATOM     11  C   UNL     1      -0.393   9.994  17.836  0.00  0.00    +0.000 A 
ATOM     12  C   UNL     1      -0.691  10.802  18.926  0.00  0.00    +0.000 A 
ENDROOT
BRANCH  12  13
ATOM     13  C   UNL     1      -1.663  11.901  18.728  0.00  0.00    +0.000 C 
ATOM     14  O   UNL     1      -1.261  12.953  18.237  0.00  0.00    +0.000 OA
ATOM     15  N   UNL     1      -2.977  11.686  19.093  0.00  0.00    +0.000 N 
ATOM     16  H   UNL     1      -3.194  10.840  19.606  0.00  0.00    +0.000 HD
BRANCH  15  17
ATOM     17  C   UNL     1      -3.961  12.768  19.048  0.00  0.00    +0.000 C 
ATOM     18  C   UNL     1      -5.195  12.417  18.205  0.00  0.00    +0.000 C 
ATOM     19  C   UNL     1      -6.054  11.337  18.855  0.00  0.00    +0.000 C 
ATOM     20  C   UNL     1      -6.476  11.710  20.270  0.00  0.00    +0.000 C 
ATOM     21  C   UNL     1      -5.318  12.183  21.145  0.00  0.00    +0.000 C 
ATOM     22  C   UNL     1      -4.405  13.197  20.456  0.00  0.00    +0.000 C 
ENDBRANCH  15  17
ENDBRANCH  12  13
BRANCH   1  23
ATOM     23  O   UNL     1      -0.311  11.394  21.166  0.00  0.00    +0.000 OA
BRANCH  23  25
ATOM     24  C   UNL     1      -0.344  10.024  23.122  0.00  0.00    +0.000 C 
ATOM     25  C   UNL     1      -1.187  10.881  22.170  0.00  0.00    +0.000 C 
BRANCH  25  26
ATOM     26  C   UNL     1      -1.763  12.078  22.905  0.00  0.00    +0.000 A 
ATOM     27  C   UNL     1      -1.070  13.293  22.919  0.00  0.00    +0.000 A 
ATOM     28  C   UNL     1      -1.580  14.389  23.617  0.00  0.00    +0.000 A 
ATOM     29  C   UNL     1      -2.782  14.282  24.314  0.00  0.00    +0.000 A 
ATOM     30  C   UNL     1      -3.486  13.081  24.305  0.00  0.00    +0.000 A 
ATOM     31  C   UNL     1      -2.982  11.986  23.603  0.00  0.00    +0.000 A 
ENDBRANCH  25  26
ENDBRANCH  23  25
ENDBRANCH   1  23
BRANCH   8  32
ATOM     32  C   UNL     1       2.343   4.548  21.222  0.00  0.00    +0.000 C 
BRANCH  32  33
ATOM     33  C   UNL     1       1.374   3.384  21.250  0.00  0.00    +0.000 C 
ATOM     34  O   UNL     1       1.421   2.452  22.036  0.00  0.00    +0.000 OA
BRANCH  33  35
ATOM     35  O   UNL     1       0.439   3.452  20.274  0.00  0.00    +0.000 OA
ATOM     36  H   UNL     1       0.118   2.587  19.959  0.00  0.00    +0.000 HD
ENDBRANCH  33  35
ENDBRANCH  32  33
ENDBRANCH   8  32
TORSDOF 8
ENDMDL
MODEL 8
REMARK VINA RESULT:      -7.2      2.458      4.710
REMARK  Name = 
REMARK  9 active torsions:
REMARK  status: ('A' for Active; 'I' for Inactive)
REMARK    1  A    between atoms: C_1  and  C_2
REMARK    2  A    between atoms: C_2  and  O_3
REMARK    3  A    between atoms: C_2  and  C_29
REMARK    4  A    between atoms: O_3  and  C_4
REMARK    5  A    between atoms: C_11  and  C_12
REMARK    6  A    between atoms: C_12  and  C_13
REMARK    7  A    between atoms: C_13  and  O_15
REMARK    8  A    between atoms: C_19  and  C_20
REMARK    9  A    between atoms: N_22  and  C_23
REMARK                            x       y       z     vdW  Elec       q    Type
REMARK                         _______ _______ _______ _____ _____    ______ ____
ROOT
ATOM      1  C   UNL     1       1.055   9.914  19.877  0.00  0.00    +0.000 A 
ATOM      2  N   UNL     1       1.689   9.123  18.961  0.00  0.00    +0.000 NA
ATOM      3  C   UNL     1       1.907   7.820  19.282  0.00  0.00    +0.000 A 
ATOM      4  N   UNL     1       2.484   6.966  18.359  0.00  0.00    +0.000 N 
ATOM      5  C   UNL     1       2.053   5.579  18.219  0.00  0.00    +0.000 C 
ATOM      6  C   UNL     1       3.216   4.651  18.543  0.00  0.00    +0.000 C 
ATOM      7  C   UNL     1       4.418   4.982  17.662  0.00  0.00    +0.000 C 
ATOM      8  C   UNL     1       4.825   6.466  17.809  0.00  0.00    +0.000 C 
ATOM      9  C   UNL     1       3.614   7.401  17.551  0.00  0.00    +0.000 C 
ATOM     10  C   UNL     1       1.539   7.327  20.535  0.00  0.00    +0.000 A 
ATOM     11  C   UNL     1       0.924   8.155  21.467  0.00  0.00    +0.000 A 
ATOM     12  C   UNL     1       0.678   9.482  21.143  0.00  0.00    +0.000 A 
ENDROOT
BRANCH  12  13
ATOM     13  C   UNL     1      -0.042  10.316  22.132  0.00  0.00    +0.000 C 
ATOM     14  O   UNL     1       0.257  10.201  23.318  0.00  0.00    +0.000 OA
ATOM     15  N   UNL     1      -1.004  11.193  21.672  0.00  0.00    +0.000 N 
ATOM     16  H   UNL     1      -1.275  11.130  20.697  0.00  0.00    +0.000 HD
BRANCH  15  17
ATOM     17  C   UNL     1      -1.844  11.950  22.600  0.00  0.00    +0.000 C 
ATOM     18  C   UNL     1      -1.113  13.148  23.223  0.00  0.00    +0.000 C 
ATOM     19  C   UNL     1      -0.828  14.247  22.205  0.00  0.00    +0.000 C 
ATOM     20  C   UNL     1      -2.091  14.716  21.494  0.00  0.00    +0.000 C 
ATOM     21  C   UNL     1      -2.939  13.573  20.942  0.00  0.00    +0.000 C 
ATOM     22  C   UNL     1      -3.145  12.429  21.935  0.00  0.00    +0.000 C 
ENDBRANCH  15  17
ENDBRANCH  12  13
BRANCH   1  23
ATOM     23  O   UNL     1       0.791  11.235  19.584  0.00  0.00    +0.000 OA
BRANCH  23  25
ATOM     24  C   UNL     1       2.428  11.713  17.912  0.00  0.00    +0.000 C 
ATOM     25  C   UNL     1       1.900  12.090  19.302  0.00  0.00    +0.000 C 
BRANCH  25  26
ATOM     26  C   UNL     1       1.371  13.512  19.299  0.00  0.00    +0.000 A 
ATOM     27  C   UNL     1       0.189  13.820  18.615  0.00  0.00    +0.000 A 
ATOM     28  C   UNL     1      -0.287  15.132  18.584  0.00  0.00    +0.000 A 
ATOM     29  C   UNL     1       0.413  16.150  19.230  0.00  0.00    +0.000 A 
ATOM     30  C   UNL     1       1.586  15.858  19.919  0.00  0.00    +0.000 A 
ATOM     31  C   UNL     1       2.061  14.547  19.957  0.00  0.00    +0.000 A 
ENDBRANCH  25  26
ENDBRANCH  23  25
ENDBRANCH   1  23
BRANCH   8  32
ATOM     32  C   UNL     1       5.984   6.816  16.862  0.00  0.00    +0.000 C 
BRANCH  32  33
ATOM     33  C   UNL     1       7.276   7.109  17.594  0.00  0.00    +0.000 C 
ATOM     34  O   UNL     1       7.786   6.384  18.434  0.00  0.00    +0.000 OA
BRANCH  33  35
ATOM     35  O   UNL     1       7.820   8.299  17.251  0.00  0.00    +0.000 OA
ATOM     36  H   UNL     1       7.294   8.817  16.613  0.00  0.00    +0.000 HD
ENDBRANCH  33  35
ENDBRANCH  32  33
ENDBRANCH   8  32
TORSDOF 8
ENDMDL
MODEL 9
REMARK VINA RESULT:      -7.2      0.992      1.087
REMARK  Name = 
REMARK  9 active torsions:
REMARK  status: ('A' for Active; 'I' for Inactive)
REMARK    1  A    between atoms: C_1  and  C_2
REMARK    2  A    between atoms: C_2  and  O_3
REMARK    3  A    between atoms: C_2  and  C_29
REMARK    4  A    between atoms: O_3  and  C_4
REMARK    5  A    between atoms: C_11  and  C_12
REMARK    6  A    between atoms: C_12  and  C_13
REMARK    7  A    between atoms: C_13  and  O_15
REMARK    8  A    between atoms: C_19  and  C_20
REMARK    9  A    between atoms: N_22  and  C_23
REMARK                            x       y       z     vdW  Elec       q    Type
REMARK                         _______ _______ _______ _____ _____    ______ ____
ROOT
ATOM      1  C   UNL     1       1.654   8.963  19.857  0.00  0.00    +0.000 A 
ATOM      2  N   UNL     1       2.230   7.733  20.000  0.00  0.00    +0.000 NA
ATOM      3  C   UNL     1       2.834   7.178  18.914  0.00  0.00    +0.000 A 
ATOM      4  N   UNL     1       3.488   5.965  19.030  0.00  0.00    +0.000 N 
ATOM      5  C   UNL     1       4.737   5.694  18.324  0.00  0.00    +0.000 C 
ATOM      6  C   UNL     1       4.533   4.533  17.360  0.00  0.00    +0.000 C 
ATOM      7  C   UNL     1       4.006   3.311  18.109  0.00  0.00    +0.000 C 
ATOM      8  C   UNL     1       2.704   3.643  18.872  0.00  0.00    +0.000 C 
ATOM      9  C   UNL     1       2.900   4.874  19.795  0.00  0.00    +0.000 C 
ATOM     10  C   UNL     1       2.812   7.832  17.681  0.00  0.00    +0.000 A 
ATOM     11  C   UNL     1       2.193   9.069  17.546  0.00  0.00    +0.000 A 
ATOM     12  C   UNL     1       1.591   9.653  18.653  0.00  0.00    +0.000 A 
ENDROOT
BRANCH  12  13
ATOM     13  C   UNL     1       1.004  11.002  18.490  0.00  0.00    +0.000 C 
ATOM     14  O   UNL     1      -0.106  11.096  17.972  0.00  0.00    +0.000 OA
ATOM     15  N   UNL     1       1.725  12.089  18.943  0.00  0.00    +0.000 N 
ATOM     16  H   UNL     1       2.682  11.932  19.240  0.00  0.00    +0.000 HD
BRANCH  15  17
ATOM     17  C   UNL     1       1.267  13.456  18.699  0.00  0.00    +0.000 C 
ATOM     18  C   UNL     1       0.579  14.082  19.919  0.00  0.00    +0.000 C 
ATOM     19  C   UNL     1       1.555  14.356  21.059  0.00  0.00    +0.000 C 
ATOM     20  C   UNL     1       2.728  15.223  20.618  0.00  0.00    +0.000 C 
ATOM     21  C   UNL     1       3.400  14.731  19.338  0.00  0.00    +0.000 C 
ATOM     22  C   UNL     1       2.412  14.369  18.229  0.00  0.00    +0.000 C 
ENDBRANCH  15  17
ENDBRANCH  12  13
BRANCH   1  23
ATOM     23  O   UNL     1       1.053   9.574  20.937  0.00  0.00    +0.000 OA
BRANCH  23  25
ATOM     24  C   UNL     1      -0.489   8.370  22.307  0.00  0.00    +0.000 C 
ATOM     25  C   UNL     1      -0.343   9.351  21.137  0.00  0.00    +0.000 C 
BRANCH  25  26
ATOM     26  C   UNL     1      -0.958  10.692  21.492  0.00  0.00    +0.000 A 
ATOM     27  C   UNL     1      -0.700  11.275  22.738  0.00  0.00    +0.000 A 
ATOM     28  C   UNL     1      -1.286  12.494  23.082  0.00  0.00    +0.000 A 
ATOM     29  C   UNL     1      -2.138  13.142  22.190  0.00  0.00    +0.000 A 
ATOM     30  C   UNL     1      -2.400  12.578  20.944  0.00  0.00    +0.000 A 
ATOM     31  C   UNL     1      -1.812  11.362  20.596  0.00  0.00    +0.000 A 
ENDBRANCH  25  26
ENDBRANCH  23  25
ENDBRANCH   1  23
BRANCH   8  32
ATOM     32  C   UNL     1       2.219   2.433  19.688  0.00  0.00    +0.000 C 
BRANCH  32  33
ATOM     33  C   UNL     1       1.318   2.822  20.841  0.00  0.00    +0.000 C 
ATOM     34  O   UNL     1       1.513   2.533  22.011  0.00  0.00    +0.000 OA
BRANCH  33  35
ATOM     35  O   UNL     1       0.224   3.513  20.446  0.00  0.00    +0.000 OA
ATOM     36  H   UNL     1      -0.625   3.102  20.689  0.00  0.00    +0.000 HD
ENDBRANCH  33  35
ENDBRANCH  32  33
ENDBRANCH   8  32
TORSDOF 8
ENDMDL
