MODEL 1
REMARK VINA RESULT:      -7.4      0.000      0.000
REMARK  Name = 
REMARK  15 active torsions:
REMARK  status: ('A' for Active; 'I' for Inactive)
REMARK    1  A    between atoms: C_1  and  C_2
REMARK    2  A    between atoms: C_2  and  C_3
REMARK    3  A    between atoms: C_3  and  C_4
REMARK    4  A    between atoms: C_4  and  C_5
REMARK    5  A    between atoms: C_5  and  C_6
REMARK    6  A    between atoms: C_6  and  C_7
REMARK    7  A    between atoms: C_7  and  C_8
REMARK    8  A    between atoms: C_8  and  C_9
REMARK    9  A    between atoms: C_9  and  C_10
REMARK   10  A    between atoms: C_13  and  C_14
REMARK   11  A    between atoms: C_14  and  O_15
REMARK   12  A    between atoms: O_15  and  C_16
REMARK   13  A    between atoms: C_16  and  C_18
REMARK   14  A    between atoms: C_22  and  O_23
REMARK   15  A    between atoms: C_24  and  O_25
REMARK                            x       y       z     vdW  Elec       q    Type
REMARK                         _______ _______ _______ _____ _____    ______ ____
ROOT
ATOM      1  C   UNL     1       3.039   6.646  18.913  0.00  0.00    +0.000 A 
ATOM      2  C   UNL     1       2.259   7.021  20.017  0.00  0.00    +0.000 A 
ATOM      3  C   UNL     1       1.496   8.187  19.986  0.00  0.00    +0.000 A 
ATOM      4  C   UNL     1       1.511   9.010  18.856  0.00  0.00    +0.000 A 
ATOM      5  C   UNL     1       2.299   8.645  17.756  0.00  0.00    +0.000 A 
ATOM      6  C   UNL     1       3.056   7.472  17.784  0.00  0.00    +0.000 A 
ENDROOT
BRANCH   1   7
ATOM      7  C   UNL     1       3.842   5.370  18.947  0.00  0.00    +0.000 C 
BRANCH   7   8
ATOM      8  C   UNL     1       4.549   5.131  17.613  0.00  0.00    +0.000 C 
BRANCH   8   9
ATOM      9  C   UNL     1       4.079   3.849  16.934  0.00  0.00    +0.000 C 
BRANCH   9  10
ATOM     10  C   UNL     1       2.627   3.568  17.315  0.00  0.00    +0.000 C 
BRANCH  10  11
ATOM     11  C   UNL     1       2.424   2.111  17.709  0.00  0.00    +0.000 C 
BRANCH  11  12
ATOM     12  C   UNL     1       2.013   1.999  19.176  0.00  0.00    +0.000 C 
BRANCH  12  13
ATOM     13  C   UNL     1       0.893   2.983  19.500  0.00  0.00    +0.000 C 
BRANCH  13  15
ATOM     14  C   UNL     1       2.284   3.034  21.587  0.00  0.00    +0.000 C 
ATOM     15  C   UNL     1       1.133   3.680  20.835  0.00  0.00    +0.000 C 
ENDBRANCH  13  15
ENDBRANCH  12  13
ENDBRANCH  11  12
ENDBRANCH  10  11
ENDBRANCH   9  10
ENDBRANCH   8   9
ENDBRANCH   7   8
ENDBRANCH   1   7
BRANCH   4  16
ATOM     16  C   UNL     1       0.729  10.299  18.840  0.00  0.00    +0.000 C 
BRANCH  16  17
ATOM     17  O   UNL     1      -0.590  10.069  19.343  0.00  0.00    +0.000 OA
BRANCH  17  18
ATOM     18  C   UNL     1      -1.442  11.109  19.206  0.00  0.00    +0.000 C 
ATOM     19  O   UNL     1      -1.442  12.142  19.862  0.00  0.00    +0.000 OA
BRANCH  18  20
ATOM     20  C   UNL     1      -2.366  10.899  18.072  0.00  0.00    +0.000 A 
ATOM     21  C   UNL     1      -1.911  10.092  17.016  0.00  0.00    +0.000 A 
ATOM     22  C   UNL     1      -2.695   9.908  15.873  0.00  0.00    +0.000 A 
ATOM     23  C   UNL     1      -3.937  10.534  15.769  0.00  0.00    +0.000 A 
ATOM     24  C   UNL     1      -4.384  11.330  16.818  0.00  0.00    +0.000 A 
ATOM     25  C   UNL     1      -3.611  11.516  17.967  0.00  0.00    +0.000 A 
BRANCH  24  26
ATOM     26  O   UNL     1      -5.588  11.983  16.756  0.00  0.00    +0.000 OA
ATOM     27  H   UNL     1      -5.470  12.877  17.121  0.00  0.00    +0.000 HD
ENDBRANCH  24  26
BRANCH  25  28
ATOM     28  O   UNL     1      -4.103  12.345  18.940  0.00  0.00    +0.000 OA
ATOM     29  H   UNL     1      -4.541  13.072  18.455  0.00  0.00    +0.000 HD
ENDBRANCH  25  28
ENDBRANCH  18  20
ENDBRANCH  17  18
ENDBRANCH  16  17
ENDBRANCH   4  16
TORSDOF 14
ENDMDL
MODEL 2
REMARK VINA RESULT:      -7.1      0.906      1.334
REMARK  Name = 
REMARK  15 active torsions:
REMARK  status: ('A' for Active; 'I' for Inactive)
REMARK    1  A    between atoms: C_1  and  C_2
REMARK    2  A    between atoms: C_2  and  C_3
REMARK    3  A    between atoms: C_3  and  C_4
REMARK    4  A    between atoms: C_4  and  C_5
REMARK    5  A    between atoms: C_5  and  C_6
REMARK    6  A    between atoms: C_6  and  C_7
REMARK    7  A    between atoms: C_7  and  C_8
REMARK    8  A    between atoms: C_8  and  C_9
REMARK    9  A    between atoms: C_9  and  C_10
REMARK   10  A    between atoms: C_13  and  C_14
REMARK   11  A    between atoms: C_14  and  O_15
REMARK   12  A    between atoms: O_15  and  C_16
REMARK   13  A    between atoms: C_16  and  C_18
REMARK   14  A    between atoms: C_22  and  O_23
REMARK   15  A    between atoms: C_24  and  O_25
REMARK                            x       y       z     vdW  Elec       q    Type
REMARK                         _______ _______ _______ _____ _____    ______ ____
ROOT
ATOM      1  C   UNL     1       3.003   7.312  18.257  0.00  0.00    +0.000 A 
ATOM      2  C   UNL     1       2.541   7.065  19.558  0.00  0.00    +0.000 A 
ATOM      3  C   UNL     1       1.641   7.935  20.170  0.00  0.00    +0.000 A 
ATOM      4  C   UNL     1       1.198   9.080  19.499  0.00  0.00    +0.000 A 
ATOM      5  C   UNL     1       1.667   9.335  18.204  0.00  0.00    +0.000 A 
ATOM      6  C   UNL     1       2.562   8.459  17.588  0.00  0.00    +0.000 A 
ENDROOT
BRANCH   1   7
ATOM      7  C   UNL     1       3.957   6.351  17.593  0.00  0.00    +0.000 C 
BRANCH   7   8
ATOM      8  C   UNL     1       3.373   4.939  17.551  0.00  0.00    +0.000 C 
BRANCH   8   9
ATOM      9  C   UNL     1       4.413   3.875  17.886  0.00  0.00    +0.000 C 
BRANCH   9  10
ATOM     10  C   UNL     1       4.592   3.790  19.400  0.00  0.00    +0.000 C 
BRANCH  10  11
ATOM     11  C   UNL     1       4.197   2.420  19.934  0.00  0.00    +0.000 C 
BRANCH  11  12
ATOM     12  C   UNL     1       3.158   2.551  21.046  0.00  0.00    +0.000 C 
BRANCH  12  13
ATOM     13  C   UNL     1       2.313   3.805  20.849  0.00  0.00    +0.000 C 
BRANCH  13  15
ATOM     14  C   UNL     1       0.812   2.758  19.133  0.00  0.00    +0.000 C 
ATOM     15  C   UNL     1       0.874   3.456  20.481  0.00  0.00    +0.000 C 
ENDBRANCH  13  15
ENDBRANCH  12  13
ENDBRANCH  11  12
ENDBRANCH  10  11
ENDBRANCH   9  10
ENDBRANCH   8   9
ENDBRANCH   7   8
ENDBRANCH   1   7
BRANCH   4  16
ATOM     16  C   UNL     1       0.267  10.051  20.180  0.00  0.00    +0.000 C 
BRANCH  16  17
ATOM     17  O   UNL     1      -0.239  10.986  19.223  0.00  0.00    +0.000 OA
BRANCH  17  18
ATOM     18  C   UNL     1      -1.517  11.375  19.425  0.00  0.00    +0.000 C 
ATOM     19  O   UNL     1      -1.948  11.983  20.396  0.00  0.00    +0.000 OA
BRANCH  18  20
ATOM     20  C   UNL     1      -2.366  11.053  18.260  0.00  0.00    +0.000 A 
ATOM     21  C   UNL     1      -1.814  10.215  17.277  0.00  0.00    +0.000 A 
ATOM     22  C   UNL     1      -2.524   9.927  16.107  0.00  0.00    +0.000 A 
ATOM     23  C   UNL     1      -3.790  10.477  15.905  0.00  0.00    +0.000 A 
ATOM     24  C   UNL     1      -4.334  11.304  16.882  0.00  0.00    +0.000 A 
ATOM     25  C   UNL     1      -3.634  11.595  18.057  0.00  0.00    +0.000 A 
BRANCH  24  26
ATOM     26  O   UNL     1      -5.565  11.885  16.722  0.00  0.00    +0.000 OA
ATOM     27  H   UNL     1      -5.620  12.237  15.817  0.00  0.00    +0.000 HD
ENDBRANCH  24  26
BRANCH  25  28
ATOM     28  O   UNL     1      -4.220  12.447  18.953  0.00  0.00    +0.000 OA
ATOM     29  H   UNL     1      -4.952  12.868  18.461  0.00  0.00    +0.000 HD
ENDBRANCH  25  28
ENDBRANCH  18  20
ENDBRANCH  17  18
ENDBRANCH  16  17
ENDBRANCH   4  16
TORSDOF 14
ENDMDL
MODEL 3
REMARK VINA RESULT:      -7.0      2.894      3.845
REMARK  Name = 
REMARK  15 active torsions:
REMARK  status: ('A' for Active; 'I' for Inactive)
REMARK    1  A    between atoms: C_1  and  C_2
REMARK    2  A    between atoms: C_2  and  C_3
REMARK    3  A    between atoms: C_3  and  C_4
REMARK    4  A    between atoms: C_4  and  C_5
REMARK    5  A    between atoms: C_5  and  C_6
REMARK    6  A    between atoms: C_6  and  C_7
REMARK    7  A    between atoms: C_7  and  C_8
REMARK    8  A    between atoms: C_8  and  C_9
REMARK    9  A    between atoms: C_9  and  C_10
REMARK   10  A    between atoms: C_13  and  C_14
REMARK   11  A    between atoms: C_14  and  O_15
REMARK   12  A    between atoms: O_15  and  C_16
REMARK   13  A    between atoms: C_16  and  C_18
REMARK   14  A    between atoms: C_22  and  O_23
REMARK   15  A    between atoms: C_24  and  O_25
REMARK                            x       y       z     vdW  Elec       q    Type
REMARK                         _______ _______ _______ _____ _____    ______ ____
ROOT
ATOM      1  C   UNL     1       4.424   5.988  18.595  0.00  0.00    +0.000 A 
ATOM      2  C   UNL     1       3.321   6.204  19.434  0.00  0.00    +0.000 A 
ATOM      3  C   UNL     1       2.405   7.218  19.157  0.00  0.00    +0.000 A 
ATOM      4  C   UNL     1       2.584   8.047  18.046  0.00  0.00    +0.000 A 
ATOM      5  C   UNL     1       3.692   7.841  17.213  0.00  0.00    +0.000 A 
ATOM      6  C   UNL     1       4.605   6.820  17.485  0.00  0.00    +0.000 A 
ENDROOT
BRANCH   1   7
ATOM      7  C   UNL     1       5.396   4.872  18.888  0.00  0.00    +0.000 C 
BRANCH   7   8
ATOM      8  C   UNL     1       4.730   3.507  18.721  0.00  0.00    +0.000 C 
BRANCH   8   9
ATOM      9  C   UNL     1       4.196   3.296  17.308  0.00  0.00    +0.000 C 
BRANCH   9  10
ATOM     10  C   UNL     1       2.672   3.198  17.345  0.00  0.00    +0.000 C 
BRANCH  10  11
ATOM     11  C   UNL     1       2.211   1.888  17.971  0.00  0.00    +0.000 C 
BRANCH  11  12
ATOM     12  C   UNL     1       1.096   2.135  18.985  0.00  0.00    +0.000 C 
BRANCH  12  13
ATOM     13  C   UNL     1       0.929   3.629  19.249  0.00  0.00    +0.000 C 
BRANCH  13  15
ATOM     14  C   UNL     1       1.729   2.781  21.471  0.00  0.00    +0.000 C 
ATOM     15  C   UNL     1       1.123   3.959  20.727  0.00  0.00    +0.000 C 
ENDBRANCH  13  15
ENDBRANCH  12  13
ENDBRANCH  11  12
ENDBRANCH  10  11
ENDBRANCH   9  10
ENDBRANCH   8   9
ENDBRANCH   7   8
ENDBRANCH   1   7
BRANCH   4  16
ATOM     16  C   UNL     1       1.625   9.178  17.775  0.00  0.00    +0.000 C 
BRANCH  16  17
ATOM     17  O   UNL     1       0.809   9.405  18.928  0.00  0.00    +0.000 OA
BRANCH  17  18
ATOM     18  C   UNL     1       0.745  10.691  19.338  0.00  0.00    +0.000 C 
ATOM     19  O   UNL     1       1.151  11.671  18.728  0.00  0.00    +0.000 OA
BRANCH  18  20
ATOM     20  C   UNL     1       0.021  10.809  20.620  0.00  0.00    +0.000 A 
ATOM     21  C   UNL     1      -0.919  11.846  20.733  0.00  0.00    +0.000 A 
ATOM     22  C   UNL     1      -1.589  12.072  21.939  0.00  0.00    +0.000 A 
ATOM     23  C   UNL     1      -1.322  11.269  23.047  0.00  0.00    +0.000 A 
ATOM     24  C   UNL     1      -0.392  10.241  22.931  0.00  0.00    +0.000 A 
ATOM     25  C   UNL     1       0.279  10.003  21.729  0.00  0.00    +0.000 A 
BRANCH  24  26
ATOM     26  O   UNL     1      -0.080   9.436  23.996  0.00  0.00    +0.000 OA
ATOM     27  H   UNL     1       0.209  10.003  24.732  0.00  0.00    +0.000 HD
ENDBRANCH  24  26
BRANCH  25  28
ATOM     28  O   UNL     1       1.207   8.998  21.704  0.00  0.00    +0.000 OA
ATOM     29  H   UNL     1       1.011   8.492  20.890  0.00  0.00    +0.000 HD
ENDBRANCH  25  28
ENDBRANCH  18  20
ENDBRANCH  17  18
ENDBRANCH  16  17
ENDBRANCH   4  16
TORSDOF 14
ENDMDL
MODEL 4
REMARK VINA RESULT:      -6.9      3.502      9.023
REMARK  Name = 
REMARK  15 active torsions:
REMARK  status: ('A' for Active; 'I' for Inactive)
REMARK    1  A    between atoms: C_1  and  C_2
REMARK    2  A    between atoms: C_2  and  C_3
REMARK    3  A    between atoms: C_3  and  C_4
REMARK    4  A    between atoms: C_4  and  C_5
REMARK    5  A    between atoms: C_5  and  C_6
REMARK    6  A    between atoms: C_6  and  C_7
REMARK    7  A    between atoms: C_7  and  C_8
REMARK    8  A    between atoms: C_8  and  C_9
REMARK    9  A    between atoms: C_9  and  C_10
REMARK   10  A    between atoms: C_13  and  C_14
REMARK   11  A    between atoms: C_14  and  O_15
REMARK   12  A    between atoms: O_15  and  C_16
REMARK   13  A    between atoms: C_16  and  C_18
REMARK   14  A    between atoms: C_22  and  O_23
REMARK   15  A    between atoms: C_24  and  O_25
REMARK                            x       y       z     vdW  Elec       q    Type
REMARK                         _______ _______ _______ _____ _____    ______ ____
ROOT
ATOM      1  C   UNL     1       0.668   9.453  20.653  0.00  0.00    +0.000 A 
ATOM      2  C   UNL     1       1.202   8.224  21.067  0.00  0.00    +0.000 A 
ATOM      3  C   UNL     1       1.987   7.463  20.203  0.00  0.00    +0.000 A 
ATOM      4  C   UNL     1       2.239   7.908  18.901  0.00  0.00    +0.000 A 
ATOM      5  C   UNL     1       1.697   9.129  18.481  0.00  0.00    +0.000 A 
ATOM      6  C   UNL     1       0.919   9.896  19.350  0.00  0.00    +0.000 A 
ENDROOT
BRANCH   1   7
ATOM      7  C   UNL     1      -0.159  10.282  21.604  0.00  0.00    +0.000 C 
BRANCH   7   8
ATOM      8  C   UNL     1      -0.210  11.743  21.157  0.00  0.00    +0.000 C 
BRANCH   8   9
ATOM      9  C   UNL     1      -1.581  12.368  21.388  0.00  0.00    +0.000 C 
BRANCH   9  10
ATOM     10  C   UNL     1      -2.327  12.474  20.059  0.00  0.00    +0.000 C 
BRANCH  10  11
ATOM     11  C   UNL     1      -1.365  12.635  18.889  0.00  0.00    +0.000 C 
BRANCH  11  12
ATOM     12  C   UNL     1      -1.808  11.781  17.702  0.00  0.00    +0.000 C 
BRANCH  12  13
ATOM     13  C   UNL     1      -2.307  10.419  18.175  0.00  0.00    +0.000 C 
BRANCH  13  15
ATOM     14  C   UNL     1      -4.370  11.263  17.024  0.00  0.00    +0.000 C 
ATOM     15  C   UNL     1      -3.608  10.030  17.479  0.00  0.00    +0.000 C 
ENDBRANCH  13  15
ENDBRANCH  12  13
ENDBRANCH  11  12
ENDBRANCH  10  11
ENDBRANCH   9  10
ENDBRANCH   8   9
ENDBRANCH   7   8
ENDBRANCH   1   7
BRANCH   4  16
ATOM     16  C   UNL     1       3.043   7.061  17.947  0.00  0.00    +0.000 C 
BRANCH  16  17
ATOM     17  O   UNL     1       2.417   5.784  17.790  0.00  0.00    +0.000 OA
BRANCH  17  18
ATOM     18  C   UNL     1       3.264   4.732  17.760  0.00  0.00    +0.000 C 
ATOM     19  O   UNL     1       4.114   4.505  16.909  0.00  0.00    +0.000 OA
BRANCH  18  20
ATOM     20  C   UNL     1       3.113   3.888  18.963  0.00  0.00    +0.000 A 
ATOM     21  C   UNL     1       1.868   3.914  19.612  0.00  0.00    +0.000 A 
ATOM     22  C   UNL     1       1.669   3.204  20.800  0.00  0.00    +0.000 A 
ATOM     23  C   UNL     1       2.714   2.465  21.355  0.00  0.00    +0.000 A 
ATOM     24  C   UNL     1       3.945   2.440  20.708  0.00  0.00    +0.000 A 
ATOM     25  C   UNL     1       4.152   3.142  19.517  0.00  0.00    +0.000 A 
BRANCH  24  26
ATOM     26  O   UNL     1       5.009   1.745  21.222  0.00  0.00    +0.000 OA
ATOM     27  H   UNL     1       4.673   0.924  21.620  0.00  0.00    +0.000 HD
ENDBRANCH  24  26
BRANCH  25  28
ATOM     28  O   UNL     1       5.401   3.099  18.960  0.00  0.00    +0.000 OA
ATOM     29  H   UNL     1       5.901   3.815  19.402  0.00  0.00    +0.000 HD
ENDBRANCH  25  28
ENDBRANCH  18  20
ENDBRANCH  17  18
ENDBRANCH  16  17
ENDBRANCH   4  16
TORSDOF 14
ENDMDL
MODEL 5
REMARK VINA RESULT:      -6.8      5.208      9.594
REMARK  Name = 
REMARK  15 active torsions:
REMARK  status: ('A' for Active; 'I' for Inactive)
REMARK    1  A    between atoms: C_1  and  C_2
REMARK    2  A    between atoms: C_2  and  C_3
REMARK    3  A    between atoms: C_3  and  C_4
REMARK    4  A    between atoms: C_4  and  C_5
REMARK    5  A    between atoms: C_5  and  C_6
REMARK    6  A    between atoms: C_6  and  C_7
REMARK    7  A    between atoms: C_7  and  C_8
REMARK    8  A    between atoms: C_8  and  C_9
REMARK    9  A    between atoms: C_9  and  C_10
REMARK   10  A    between atoms: C_13  and  C_14
REMARK   11  A    between atoms: C_14  and  O_15
REMARK   12  A    between atoms: O_15  and  C_16
REMARK   13  A    between atoms: C_16  and  C_18
REMARK   14  A    between atoms: C_22  and  O_23
REMARK   15  A    between atoms: C_24  and  O_25
REMARK                            x       y       z     vdW  Elec       q    Type
REMARK                         _______ _______ _______ _____ _____    ______ ____
ROOT
ATOM      1  C   UNL     1       1.893   7.276  20.254  0.00  0.00    +0.000 A 
ATOM      2  C   UNL     1       2.321   7.595  18.957  0.00  0.00    +0.000 A 
ATOM      3  C   UNL     1       2.561   6.591  18.021  0.00  0.00    +0.000 A 
ATOM      4  C   UNL     1       2.395   5.247  18.368  0.00  0.00    +0.000 A 
ATOM      5  C   UNL     1       1.979   4.925  19.667  0.00  0.00    +0.000 A 
ATOM      6  C   UNL     1       1.730   5.931  20.602  0.00  0.00    +0.000 A 
ENDROOT
BRANCH   1   7
ATOM      7  C   UNL     1       1.611   8.371  21.253  0.00  0.00    +0.000 C 
BRANCH   7   8
ATOM      8  C   UNL     1       0.196   8.923  21.077  0.00  0.00    +0.000 C 
BRANCH   8   9
ATOM      9  C   UNL     1      -0.644   8.769  22.340  0.00  0.00    +0.000 C 
BRANCH   9  10
ATOM     10  C   UNL     1      -0.390   9.952  23.273  0.00  0.00    +0.000 C 
BRANCH  10  11
ATOM     11  C   UNL     1      -0.701  11.278  22.592  0.00  0.00    +0.000 C 
BRANCH  11  12
ATOM     12  C   UNL     1      -2.124  11.732  22.915  0.00  0.00    +0.000 C 
BRANCH  12  13
ATOM     13  C   UNL     1      -2.148  13.215  23.270  0.00  0.00    +0.000 C 
BRANCH  13  15
ATOM     14  C   UNL     1      -3.765  14.977  24.028  0.00  0.00    +0.000 C 
ATOM     15  C   UNL     1      -3.299  13.543  24.216  0.00  0.00    +0.000 C 
ENDBRANCH  13  15
ENDBRANCH  12  13
ENDBRANCH  11  12
ENDBRANCH  10  11
ENDBRANCH   9  10
ENDBRANCH   8   9
ENDBRANCH   7   8
ENDBRANCH   1   7
BRANCH   4  16
ATOM     16  C   UNL     1       2.707   4.157  17.374  0.00  0.00    +0.000 C 
BRANCH  16  17
ATOM     17  O   UNL     1       4.065   3.735  17.530  0.00  0.00    +0.000 OA
BRANCH  17  18
ATOM     18  C   UNL     1       4.938   4.290  16.661  0.00  0.00    +0.000 C 
ATOM     19  O   UNL     1       4.921   4.182  15.442  0.00  0.00    +0.000 OA
BRANCH  18  20
ATOM     20  C   UNL     1       5.912   5.154  17.359  0.00  0.00    +0.000 A 
ATOM     21  C   UNL     1       6.427   6.248  16.644  0.00  0.00    +0.000 A 
ATOM     22  C   UNL     1       7.410   7.068  17.206  0.00  0.00    +0.000 A 
ATOM     23  C   UNL     1       7.895   6.799  18.486  0.00  0.00    +0.000 A 
ATOM     24  C   UNL     1       7.381   5.717  19.193  0.00  0.00    +0.000 A 
ATOM     25  C   UNL     1       6.394   4.894  18.641  0.00  0.00    +0.000 A 
BRANCH  24  26
ATOM     26  O   UNL     1       7.838   5.399  20.445  0.00  0.00    +0.000 OA
ATOM     27  H   UNL     1       8.606   4.809  20.349  0.00  0.00    +0.000 HD
ENDBRANCH  24  26
BRANCH  25  28
ATOM     28  O   UNL     1       5.967   3.826  19.383  0.00  0.00    +0.000 OA
ATOM     29  H   UNL     1       6.721   3.203  19.388  0.00  0.00    +0.000 HD
ENDBRANCH  25  28
ENDBRANCH  18  20
ENDBRANCH  17  18
ENDBRANCH  16  17
ENDBRANCH   4  16
TORSDOF 14
ENDMDL
MODEL 6
REMARK VINA RESULT:      -6.8      5.654      8.877
REMARK  Name = 
REMARK  15 active torsions:
REMARK  status: ('A' for Active; 'I' for Inactive)
REMARK    1  A    between atoms: C_1  and  C_2
REMARK    2  A    between atoms: C_2  and  C_3
REMARK    3  A    between atoms: C_3  and  C_4
REMARK    4  A    between atoms: C_4  and  C_5
REMARK    5  A    between atoms: C_5  and  C_6
REMARK    6  A    between atoms: C_6  and  C_7
REMARK    7  A    between atoms: C_7  and  C_8
REMARK    8  A    between atoms: C_8  and  C_9
REMARK    9  A    between atoms: C_9  and  C_10
REMARK   10  A    between atoms: C_13  and  C_14
REMARK   11  A    between atoms: C_14  and  O_15
REMARK   12  A    between atoms: O_15  and  C_16
REMARK   13  A    between atoms: C_16  and  C_18
REMARK   14  A    between atoms: C_22  and  O_23
REMARK   15  A    between atoms: C_24  and  O_25
REMARK                            x       y       z     vdW  Elec       q    Type
REMARK                         _______ _______ _______ _____ _____    ______ ____
ROOT
ATOM      1  C   UNL     1       3.339   3.254  18.402  0.00  0.00    +0.000 A 
ATOM      2  C   UNL     1       3.128   4.147  17.341  0.00  0.00    +0.000 A 
ATOM      3  C   UNL     1       4.064   5.136  17.047  0.00  0.00    +0.000 A 
ATOM      4  C   UNL     1       5.223   5.264  17.820  0.00  0.00    +0.000 A 
ATOM      5  C   UNL     1       5.430   4.381  18.888  0.00  0.00    +0.000 A 
ATOM      6  C   UNL     1       4.496   3.385  19.177  0.00  0.00    +0.000 A 
ENDROOT
BRANCH   1   7
ATOM      7  C   UNL     1       2.331   2.171  18.697  0.00  0.00    +0.000 C 
BRANCH   7   8
ATOM      8  C   UNL     1       1.134   2.729  19.466  0.00  0.00    +0.000 C 
BRANCH   8   9
ATOM      9  C   UNL     1       1.380   2.756  20.971  0.00  0.00    +0.000 C 
BRANCH   9  10
ATOM     10  C   UNL     1       1.879   4.138  21.386  0.00  0.00    +0.000 C 
BRANCH  10  11
ATOM     11  C   UNL     1       1.315   5.229  20.485  0.00  0.00    +0.000 C 
BRANCH  11  12
ATOM     12  C   UNL     1       2.384   6.272  20.163  0.00  0.00    +0.000 C 
BRANCH  12  13
ATOM     13  C   UNL     1       1.789   7.677  20.179  0.00  0.00    +0.000 C 
BRANCH  13  15
ATOM     14  C   UNL     1       1.264   9.126  22.158  0.00  0.00    +0.000 C 
ATOM     15  C   UNL     1       0.873   7.880  21.382  0.00  0.00    +0.000 C 
ENDBRANCH  13  15
ENDBRANCH  12  13
ENDBRANCH  11  12
ENDBRANCH  10  11
ENDBRANCH   9  10
ENDBRANCH   8   9
ENDBRANCH   7   8
ENDBRANCH   1   7
BRANCH   4  16
ATOM     16  C   UNL     1       6.211   6.367  17.537  0.00  0.00    +0.000 C 
BRANCH  16  17
ATOM     17  O   UNL     1       6.662   6.276  16.183  0.00  0.00    +0.000 OA
BRANCH  17  18
ATOM     18  C   UNL     1       7.392   5.176  15.897  0.00  0.00    +0.000 C 
ATOM     19  O   UNL     1       8.031   4.499  16.692  0.00  0.00    +0.000 OA
BRANCH  18  20
ATOM     20  C   UNL     1       7.266   4.803  14.474  0.00  0.00    +0.000 A 
ATOM     21  C   UNL     1       7.942   5.604  13.539  0.00  0.00    +0.000 A 
ATOM     22  C   UNL     1       7.810   5.364  12.167  0.00  0.00    +0.000 A 
ATOM     23  C   UNL     1       6.996   4.326  11.716  0.00  0.00    +0.000 A 
ATOM     24  C   UNL     1       6.330   3.533  12.645  0.00  0.00    +0.000 A 
ATOM     25  C   UNL     1       6.459   3.761  14.017  0.00  0.00    +0.000 A 
BRANCH  24  26
ATOM     26  O   UNL     1       5.503   2.513  12.251  0.00  0.00    +0.000 OA
ATOM     27  H   UNL     1       4.929   2.844  11.539  0.00  0.00    +0.000 HD
ENDBRANCH  24  26
BRANCH  25  28
ATOM     28  O   UNL     1       5.743   2.963  14.867  0.00  0.00    +0.000 OA
ATOM     29  H   UNL     1       5.483   2.188  14.329  0.00  0.00    +0.000 HD
ENDBRANCH  25  28
ENDBRANCH  18  20
ENDBRANCH  17  18
ENDBRANCH  16  17
ENDBRANCH   4  16
TORSDOF 14
ENDMDL
MODEL 7
REMARK VINA RESULT:      -6.8      0.957      2.347
REMARK  Name = 
REMARK  15 active torsions:
REMARK  status: ('A' for Active; 'I' for Inactive)
REMARK    1  A    between atoms: C_1  and  C_2
REMARK    2  A    between atoms: C_2  and  C_3
REMARK    3  A    between atoms: C_3  and  C_4
REMARK    4  A    between atoms: C_4  and  C_5
REMARK    5  A    between atoms: C_5  and  C_6
REMARK    6  A    between atoms: C_6  and  C_7
REMARK    7  A    between atoms: C_7  and  C_8
REMARK    8  A    between atoms: C_8  and  C_9
REMARK    9  A    between atoms: C_9  and  C_10
REMARK   10  A    between atoms: C_13  and  C_14
REMARK   11  A    between atoms: C_14  and  O_15
REMARK   12  A    between atoms: O_15  and  C_16
REMARK   13  A    between atoms: C_16  and  C_18
REMARK   14  A    between atoms: C_22  and  O_23
REMARK   15  A    between atoms: C_24  and  O_25
REMARK                            x       y       z     vdW  Elec       q    Type
REMARK                         _______ _______ _______ _____ _____    ______ ____
ROOT
ATOM      1  C   UNL     1       1.934   7.235  19.924  0.00  0.00    +0.000 A 
ATOM      2  C   UNL     1       1.320   7.551  21.145  0.00  0.00    +0.000 A 
ATOM      3  C   UNL     1       0.679   8.776  21.322  0.00  0.00    +0.000 A 
ATOM      4  C   UNL     1       0.655   9.716  20.288  0.00  0.00    +0.000 A 
ATOM      5  C   UNL     1       1.279   9.408  19.072  0.00  0.00    +0.000 A 
ATOM      6  C   UNL     1       1.912   8.177  18.891  0.00  0.00    +0.000 A 
ENDROOT
BRANCH   1   7
ATOM      7  C   UNL     1       2.603   5.896  19.734  0.00  0.00    +0.000 C 
BRANCH   7   8
ATOM      8  C   UNL     1       2.150   4.899  20.801  0.00  0.00    +0.000 C 
BRANCH   8   9
ATOM      9  C   UNL     1       0.969   4.054  20.334  0.00  0.00    +0.000 C 
BRANCH   9  10
ATOM     10  C   UNL     1       1.176   3.643  18.878  0.00  0.00    +0.000 C 
BRANCH  10  11
ATOM     11  C   UNL     1       1.710   2.221  18.768  0.00  0.00    +0.000 C 
BRANCH  11  12
ATOM     12  C   UNL     1       2.956   2.177  17.886  0.00  0.00    +0.000 C 
BRANCH  12  13
ATOM     13  C   UNL     1       3.070   3.448  17.050  0.00  0.00    +0.000 C 
BRANCH  13  15
ATOM     14  C   UNL     1       4.679   5.353  16.777  0.00  0.00    +0.000 C 
ATOM     15  C   UNL     1       4.528   3.843  16.832  0.00  0.00    +0.000 C 
ENDBRANCH  13  15
ENDBRANCH  12  13
ENDBRANCH  11  12
ENDBRANCH  10  11
ENDBRANCH   9  10
ENDBRANCH   8   9
ENDBRANCH   7   8
ENDBRANCH   1   7
BRANCH   4  16
ATOM     16  C   UNL     1       0.010  11.063  20.495  0.00  0.00    +0.000 C 
BRANCH  16  17
ATOM     17  O   UNL     1      -1.287  11.075  19.893  0.00  0.00    +0.000 OA
BRANCH  17  18
ATOM     18  C   UNL     1      -1.418  11.906  18.836  0.00  0.00    +0.000 C 
ATOM     19  O   UNL     1      -0.794  12.940  18.641  0.00  0.00    +0.000 OA
BRANCH  18  20
ATOM     20  C   UNL     1      -2.375  11.369  17.847  0.00  0.00    +0.000 A 
ATOM     21  C   UNL     1      -1.858  10.534  16.842  0.00  0.00    +0.000 A 
ATOM     22  C   UNL     1      -2.685  10.049  15.825  0.00  0.00    +0.000 A 
ATOM     23  C   UNL     1      -4.035  10.396  15.796  0.00  0.00    +0.000 A 
ATOM     24  C   UNL     1      -4.544  11.220  16.795  0.00  0.00    +0.000 A 
ATOM     25  C   UNL     1      -3.727  11.707  17.819  0.00  0.00    +0.000 A 
BRANCH  24  26
ATOM     26  O   UNL     1      -5.859  11.606  16.801  0.00  0.00    +0.000 OA
ATOM     27  H   UNL     1      -5.891  12.579  16.796  0.00  0.00    +0.000 HD
ENDBRANCH  24  26
BRANCH  25  28
ATOM     28  O   UNL     1      -4.293  12.543  18.743  0.00  0.00    +0.000 OA
ATOM     29  H   UNL     1      -5.211  12.223  18.846  0.00  0.00    +0.000 HD
ENDBRANCH  25  28
ENDBRANCH  18  20
ENDBRANCH  17  18
ENDBRANCH  16  17
ENDBRANCH   4  16
TORSDOF 14
ENDMDL
MODEL 8
REMARK VINA RESULT:      -6.8      4.419      9.085
REMARK  Name = 
REMARK  15 active torsions:
REMARK  status: ('A' for Active; 'I' for Inactive)
REMARK    1  A    between atoms: C_1  and  C_2
REMARK    2  A    between atoms: C_2  and  C_3
REMARK    3  A    between atoms: C_3  and  C_4
REMARK    4  A    between atoms: C_4  and  C_5
REMARK    5  A    between atoms: C_5  and  C_6
REMARK    6  A    between atoms: C_6  and  C_7
REMARK    7  A    between atoms: C_7  and  C_8
REMARK    8  A    between atoms: C_8  and  C_9
REMARK    9  A    between atoms: C_9  and  C_10
REMARK   10  A    between atoms: C_13  and  C_14
REMARK   11  A    between atoms: C_14  and  O_15
REMARK   12  A    between atoms: O_15  and  C_16
REMARK   13  A    between atoms: C_16  and  C_18
REMARK   14  A    between atoms: C_22  and  O_23
REMARK   15  A    between atoms: C_24  and  O_25
REMARK                            x       y       z     vdW  Elec       q    Type
REMARK                         _______ _______ _______ _____ _____    ______ ____
ROOT
ATOM      1  C   UNL     1       1.789   6.984  20.353  0.00  0.00    +0.000 A 
ATOM      2  C   UNL     1       2.201   7.165  19.024  0.00  0.00    +0.000 A 
ATOM      3  C   UNL     1       2.263   6.085  18.146  0.00  0.00    +0.000 A 
ATOM      4  C   UNL     1       1.930   4.799  18.583  0.00  0.00    +0.000 A 
ATOM      5  C   UNL     1       1.530   4.614  19.913  0.00  0.00    +0.000 A 
ATOM      6  C   UNL     1       1.459   5.697  20.791  0.00  0.00    +0.000 A 
ENDROOT
BRANCH   1   7
ATOM      7  C   UNL     1       1.701   8.164  21.289  0.00  0.00    +0.000 C 
BRANCH   7   8
ATOM      8  C   UNL     1       0.245   8.552  21.547  0.00  0.00    +0.000 C 
BRANCH   8   9
ATOM      9  C   UNL     1       0.106   9.521  22.716  0.00  0.00    +0.000 C 
BRANCH   9  10
ATOM     10  C   UNL     1      -0.409  10.867  22.209  0.00  0.00    +0.000 C 
BRANCH  10  11
ATOM     11  C   UNL     1       0.452  11.405  21.075  0.00  0.00    +0.000 C 
BRANCH  11  12
ATOM     12  C   UNL     1      -0.409  12.099  20.022  0.00  0.00    +0.000 C 
BRANCH  12  13
ATOM     13  C   UNL     1      -1.408  11.121  19.413  0.00  0.00    +0.000 C 
BRANCH  13  15
ATOM     14  C   UNL     1      -1.761   9.956  17.219  0.00  0.00    +0.000 C 
ATOM     15  C   UNL     1      -0.763  10.273  18.320  0.00  0.00    +0.000 C 
ENDBRANCH  13  15
ENDBRANCH  12  13
ENDBRANCH  11  12
ENDBRANCH  10  11
ENDBRANCH   9  10
ENDBRANCH   8   9
ENDBRANCH   7   8
ENDBRANCH   1   7
BRANCH   4  16
ATOM     16  C   UNL     1       2.048   3.621  17.650  0.00  0.00    +0.000 C 
BRANCH  16  17
ATOM     17  O   UNL     1       3.392   3.517  17.172  0.00  0.00    +0.000 OA
BRANCH  17  18
ATOM     18  C   UNL     1       4.322   3.294  18.126  0.00  0.00    +0.000 C 
ATOM     19  O   UNL     1       4.303   2.405  18.968  0.00  0.00    +0.000 OA
BRANCH  18  20
ATOM     20  C   UNL     1       5.463   4.222  17.990  0.00  0.00    +0.000 A 
ATOM     21  C   UNL     1       5.888   4.889  19.151  0.00  0.00    +0.000 A 
ATOM     22  C   UNL     1       6.910   5.842  19.090  0.00  0.00    +0.000 A 
ATOM     23  C   UNL     1       7.514   6.142  17.870  0.00  0.00    +0.000 A 
ATOM     24  C   UNL     1       7.093   5.476  16.723  0.00  0.00    +0.000 A 
ATOM     25  C   UNL     1       6.075   4.519  16.773  0.00  0.00    +0.000 A 
BRANCH  24  26
ATOM     26  O   UNL     1       7.640   5.749  15.497  0.00  0.00    +0.000 OA
ATOM     27  H   UNL     1       8.029   6.640  15.528  0.00  0.00    +0.000 HD
ENDBRANCH  24  26
BRANCH  25  28
ATOM     28  O   UNL     1       5.690   3.936  15.597  0.00  0.00    +0.000 OA
ATOM     29  H   UNL     1       6.360   3.244  15.425  0.00  0.00    +0.000 HD
ENDBRANCH  25  28
ENDBRANCH  18  20
ENDBRANCH  17  18
ENDBRANCH  16  17
ENDBRANCH   4  16
TORSDOF 14
ENDMDL
MODEL 9
REMARK VINA RESULT:      -6.7      1.109      1.677
REMARK  Name = 
REMARK  15 active torsions:
REMARK  status: ('A' for Active; 'I' for Inactive)
REMARK    1  A    between atoms: C_1  and  C_2
REMARK    2  A    between atoms: C_2  and  C_3
REMARK    3  A    between atoms: C_3  and  C_4
REMARK    4  A    between atoms: C_4  and  C_5
REMARK    5  A    between atoms: C_5  and  C_6
REMARK    6  A    between atoms: C_6  and  C_7
REMARK    7  A    between atoms: C_7  and  C_8
REMARK    8  A    between atoms: C_8  and  C_9
REMARK    9  A    between atoms: C_9  and  C_10
REMARK   10  A    between atoms: C_13  and  C_14
REMARK   11  A    between atoms: C_14  and  O_15
REMARK   12  A    between atoms: O_15  and  C_16
REMARK   13  A    between atoms: C_16  and  C_18
REMARK   14  A    between atoms: C_22  and  O_23
REMARK   15  A    between atoms: C_24  and  O_25
REMARK                            x       y       z     vdW  Elec       q    Type
REMARK                         _______ _______ _______ _____ _____    ______ ____
ROOT
ATOM      1  C   UNL     1       2.724   7.170  18.940  0.00  0.00    +0.000 A 
ATOM      2  C   UNL     1       1.987   7.570  20.065  0.00  0.00    +0.000 A 
ATOM      3  C   UNL     1       1.267   8.763  20.055  0.00  0.00    +0.000 A 
ATOM      4  C   UNL     1       1.284   9.588  18.926  0.00  0.00    +0.000 A 
ATOM      5  C   UNL     1       2.028   9.197  17.806  0.00  0.00    +0.000 A 
ATOM      6  C   UNL     1       2.742   7.997  17.812  0.00  0.00    +0.000 A 
ENDROOT
BRANCH   1   7
ATOM      7  C   UNL     1       3.480   5.864  18.951  0.00  0.00    +0.000 C 
BRANCH   7   8
ATOM      8  C   UNL     1       4.403   5.754  17.738  0.00  0.00    +0.000 C 
BRANCH   8   9
ATOM      9  C   UNL     1       4.170   4.468  16.952  0.00  0.00    +0.000 C 
BRANCH   9  10
ATOM     10  C   UNL     1       2.887   3.796  17.435  0.00  0.00    +0.000 C 
BRANCH  10  11
ATOM     11  C   UNL     1       3.152   2.386  17.946  0.00  0.00    +0.000 C 
BRANCH  11  12
ATOM     12  C   UNL     1       2.324   2.099  19.197  0.00  0.00    +0.000 C 
BRANCH  12  13
ATOM     13  C   UNL     1       3.056   2.571  20.449  0.00  0.00    +0.000 C 
BRANCH  13  15
ATOM     14  C   UNL     1       0.927   3.894  20.550  0.00  0.00    +0.000 C 
ATOM     15  C   UNL     1       2.166   3.460  21.313  0.00  0.00    +0.000 C 
ENDBRANCH  13  15
ENDBRANCH  12  13
ENDBRANCH  11  12
ENDBRANCH  10  11
ENDBRANCH   9  10
ENDBRANCH   8   9
ENDBRANCH   7   8
ENDBRANCH   1   7
BRANCH   4  16
ATOM     16  C   UNL     1       0.550  10.905  18.933  0.00  0.00    +0.000 C 
BRANCH  16  17
ATOM     17  O   UNL     1      -0.856  10.674  19.069  0.00  0.00    +0.000 OA
BRANCH  17  18
ATOM     18  C   UNL     1      -1.594  11.776  19.325  0.00  0.00    +0.000 C 
ATOM     19  O   UNL     1      -1.256  12.737  20.003  0.00  0.00    +0.000 OA
BRANCH  18  20
ATOM     20  C   UNL     1      -2.878  11.742  18.597  0.00  0.00    +0.000 A 
ATOM     21  C   UNL     1      -4.025  12.143  19.302  0.00  0.00    +0.000 A 
ATOM     22  C   UNL     1      -5.289  12.065  18.708  0.00  0.00    +0.000 A 
ATOM     23  C   UNL     1      -5.421  11.581  17.407  0.00  0.00    +0.000 A 
ATOM     24  C   UNL     1      -4.282  11.188  16.711  0.00  0.00    +0.000 A 
ATOM     25  C   UNL     1      -3.014  11.266  17.294  0.00  0.00    +0.000 A 
BRANCH  24  26
ATOM     26  O   UNL     1      -4.360  10.687  15.438  0.00  0.00    +0.000 OA
ATOM     27  H   UNL     1      -3.468  10.694  15.052  0.00  0.00    +0.000 HD
ENDBRANCH  24  26
BRANCH  25  28
ATOM     28  O   UNL     1      -1.947  10.825  16.560  0.00  0.00    +0.000 OA
ATOM     29  H   UNL     1      -1.258  10.606  17.219  0.00  0.00    +0.000 HD
ENDBRANCH  25  28
ENDBRANCH  18  20
ENDBRANCH  17  18
ENDBRANCH  16  17
ENDBRANCH   4  16
TORSDOF 14
ENDMDL
