MODEL 1
REMARK VINA RESULT:      -6.9      0.000      0.000
REMARK  Name = 
REMARK  3 active torsions:
REMARK  status: ('A' for Active; 'I' for Inactive)
REMARK    1  A    between atoms: C_2  and  C_3
REMARK    2  A    between atoms: C_18  and  C_19
REMARK    3  A    between atoms: C_25  and  C_26
REMARK                            x       y       z     vdW  Elec       q    Type
REMARK                         _______ _______ _______ _____ _____    ______ ____
ROOT
ATOM      1  O   UNL     1      -1.982  14.094  20.865  0.00  0.00    +0.000 OA
ATOM      2  C   UNL     1      -1.449  13.260  21.598  0.00  0.00    +0.000 C 
ATOM      3  N   UNL     1      -0.516  12.370  21.092  0.00  0.00    +0.000 N 
ATOM      4  C   UNL     1       0.115  11.277  21.846  0.00  0.00    +0.000 C 
ATOM      5  C   UNL     1      -0.229   9.886  21.277  0.00  0.00    +0.000 C 
ATOM      6  N   UNL     1       0.004   9.843  19.839  0.00  0.00    +0.000 N 
ATOM      7  C   UNL     1       1.010   9.051  19.355  0.00  0.00    +0.000 A 
ATOM      8  N   UNL     1       1.388   7.991  20.089  0.00  0.00    +0.000 NA
ATOM      9  C   UNL     1       2.362   7.197  19.598  0.00  0.00    +0.000 A 
ATOM     10  C   UNL     1       3.035   7.413  18.416  0.00  0.00    +0.000 A 
ATOM     11  C   UNL     1       2.597   8.549  17.765  0.00  0.00    +0.000 A 
ATOM     12  N   UNL     1       1.599   9.352  18.192  0.00  0.00    +0.000 NA
ATOM     13  C   UNL     1      -0.587  10.913  19.031  0.00  0.00    +0.000 C 
ATOM     14  C   UNL     1      -0.312  12.329  19.614  0.00  0.00    +0.000 C 
ENDROOT
BRANCH   2  15
ATOM     15  C   UNL     1      -1.837  13.213  23.091  0.00  0.00    +0.000 C 
ATOM     16  C   UNL     1      -3.369  13.147  23.284  0.00  0.00    +0.000 C 
ATOM     17  C   UNL     1      -4.138  14.401  22.876  0.00  0.00    +0.000 C 
ATOM     18  S   UNL     1      -3.539  15.866  23.676  0.00  0.00    +0.000 S 
ATOM     19  O   UNL     1      -3.957  17.013  22.894  0.00  0.00    +0.000 OA
ATOM     20  O   UNL     1      -3.879  15.769  25.083  0.00  0.00    +0.000 OA
ATOM     21  C   UNL     1      -1.768  15.733  23.538  0.00  0.00    +0.000 C 
ATOM     22  C   UNL     1      -1.256  14.357  23.936  0.00  0.00    +0.000 C 
ENDBRANCH   2  15
BRANCH  14  23
ATOM     23  C   UNL     1       1.054  12.870  19.232  0.00  0.00    +0.000 A 
ATOM     24  C   UNL     1       1.887  12.542  18.175  0.00  0.00    +0.000 A 
ATOM     25  C   UNL     1       3.070  13.336  18.128  0.00  0.00    +0.000 A 
ATOM     26  C   UNL     1       3.092  14.250  19.145  0.00  0.00    +0.000 A 
ATOM     27  F   UNL     1       4.065  15.108  19.307  0.00  0.00    +0.000 F 
ATOM     28  S   UNL     1       1.739  14.160  20.156  0.00  0.00    +0.000 S 
ENDBRANCH  14  23
BRANCH  10  29
ATOM     29  C   UNL     1       4.124   6.527  17.878  0.00  0.00    +0.000 C 
ATOM     30  C   UNL     1       4.609   5.304  18.620  0.00  0.00    +0.000 C 
ATOM     31  C   UNL     1       3.738   5.141  17.412  0.00  0.00    +0.000 C 
ENDBRANCH  10  29
TORSDOF 3
ENDMDL
MODEL 2
REMARK VINA RESULT:      -6.8      4.496      7.095
REMARK  Name = 
REMARK  3 active torsions:
REMARK  status: ('A' for Active; 'I' for Inactive)
REMARK    1  A    between atoms: C_2  and  C_3
REMARK    2  A    between atoms: C_18  and  C_19
REMARK    3  A    between atoms: C_25  and  C_26
REMARK                            x       y       z     vdW  Elec       q    Type
REMARK                         _______ _______ _______ _____ _____    ______ ____
ROOT
ATOM      1  O   UNL     1       1.480   8.274  21.095  0.00  0.00    +0.000 OA
ATOM      2  C   UNL     1       1.500   8.598  19.907  0.00  0.00    +0.000 C 
ATOM      3  N   UNL     1       2.074   7.767  18.959  0.00  0.00    +0.000 N 
ATOM      4  C   UNL     1       2.238   8.086  17.533  0.00  0.00    +0.000 C 
ATOM      5  C   UNL     1       3.717   8.148  17.104  0.00  0.00    +0.000 C 
ATOM      6  N   UNL     1       4.434   6.957  17.544  0.00  0.00    +0.000 N 
ATOM      7  C   UNL     1       4.894   6.077  16.603  0.00  0.00    +0.000 A 
ATOM      8  N   UNL     1       5.143   6.544  15.368  0.00  0.00    +0.000 NA
ATOM      9  C   UNL     1       5.621   5.679  14.449  0.00  0.00    +0.000 A 
ATOM     10  C   UNL     1       5.835   4.336  14.666  0.00  0.00    +0.000 A 
ATOM     11  C   UNL     1       5.508   3.956  15.953  0.00  0.00    +0.000 A 
ATOM     12  N   UNL     1       5.067   4.788  16.920  0.00  0.00    +0.000 NA
ATOM     13  C   UNL     1       4.301   6.577  18.953  0.00  0.00    +0.000 C 
ATOM     14  C   UNL     1       2.821   6.566  19.436  0.00  0.00    +0.000 C 
ENDROOT
BRANCH   2  15
ATOM     15  C   UNL     1       0.881   9.947  19.484  0.00  0.00    +0.000 C 
ATOM     16  C   UNL     1       1.474  11.127  20.287  0.00  0.00    +0.000 C 
ATOM     17  C   UNL     1       1.120  11.155  21.771  0.00  0.00    +0.000 C 
ATOM     18  S   UNL     1      -0.630  11.107  22.063  0.00  0.00    +0.000 S 
ATOM     19  O   UNL     1      -0.851  10.645  23.420  0.00  0.00    +0.000 OA
ATOM     20  O   UNL     1      -1.186  12.369  21.612  0.00  0.00    +0.000 OA
ATOM     21  C   UNL     1      -1.210   9.837  20.957  0.00  0.00    +0.000 C 
ATOM     22  C   UNL     1      -0.653   9.993  19.550  0.00  0.00    +0.000 C 
ENDBRANCH   2  15
BRANCH  14  23
ATOM     23  C   UNL     1       2.091   5.285  19.077  0.00  0.00    +0.000 A 
ATOM     24  C   UNL     1       1.828   4.716  17.841  0.00  0.00    +0.000 A 
ATOM     25  C   UNL     1       1.166   3.457  17.935  0.00  0.00    +0.000 A 
ATOM     26  C   UNL     1       0.959   3.104  19.239  0.00  0.00    +0.000 A 
ATOM     27  F   UNL     1       0.385   1.982  19.588  0.00  0.00    +0.000 F 
ATOM     28  S   UNL     1       1.522   4.255  20.342  0.00  0.00    +0.000 S 
ENDBRANCH  14  23
BRANCH  10  29
ATOM     29  C   UNL     1       6.363   3.377  13.635  0.00  0.00    +0.000 C 
ATOM     30  C   UNL     1       5.717   3.216  12.279  0.00  0.00    +0.000 C 
ATOM     31  C   UNL     1       7.013   3.958  12.400  0.00  0.00    +0.000 C 
ENDBRANCH  10  29
TORSDOF 3
ENDMDL
MODEL 3
REMARK VINA RESULT:      -6.5      1.160      1.287
REMARK  Name = 
REMARK  3 active torsions:
REMARK  status: ('A' for Active; 'I' for Inactive)
REMARK    1  A    between atoms: C_2  and  C_3
REMARK    2  A    between atoms: C_18  and  C_19
REMARK    3  A    between atoms: C_25  and  C_26
REMARK                            x       y       z     vdW  Elec       q    Type
REMARK                         _______ _______ _______ _____ _____    ______ ____
ROOT
ATOM      1  O   UNL     1      -1.984  15.168  20.738  0.00  0.00    +0.000 OA
ATOM      2  C   UNL     1      -1.559  14.413  21.614  0.00  0.00    +0.000 C 
ATOM      3  N   UNL     1      -0.753  13.336  21.286  0.00  0.00    +0.000 N 
ATOM      4  C   UNL     1      -0.264  12.318  22.228  0.00  0.00    +0.000 C 
ATOM      5  C   UNL     1      -0.789  10.906  21.902  0.00  0.00    +0.000 C 
ATOM      6  N   UNL     1      -0.571  10.584  20.498  0.00  0.00    +0.000 N 
ATOM      7  C   UNL     1       0.322   9.598  20.176  0.00  0.00    +0.000 A 
ATOM      8  N   UNL     1       0.563   8.641  21.088  0.00  0.00    +0.000 NA
ATOM      9  C   UNL     1       1.423   7.655  20.758  0.00  0.00    +0.000 A 
ATOM     10  C   UNL     1       2.113   7.575  19.569  0.00  0.00    +0.000 A 
ATOM     11  C   UNL     1       1.821   8.627  18.723  0.00  0.00    +0.000 A 
ATOM     12  N   UNL     1       0.938   9.614  18.988  0.00  0.00    +0.000 NA
ATOM     13  C   UNL     1      -1.023  11.564  19.507  0.00  0.00    +0.000 C 
ATOM     14  C   UNL     1      -0.563  13.013  19.841  0.00  0.00    +0.000 C 
ENDROOT
BRANCH   2  15
ATOM     15  C   UNL     1      -1.942  14.676  23.085  0.00  0.00    +0.000 C 
ATOM     16  C   UNL     1      -3.159  13.828  23.523  0.00  0.00    +0.000 C 
ATOM     17  C   UNL     1      -4.485  14.191  22.861  0.00  0.00    +0.000 C 
ATOM     18  S   UNL     1      -4.904  15.905  23.053  0.00  0.00    +0.000 S 
ATOM     19  O   UNL     1      -5.860  16.257  22.021  0.00  0.00    +0.000 OA
ATOM     20  O   UNL     1      -5.212  16.128  24.453  0.00  0.00    +0.000 OA
ATOM     21  C   UNL     1      -3.380  16.757  22.694  0.00  0.00    +0.000 C 
ATOM     22  C   UNL     1      -2.191  16.153  23.424  0.00  0.00    +0.000 C 
ENDBRANCH   2  15
BRANCH  14  23
ATOM     23  C   UNL     1       0.859  13.299  19.395  0.00  0.00    +0.000 A 
ATOM     24  C   UNL     1       1.633  12.696  18.417  0.00  0.00    +0.000 A 
ATOM     25  C   UNL     1       2.910  13.309  18.257  0.00  0.00    +0.000 A 
ATOM     26  C   UNL     1       3.061  14.365  19.111  0.00  0.00    +0.000 A 
ATOM     27  F   UNL     1       4.140  15.102  19.145  0.00  0.00    +0.000 F 
ATOM     28  S   UNL     1       1.716  14.621  20.105  0.00  0.00    +0.000 S 
ENDBRANCH  14  23
BRANCH  10  29
ATOM     29  C   UNL     1       3.074   6.476  19.211  0.00  0.00    +0.000 C 
ATOM     30  C   UNL     1       2.944   5.078  19.767  0.00  0.00    +0.000 C 
ATOM     31  C   UNL     1       2.564   5.347  18.343  0.00  0.00    +0.000 C 
ENDBRANCH  10  29
TORSDOF 3
ENDMDL
MODEL 4
REMARK VINA RESULT:      -6.3      4.663      8.201
REMARK  Name = 
REMARK  3 active torsions:
REMARK  status: ('A' for Active; 'I' for Inactive)
REMARK    1  A    between atoms: C_2  and  C_3
REMARK    2  A    between atoms: C_18  and  C_19
REMARK    3  A    between atoms: C_25  and  C_26
REMARK                            x       y       z     vdW  Elec       q    Type
REMARK                         _______ _______ _______ _____ _____    ______ ____
ROOT
ATOM      1  O   UNL     1       2.542  13.330  19.658  0.00  0.00    +0.000 OA
ATOM      2  C   UNL     1       2.200  13.950  20.666  0.00  0.00    +0.000 C 
ATOM      3  N   UNL     1       0.963  13.725  21.247  0.00  0.00    +0.000 N 
ATOM      4  C   UNL     1       0.411  14.466  22.390  0.00  0.00    +0.000 C 
ATOM      5  C   UNL     1      -0.872  15.241  22.031  0.00  0.00    +0.000 C 
ATOM      6  N   UNL     1      -1.828  14.375  21.354  0.00  0.00    +0.000 N 
ATOM      7  C   UNL     1      -2.999  14.058  21.987  0.00  0.00    +0.000 A 
ATOM      8  N   UNL     1      -3.467  14.910  22.915  0.00  0.00    +0.000 NA
ATOM      9  C   UNL     1      -4.634  14.608  23.520  0.00  0.00    +0.000 A 
ATOM     10  C   UNL     1      -5.369  13.465  23.291  0.00  0.00    +0.000 A 
ATOM     11  C   UNL     1      -4.779  12.644  22.351  0.00  0.00    +0.000 A 
ATOM     12  N   UNL     1      -3.635  12.919  21.688  0.00  0.00    +0.000 NA
ATOM     13  C   UNL     1      -1.337  13.597  20.213  0.00  0.00    +0.000 C 
ATOM     14  C   UNL     1      -0.006  12.852  20.522  0.00  0.00    +0.000 C 
ENDROOT
BRANCH   2  15
ATOM     15  C   UNL     1       3.166  14.990  21.273  0.00  0.00    +0.000 C 
ATOM     16  C   UNL     1       2.578  16.419  21.220  0.00  0.00    +0.000 C 
ATOM     17  C   UNL     1       2.430  17.016  19.823  0.00  0.00    +0.000 C 
ATOM     18  S   UNL     1       3.947  17.004  18.904  0.00  0.00    +0.000 S 
ATOM     19  O   UNL     1       3.625  17.108  17.495  0.00  0.00    +0.000 OA
ATOM     20  O   UNL     1       4.847  17.956  19.529  0.00  0.00    +0.000 OA
ATOM     21  C   UNL     1       4.604  15.373  19.191  0.00  0.00    +0.000 C 
ATOM     22  C   UNL     1       4.575  14.985  20.661  0.00  0.00    +0.000 C 
ENDBRANCH   2  15
BRANCH  14  23
ATOM     23  C   UNL     1      -0.220  11.540  21.254  0.00  0.00    +0.000 A 
ATOM     24  C   UNL     1      -0.552  11.292  22.577  0.00  0.00    +0.000 A 
ATOM     25  C   UNL     1      -0.728   9.906  22.859  0.00  0.00    +0.000 A 
ATOM     26  C   UNL     1      -0.536   9.146  21.739  0.00  0.00    +0.000 A 
ATOM     27  F   UNL     1      -0.660   7.844  21.735  0.00  0.00    +0.000 F 
ATOM     28  S   UNL     1      -0.134  10.057  20.372  0.00  0.00    +0.000 S 
ENDBRANCH  14  23
BRANCH  10  29
ATOM     29  C   UNL     1      -6.667  13.133  23.973  0.00  0.00    +0.000 C 
ATOM     30  C   UNL     1      -7.774  14.148  24.137  0.00  0.00    +0.000 C 
ATOM     31  C   UNL     1      -7.913  13.057  23.118  0.00  0.00    +0.000 C 
ENDBRANCH  10  29
TORSDOF 3
ENDMDL
MODEL 5
REMARK VINA RESULT:      -6.2      4.484      9.035
REMARK  Name = 
REMARK  3 active torsions:
REMARK  status: ('A' for Active; 'I' for Inactive)
REMARK    1  A    between atoms: C_2  and  C_3
REMARK    2  A    between atoms: C_18  and  C_19
REMARK    3  A    between atoms: C_25  and  C_26
REMARK                            x       y       z     vdW  Elec       q    Type
REMARK                         _______ _______ _______ _____ _____    ______ ____
ROOT
ATOM      1  O   UNL     1       2.915   8.048  18.153  0.00  0.00    +0.000 OA
ATOM      2  C   UNL     1       2.247   7.693  19.126  0.00  0.00    +0.000 C 
ATOM      3  N   UNL     1       1.277   8.527  19.657  0.00  0.00    +0.000 N 
ATOM      4  C   UNL     1       0.486   8.252  20.865  0.00  0.00    +0.000 C 
ATOM      5  C   UNL     1       0.740   9.277  21.988  0.00  0.00    +0.000 C 
ATOM      6  N   UNL     1       0.620  10.639  21.483  0.00  0.00    +0.000 N 
ATOM      7  C   UNL     1      -0.415  11.419  21.922  0.00  0.00    +0.000 A 
ATOM      8  N   UNL     1      -0.950  11.141  23.123  0.00  0.00    +0.000 NA
ATOM      9  C   UNL     1      -1.954  11.927  23.566  0.00  0.00    +0.000 A 
ATOM     10  C   UNL     1      -2.506  12.973  22.861  0.00  0.00    +0.000 A 
ATOM     11  C   UNL     1      -1.910  13.145  21.627  0.00  0.00    +0.000 A 
ATOM     12  N   UNL     1      -0.877  12.413  21.156  0.00  0.00    +0.000 NA
ATOM     13  C   UNL     1       1.374  10.974  20.272  0.00  0.00    +0.000 C 
ATOM     14  C   UNL     1       1.189   9.924  19.139  0.00  0.00    +0.000 C 
ENDROOT
BRANCH   2  15
ATOM     15  C   UNL     1       2.508   6.307  19.752  0.00  0.00    +0.000 C 
ATOM     16  C   UNL     1       4.017   5.976  19.805  0.00  0.00    +0.000 C 
ATOM     17  C   UNL     1       4.689   5.758  18.452  0.00  0.00    +0.000 C 
ATOM     18  S   UNL     1       3.881   4.518  17.473  0.00  0.00    +0.000 S 
ATOM     19  O   UNL     1       4.248   4.725  16.086  0.00  0.00    +0.000 OA
ATOM     20  O   UNL     1       4.106   3.236  18.114  0.00  0.00    +0.000 OA
ATOM     21  C   UNL     1       2.150   4.908  17.639  0.00  0.00    +0.000 C 
ATOM     22  C   UNL     1       1.746   5.153  19.084  0.00  0.00    +0.000 C 
ENDBRANCH   2  15
BRANCH  14  23
ATOM     23  C   UNL     1      -0.084  10.135  18.339  0.00  0.00    +0.000 A 
ATOM     24  C   UNL     1      -0.872   9.229  17.649  0.00  0.00    +0.000 A 
ATOM     25  C   UNL     1      -2.036   9.821  17.077  0.00  0.00    +0.000 A 
ATOM     26  C   UNL     1      -2.100  11.157  17.362  0.00  0.00    +0.000 A 
ATOM     27  F   UNL     1      -3.084  11.921  16.963  0.00  0.00    +0.000 F 
ATOM     28  S   UNL     1      -0.791  11.710  18.278  0.00  0.00    +0.000 S 
ENDBRANCH  14  23
BRANCH  10  29
ATOM     29  C   UNL     1      -3.628  13.842  23.359  0.00  0.00    +0.000 C 
ATOM     30  C   UNL     1      -4.647  14.455  22.427  0.00  0.00    +0.000 C 
ATOM     31  C   UNL     1      -5.033  13.289  23.285  0.00  0.00    +0.000 C 
ENDBRANCH  10  29
TORSDOF 3
ENDMDL
MODEL 6
REMARK VINA RESULT:      -6.2      3.598      5.081
REMARK  Name = 
REMARK  3 active torsions:
REMARK  status: ('A' for Active; 'I' for Inactive)
REMARK    1  A    between atoms: C_2  and  C_3
REMARK    2  A    between atoms: C_18  and  C_19
REMARK    3  A    between atoms: C_25  and  C_26
REMARK                            x       y       z     vdW  Elec       q    Type
REMARK                         _______ _______ _______ _____ _____    ______ ____
ROOT
ATOM      1  O   UNL     1      -0.793  14.539  23.933  0.00  0.00    +0.000 OA
ATOM      2  C   UNL     1      -1.881  14.005  23.715  0.00  0.00    +0.000 C 
ATOM      3  N   UNL     1      -2.072  13.226  22.586  0.00  0.00    +0.000 N 
ATOM      4  C   UNL     1      -3.345  12.617  22.175  0.00  0.00    +0.000 C 
ATOM      5  C   UNL     1      -3.852  13.156  20.822  0.00  0.00    +0.000 C 
ATOM      6  N   UNL     1      -2.802  13.098  19.814  0.00  0.00    +0.000 N 
ATOM      7  C   UNL     1      -2.941  12.235  18.762  0.00  0.00    +0.000 A 
ATOM      8  N   UNL     1      -4.184  11.876  18.399  0.00  0.00    +0.000 NA
ATOM      9  C   UNL     1      -4.320  11.046  17.344  0.00  0.00    +0.000 A 
ATOM     10  C   UNL     1      -3.277  10.498  16.631  0.00  0.00    +0.000 A 
ATOM     11  C   UNL     1      -2.047  10.901  17.112  0.00  0.00    +0.000 A 
ATOM     12  N   UNL     1      -1.857  11.761  18.136  0.00  0.00    +0.000 NA
ATOM     13  C   UNL     1      -1.502  13.676  20.167  0.00  0.00    +0.000 C 
ATOM     14  C   UNL     1      -0.990  13.201  21.558  0.00  0.00    +0.000 C 
ENDROOT
BRANCH   2  15
ATOM     15  C   UNL     1      -3.037  14.217  24.715  0.00  0.00    +0.000 C 
ATOM     16  C   UNL     1      -4.305  14.765  24.019  0.00  0.00    +0.000 C 
ATOM     17  C   UNL     1      -4.193  16.187  23.475  0.00  0.00    +0.000 C 
ATOM     18  S   UNL     1      -3.685  17.358  24.708  0.00  0.00    +0.000 S 
ATOM     19  O   UNL     1      -3.139  18.519  24.033  0.00  0.00    +0.000 OA
ATOM     20  O   UNL     1      -4.774  17.499  25.656  0.00  0.00    +0.000 OA
ATOM     21  C   UNL     1      -2.344  16.537  25.546  0.00  0.00    +0.000 C 
ATOM     22  C   UNL     1      -2.683  15.103  25.920  0.00  0.00    +0.000 C 
ENDBRANCH   2  15
BRANCH  14  23
ATOM     23  C   UNL     1      -0.311  11.845  21.506  0.00  0.00    +0.000 A 
ATOM     24  C   UNL     1       0.644  11.350  20.632  0.00  0.00    +0.000 A 
ATOM     25  C   UNL     1       1.080  10.035  20.966  0.00  0.00    +0.000 A 
ATOM     26  C   UNL     1       0.451   9.577  22.090  0.00  0.00    +0.000 A 
ATOM     27  F   UNL     1       0.694   8.402  22.610  0.00  0.00    +0.000 F 
ATOM     28  S   UNL     1      -0.656  10.681  22.735  0.00  0.00    +0.000 S 
ENDBRANCH  14  23
BRANCH  10  29
ATOM     29  C   UNL     1      -3.437   9.569  15.460  0.00  0.00    +0.000 C 
ATOM     30  C   UNL     1      -4.179   9.971  14.207  0.00  0.00    +0.000 C 
ATOM     31  C   UNL     1      -2.682   9.899  14.191  0.00  0.00    +0.000 C 
ENDBRANCH  10  29
TORSDOF 3
ENDMDL
MODEL 7
REMARK VINA RESULT:      -6.1      4.809      8.200
REMARK  Name = 
REMARK  3 active torsions:
REMARK  status: ('A' for Active; 'I' for Inactive)
REMARK    1  A    between atoms: C_2  and  C_3
REMARK    2  A    between atoms: C_18  and  C_19
REMARK    3  A    between atoms: C_25  and  C_26
REMARK                            x       y       z     vdW  Elec       q    Type
REMARK                         _______ _______ _______ _____ _____    ______ ____
ROOT
ATOM      1  O   UNL     1       2.758  13.615  20.243  0.00  0.00    +0.000 OA
ATOM      2  C   UNL     1       2.199  14.304  21.097  0.00  0.00    +0.000 C 
ATOM      3  N   UNL     1       0.878  14.068  21.439  0.00  0.00    +0.000 N 
ATOM      4  C   UNL     1       0.081  14.879  22.372  0.00  0.00    +0.000 C 
ATOM      5  C   UNL     1      -1.126  15.553  21.691  0.00  0.00    +0.000 C 
ATOM      6  N   UNL     1      -1.897  14.583  20.923  0.00  0.00    +0.000 N 
ATOM      7  C   UNL     1      -3.161  14.264  21.338  0.00  0.00    +0.000 A 
ATOM      8  N   UNL     1      -3.834  15.170  22.068  0.00  0.00    +0.000 NA
ATOM      9  C   UNL     1      -5.090  14.863  22.454  0.00  0.00    +0.000 A 
ATOM     10  C   UNL     1      -5.726  13.670  22.195  0.00  0.00    +0.000 A 
ATOM     11  C   UNL     1      -4.931  12.799  21.476  0.00  0.00    +0.000 A 
ATOM     12  N   UNL     1      -3.686  13.072  21.031  0.00  0.00    +0.000 NA
ATOM     13  C   UNL     1      -1.159  13.733  19.984  0.00  0.00    +0.000 C 
ATOM     14  C   UNL     1       0.104  13.087  20.623  0.00  0.00    +0.000 C 
ENDROOT
BRANCH   2  15
ATOM     15  C   UNL     1       2.987  15.441  21.781  0.00  0.00    +0.000 C 
ATOM     16  C   UNL     1       2.863  16.772  21.006  0.00  0.00    +0.000 C 
ATOM     17  C   UNL     1       3.539  16.801  19.637  0.00  0.00    +0.000 C 
ATOM     18  S   UNL     1       5.255  16.356  19.707  0.00  0.00    +0.000 S 
ATOM     19  O   UNL     1       5.669  15.934  18.383  0.00  0.00    +0.000 OA
ATOM     20  O   UNL     1       5.958  17.422  20.396  0.00  0.00    +0.000 OA
ATOM     21  C   UNL     1       5.279  14.923  20.766  0.00  0.00    +0.000 C 
ATOM     22  C   UNL     1       4.469  15.125  22.036  0.00  0.00    +0.000 C 
ENDBRANCH   2  15
BRANCH  14  23
ATOM     23  C   UNL     1      -0.212  11.835  21.422  0.00  0.00    +0.000 A 
ATOM     24  C   UNL     1      -0.782  11.690  22.676  0.00  0.00    +0.000 A 
ATOM     25  C   UNL     1      -0.975  10.327  23.049  0.00  0.00    +0.000 A 
ATOM     26  C   UNL     1      -0.555   9.482  22.060  0.00  0.00    +0.000 A 
ATOM     27  F   UNL     1      -0.643   8.180  22.155  0.00  0.00    +0.000 F 
ATOM     28  S   UNL     1       0.077  10.286  20.713  0.00  0.00    +0.000 S 
ENDBRANCH  14  23
BRANCH  10  29
ATOM     29  C   UNL     1      -7.125  13.334  22.633  0.00  0.00    +0.000 C 
ATOM     30  C   UNL     1      -7.695  11.940  22.511  0.00  0.00    +0.000 C 
ATOM     31  C   UNL     1      -7.289  12.460  23.857  0.00  0.00    +0.000 C 
ENDBRANCH  10  29
TORSDOF 3
ENDMDL
MODEL 8
REMARK VINA RESULT:      -6.0      3.990      6.241
REMARK  Name = 
REMARK  3 active torsions:
REMARK  status: ('A' for Active; 'I' for Inactive)
REMARK    1  A    between atoms: C_2  and  C_3
REMARK    2  A    between atoms: C_18  and  C_19
REMARK    3  A    between atoms: C_25  and  C_26
REMARK                            x       y       z     vdW  Elec       q    Type
REMARK                         _______ _______ _______ _____ _____    ______ ____
ROOT
ATOM      1  O   UNL     1      -4.130  12.359  23.049  0.00  0.00    +0.000 OA
ATOM      2  C   UNL     1      -3.897  13.003  22.025  0.00  0.00    +0.000 C 
ATOM      3  N   UNL     1      -2.599  13.153  21.566  0.00  0.00    +0.000 N 
ATOM      4  C   UNL     1      -2.190  13.972  20.415  0.00  0.00    +0.000 C 
ATOM      5  C   UNL     1      -1.257  15.132  20.813  0.00  0.00    +0.000 C 
ATOM      6  N   UNL     1      -0.153  14.651  21.634  0.00  0.00    +0.000 N 
ATOM      7  C   UNL     1       1.116  14.690  21.126  0.00  0.00    +0.000 A 
ATOM      8  N   UNL     1       1.388  15.598  20.173  0.00  0.00    +0.000 NA
ATOM      9  C   UNL     1       2.647  15.652  19.692  0.00  0.00    +0.000 A 
ATOM     10  C   UNL     1       3.674  14.817  20.071  0.00  0.00    +0.000 A 
ATOM     11  C   UNL     1       3.276  13.899  21.023  0.00  0.00    +0.000 A 
ATOM     12  N   UNL     1       2.042  13.830  21.567  0.00  0.00    +0.000 NA
ATOM     13  C   UNL     1      -0.492  13.817  22.791  0.00  0.00    +0.000 C 
ATOM     14  C   UNL     1      -1.485  12.672  22.436  0.00  0.00    +0.000 C 
ENDROOT
BRANCH   2  15
ATOM     15  C   UNL     1      -5.070  13.649  21.259  0.00  0.00    +0.000 C 
ATOM     16  C   UNL     1      -6.436  13.279  21.882  0.00  0.00    +0.000 C 
ATOM     17  C   UNL     1      -6.842  11.814  21.752  0.00  0.00    +0.000 C 
ATOM     18  S   UNL     1      -6.824  11.240  20.073  0.00  0.00    +0.000 S 
ATOM     19  O   UNL     1      -6.727   9.794  20.089  0.00  0.00    +0.000 OA
ATOM     20  O   UNL     1      -7.908  11.901  19.371  0.00  0.00    +0.000 OA
ATOM     21  C   UNL     1      -5.292  11.879  19.424  0.00  0.00    +0.000 C 
ATOM     22  C   UNL     1      -5.090  13.349  19.752  0.00  0.00    +0.000 C 
ENDBRANCH   2  15
BRANCH  14  23
ATOM     23  C   UNL     1      -0.799  11.461  21.833  0.00  0.00    +0.000 A 
ATOM     24  C   UNL     1      -0.356  11.229  20.540  0.00  0.00    +0.000 A 
ATOM     25  C   UNL     1       0.306   9.976  20.392  0.00  0.00    +0.000 A 
ATOM     26  C   UNL     1       0.355   9.300  21.579  0.00  0.00    +0.000 A 
ATOM     27  F   UNL     1       0.928   8.131  21.707  0.00  0.00    +0.000 F 
ATOM     28  S   UNL     1      -0.389  10.128  22.852  0.00  0.00    +0.000 S 
ENDBRANCH  14  23
BRANCH  10  29
ATOM     29  C   UNL     1       5.074  14.880  19.526  0.00  0.00    +0.000 C 
ATOM     30  C   UNL     1       5.745  16.188  19.179  0.00  0.00    +0.000 C 
ATOM     31  C   UNL     1       6.152  15.452  20.419  0.00  0.00    +0.000 C 
ENDBRANCH  10  29
TORSDOF 3
ENDMDL
MODEL 9
REMARK VINA RESULT:      -6.0      4.452      7.382
REMARK  Name = 
REMARK  3 active torsions:
REMARK  status: ('A' for Active; 'I' for Inactive)
REMARK    1  A    between atoms: C_2  and  C_3
REMARK    2  A    between atoms: C_18  and  C_19
REMARK    3  A    between atoms: C_25  and  C_26
REMARK                            x       y       z     vdW  Elec       q    Type
REMARK                         _______ _______ _______ _____ _____    ______ ____
ROOT
ATOM      1  O   UNL     1       3.879  15.788  21.286  0.00  0.00    +0.000 OA
ATOM      2  C   UNL     1       3.888  15.028  20.316  0.00  0.00    +0.000 C 
ATOM      3  N   UNL     1       2.707  14.496  19.826  0.00  0.00    +0.000 N 
ATOM      4  C   UNL     1       2.602  13.513  18.739  0.00  0.00    +0.000 C 
ATOM      5  C   UNL     1       1.991  12.176  19.204  0.00  0.00    +0.000 C 
ATOM      6  N   UNL     1       0.753  12.400  19.938  0.00  0.00    +0.000 N 
ATOM      7  C   UNL     1      -0.428  11.978  19.390  0.00  0.00    +0.000 A 
ATOM      8  N   UNL     1      -0.389  10.961  18.512  0.00  0.00    +0.000 NA
ATOM      9  C   UNL     1      -1.557  10.530  17.992  0.00  0.00    +0.000 A 
ATOM     10  C   UNL     1      -2.791  11.081  18.259  0.00  0.00    +0.000 A 
ATOM     11  C   UNL     1      -2.710  12.142  19.139  0.00  0.00    +0.000 A 
ATOM     12  N   UNL     1      -1.574  12.585  19.719  0.00  0.00    +0.000 NA
ATOM     13  C   UNL     1       0.787  13.380  21.028  0.00  0.00    +0.000 C 
ATOM     14  C   UNL     1       1.456  14.721  20.609  0.00  0.00    +0.000 C 
ENDROOT
BRANCH   2  15
ATOM     15  C   UNL     1       5.235  14.670  19.654  0.00  0.00    +0.000 C 
ATOM     16  C   UNL     1       6.407  14.741  20.659  0.00  0.00    +0.000 C 
ATOM     17  C   UNL     1       6.753  16.139  21.166  0.00  0.00    +0.000 C 
ATOM     18  S   UNL     1       7.076  17.287  19.853  0.00  0.00    +0.000 S 
ATOM     19  O   UNL     1       6.902  18.630  20.371  0.00  0.00    +0.000 OA
ATOM     20  O   UNL     1       8.323  16.894  19.222  0.00  0.00    +0.000 OA
ATOM     21  C   UNL     1       5.763  16.981  18.688  0.00  0.00    +0.000 C 
ATOM     22  C   UNL     1       5.571  15.499  18.405  0.00  0.00    +0.000 C 
ENDBRANCH   2  15
BRANCH  14  23
ATOM     23  C   UNL     1       0.507  15.651  19.876  0.00  0.00    +0.000 A 
ATOM     24  C   UNL     1       0.604  16.225  18.618  0.00  0.00    +0.000 A 
ATOM     25  C   UNL     1      -0.543  16.993  18.264  0.00  0.00    +0.000 A 
ATOM     26  C   UNL     1      -1.480  16.969  19.260  0.00  0.00    +0.000 A 
ATOM     27  F   UNL     1      -2.630  17.584  19.168  0.00  0.00    +0.000 F 
ATOM     28  S   UNL     1      -1.003  16.064  20.606  0.00  0.00    +0.000 S 
ENDBRANCH  14  23
BRANCH  10  29
ATOM     29  C   UNL     1      -4.088  10.599  17.671  0.00  0.00    +0.000 C 
ATOM     30  C   UNL     1      -5.429  11.052  18.198  0.00  0.00    +0.000 C 
ATOM     31  C   UNL     1      -4.923  11.592  16.895  0.00  0.00    +0.000 C 
ENDBRANCH  10  29
TORSDOF 3
ENDMDL
