MODEL 1
REMARK VINA RESULT:      -8.4      0.000      0.000
REMARK  Name = 
REMARK  5 active torsions:
REMARK  status: ('A' for Active; 'I' for Inactive)
REMARK    1  A    between atoms: C_2  and  C_3
REMARK    2  A    between atoms: C_3  and  C_4
REMARK    3  A    between atoms: C_6  and  C_7
REMARK    4  A    between atoms: N_15  and  C_16
REMARK    5  A    between atoms: C_19  and  O_20
REMARK                            x       y       z     vdW  Elec       q    Type
REMARK                         _______ _______ _______ _____ _____    ______ ____
ROOT
ATOM      1  O   UNL     1       5.783   5.409  19.506  0.00  0.00    +0.000 OA
ATOM      2  C   UNL     1       6.172   4.855  18.479  0.00  0.00    +0.000 C 
ATOM      3  N   UNL     1       5.486   3.863  17.792  0.00  0.00    +0.000 N 
ATOM      4  H   UNL     1       5.995   3.347  17.083  0.00  0.00    +0.000 HD
ENDROOT
BRANCH   3   5
ATOM      5  C   UNL     1       4.176   3.413  18.067  0.00  0.00    +0.000 A 
ATOM      6  C   UNL     1       3.891   2.374  18.957  0.00  0.00    +0.000 A 
ATOM      7  C   UNL     1       2.573   1.989  19.213  0.00  0.00    +0.000 A 
ATOM      8  C   UNL     1       1.531   2.644  18.572  0.00  0.00    +0.000 A 
ATOM      9  C   UNL     1       1.788   3.678  17.680  0.00  0.00    +0.000 A 
ATOM     10  C   UNL     1       3.113   4.071  17.433  0.00  0.00    +0.000 A 
BRANCH   8  11
ATOM     11  O   UNL     1       0.232   2.303  18.796  0.00  0.00    +0.000 OA
ATOM     12  H   UNL     1       0.208   1.635  19.501  0.00  0.00    +0.000 HD
ENDBRANCH   8  11
ENDBRANCH   3   5
BRANCH   2  13
ATOM     13  C   UNL     1       7.495   5.247  17.841  0.00  0.00    +0.000 C 
BRANCH  13  14
ATOM     14  C   UNL     1       7.682   6.722  17.846  0.00  0.00    +0.000 A 
ATOM     15  C   UNL     1       8.416   7.514  18.761  0.00  0.00    +0.000 A 
ATOM     16  C   UNL     1       8.306   8.799  18.285  0.00  0.00    +0.000 A 
ATOM     17  O   UNL     1       7.501   8.781  17.183  0.00  0.00    +0.000 OA
ATOM     18  N   UNL     1       7.106   7.481  16.906  0.00  0.00    +0.000 NA
BRANCH  16  19
ATOM     19  C   UNL     1       8.867  10.089  18.676  0.00  0.00    +0.000 A 
ATOM     20  C   UNL     1       9.467  10.247  19.935  0.00  0.00    +0.000 A 
ATOM     21  C   UNL     1      10.047  11.463  20.307  0.00  0.00    +0.000 A 
ATOM     22  C   UNL     1      10.032  12.540  19.427  0.00  0.00    +0.000 A 
ATOM     23  C   UNL     1       9.432  12.406  18.177  0.00  0.00    +0.000 A 
ATOM     24  C   UNL     1       8.854  11.190  17.804  0.00  0.00    +0.000 A 
ENDBRANCH  16  19
ENDBRANCH  13  14
ENDBRANCH   2  13
TORSDOF 5
ENDMDL
MODEL 2
REMARK VINA RESULT:      -8.3      0.300      1.451
REMARK  Name = 
REMARK  5 active torsions:
REMARK  status: ('A' for Active; 'I' for Inactive)
REMARK    1  A    between atoms: C_2  and  C_3
REMARK    2  A    between atoms: C_3  and  C_4
REMARK    3  A    between atoms: C_6  and  C_7
REMARK    4  A    between atoms: N_15  and  C_16
REMARK    5  A    between atoms: C_19  and  O_20
REMARK                            x       y       z     vdW  Elec       q    Type
REMARK                         _______ _______ _______ _____ _____    ______ ____
ROOT
ATOM      1  O   UNL     1       5.541   5.651  19.388  0.00  0.00    +0.000 OA
ATOM      2  C   UNL     1       5.984   4.992  18.449  0.00  0.00    +0.000 C 
ATOM      3  N   UNL     1       5.322   3.948  17.817  0.00  0.00    +0.000 N 
ATOM      4  H   UNL     1       5.865   3.356  17.198  0.00  0.00    +0.000 HD
ENDROOT
BRANCH   3   5
ATOM      5  C   UNL     1       3.987   3.549  18.045  0.00  0.00    +0.000 A 
ATOM      6  C   UNL     1       2.880   4.292  17.625  0.00  0.00    +0.000 A 
ATOM      7  C   UNL     1       1.579   3.835  17.853  0.00  0.00    +0.000 A 
ATOM      8  C   UNL     1       1.383   2.627  18.508  0.00  0.00    +0.000 A 
ATOM      9  C   UNL     1       2.467   1.871  18.938  0.00  0.00    +0.000 A 
ATOM     10  C   UNL     1       3.773   2.328  18.697  0.00  0.00    +0.000 A 
BRANCH   8  11
ATOM     11  O   UNL     1       0.133   2.144  18.746  0.00  0.00    +0.000 OA
ATOM     12  H   UNL     1       0.009   1.339  18.216  0.00  0.00    +0.000 HD
ENDBRANCH   8  11
ENDBRANCH   3   5
BRANCH   2  13
ATOM     13  C   UNL     1       7.355   5.297  17.867  0.00  0.00    +0.000 C 
BRANCH  13  14
ATOM     14  C   UNL     1       7.642   6.755  17.895  0.00  0.00    +0.000 A 
ATOM     15  C   UNL     1       8.435   7.479  18.817  0.00  0.00    +0.000 A 
ATOM     16  C   UNL     1       8.410   8.778  18.365  0.00  0.00    +0.000 A 
ATOM     17  O   UNL     1       7.597   8.834  17.269  0.00  0.00    +0.000 OA
ATOM     18  N   UNL     1       7.113   7.569  16.973  0.00  0.00    +0.000 NA
BRANCH  16  19
ATOM     19  C   UNL     1       9.060  10.019  18.772  0.00  0.00    +0.000 A 
ATOM     20  C   UNL     1       9.462  10.957  17.808  0.00  0.00    +0.000 A 
ATOM     21  C   UNL     1      10.048  12.169  18.184  0.00  0.00    +0.000 A 
ATOM     22  C   UNL     1      10.244  12.459  19.529  0.00  0.00    +0.000 A 
ATOM     23  C   UNL     1       9.861  11.538  20.501  0.00  0.00    +0.000 A 
ATOM     24  C   UNL     1       9.275  10.327  20.125  0.00  0.00    +0.000 A 
ENDBRANCH  16  19
ENDBRANCH  13  14
ENDBRANCH   2  13
TORSDOF 5
ENDMDL
MODEL 3
REMARK VINA RESULT:      -8.2      0.366      1.086
REMARK  Name = 
REMARK  5 active torsions:
REMARK  status: ('A' for Active; 'I' for Inactive)
REMARK    1  A    between atoms: C_2  and  C_3
REMARK    2  A    between atoms: C_3  and  C_4
REMARK    3  A    between atoms: C_6  and  C_7
REMARK    4  A    between atoms: N_15  and  C_16
REMARK    5  A    between atoms: C_19  and  O_20
REMARK                            x       y       z     vdW  Elec       q    Type
REMARK                         _______ _______ _______ _____ _____    ______ ____
ROOT
ATOM      1  O   UNL     1       5.449   5.792  19.251  0.00  0.00    +0.000 OA
ATOM      2  C   UNL     1       5.943   5.053  18.402  0.00  0.00    +0.000 C 
ATOM      3  N   UNL     1       5.329   3.934  17.855  0.00  0.00    +0.000 N 
ATOM      4  H   UNL     1       5.908   3.296  17.321  0.00  0.00    +0.000 HD
ENDROOT
BRANCH   3   5
ATOM      5  C   UNL     1       3.994   3.527  18.073  0.00  0.00    +0.000 A 
ATOM      6  C   UNL     1       2.888   4.218  17.571  0.00  0.00    +0.000 A 
ATOM      7  C   UNL     1       1.589   3.753  17.792  0.00  0.00    +0.000 A 
ATOM      8  C   UNL     1       1.394   2.590  18.524  0.00  0.00    +0.000 A 
ATOM      9  C   UNL     1       2.476   1.886  19.037  0.00  0.00    +0.000 A 
ATOM     10  C   UNL     1       3.781   2.349  18.802  0.00  0.00    +0.000 A 
BRANCH   8  11
ATOM     11  O   UNL     1       0.145   2.101  18.759  0.00  0.00    +0.000 OA
ATOM     12  H   UNL     1       0.011   2.050  19.720  0.00  0.00    +0.000 HD
ENDBRANCH   8  11
ENDBRANCH   3   5
BRANCH   2  13
ATOM     13  C   UNL     1       7.329   5.332  17.844  0.00  0.00    +0.000 C 
BRANCH  13  14
ATOM     14  C   UNL     1       7.642   6.784  17.874  0.00  0.00    +0.000 A 
ATOM     15  C   UNL     1       8.411   7.501  18.822  0.00  0.00    +0.000 A 
ATOM     16  C   UNL     1       8.428   8.796  18.360  0.00  0.00    +0.000 A 
ATOM     17  O   UNL     1       7.660   8.858  17.233  0.00  0.00    +0.000 OA
ATOM     18  N   UNL     1       7.164   7.601  16.927  0.00  0.00    +0.000 NA
BRANCH  16  19
ATOM     19  C   UNL     1       9.084  10.028  18.785  0.00  0.00    +0.000 A 
ATOM     20  C   UNL     1       9.217  10.325  20.150  0.00  0.00    +0.000 A 
ATOM     21  C   UNL     1       9.881  11.479  20.574  0.00  0.00    +0.000 A 
ATOM     22  C   UNL     1      10.419  12.356  19.639  0.00  0.00    +0.000 A 
ATOM     23  C   UNL     1      10.289  12.084  18.278  0.00  0.00    +0.000 A 
ATOM     24  C   UNL     1       9.627  10.930  17.855  0.00  0.00    +0.000 A 
ENDBRANCH  16  19
ENDBRANCH  13  14
ENDBRANCH   2  13
TORSDOF 5
ENDMDL
MODEL 4
REMARK VINA RESULT:      -8.2      0.411      1.068
REMARK  Name = 
REMARK  5 active torsions:
REMARK  status: ('A' for Active; 'I' for Inactive)
REMARK    1  A    between atoms: C_2  and  C_3
REMARK    2  A    between atoms: C_3  and  C_4
REMARK    3  A    between atoms: C_6  and  C_7
REMARK    4  A    between atoms: N_15  and  C_16
REMARK    5  A    between atoms: C_19  and  O_20
REMARK                            x       y       z     vdW  Elec       q    Type
REMARK                         _______ _______ _______ _____ _____    ______ ____
ROOT
ATOM      1  O   UNL     1       5.464   5.488  19.523  0.00  0.00    +0.000 OA
ATOM      2  C   UNL     1       5.983   4.797  18.648  0.00  0.00    +0.000 C 
ATOM      3  N   UNL     1       5.390   3.707  18.026  0.00  0.00    +0.000 N 
ATOM      4  H   UNL     1       5.987   3.101  17.473  0.00  0.00    +0.000 HD
ENDROOT
BRANCH   3   5
ATOM      5  C   UNL     1       4.052   3.284  18.185  0.00  0.00    +0.000 A 
ATOM      6  C   UNL     1       3.671   2.247  19.042  0.00  0.00    +0.000 A 
ATOM      7  C   UNL     1       2.328   1.888  19.182  0.00  0.00    +0.000 A 
ATOM      8  C   UNL     1       1.359   2.568  18.459  0.00  0.00    +0.000 A 
ATOM      9  C   UNL     1       1.711   3.601  17.599  0.00  0.00    +0.000 A 
ATOM     10  C   UNL     1       3.061   3.967  17.468  0.00  0.00    +0.000 A 
BRANCH   8  11
ATOM     11  O   UNL     1       0.039   2.253  18.570  0.00  0.00    +0.000 OA
ATOM     12  H   UNL     1      -0.104   1.380  18.168  0.00  0.00    +0.000 HD
ENDBRANCH   8  11
ENDBRANCH   3   5
BRANCH   2  13
ATOM     13  C   UNL     1       7.383   5.111  18.143  0.00  0.00    +0.000 C 
BRANCH  13  14
ATOM     14  C   UNL     1       7.575   6.573  17.955  0.00  0.00    +0.000 A 
ATOM     15  C   UNL     1       8.324   7.472  18.751  0.00  0.00    +0.000 A 
ATOM     16  C   UNL     1       8.211   8.687  18.115  0.00  0.00    +0.000 A 
ATOM     17  O   UNL     1       7.391   8.531  17.035  0.00  0.00    +0.000 OA
ATOM     18  N   UNL     1       6.988   7.209  16.933  0.00  0.00    +0.000 NA
BRANCH  16  19
ATOM     19  C   UNL     1       8.782  10.013  18.329  0.00  0.00    +0.000 A 
ATOM     20  C   UNL     1       8.314  11.112  17.591  0.00  0.00    +0.000 A 
ATOM     21  C   UNL     1       8.820  12.395  17.813  0.00  0.00    +0.000 A 
ATOM     22  C   UNL     1       9.804  12.598  18.774  0.00  0.00    +0.000 A 
ATOM     23  C   UNL     1      10.289  11.520  19.510  0.00  0.00    +0.000 A 
ATOM     24  C   UNL     1       9.782  10.237  19.289  0.00  0.00    +0.000 A 
ENDBRANCH  16  19
ENDBRANCH  13  14
ENDBRANCH   2  13
TORSDOF 5
ENDMDL
MODEL 5
REMARK VINA RESULT:      -8.0      3.669      6.456
REMARK  Name = 
REMARK  5 active torsions:
REMARK  status: ('A' for Active; 'I' for Inactive)
REMARK    1  A    between atoms: C_2  and  C_3
REMARK    2  A    between atoms: C_3  and  C_4
REMARK    3  A    between atoms: C_6  and  C_7
REMARK    4  A    between atoms: N_15  and  C_16
REMARK    5  A    between atoms: C_19  and  O_20
REMARK                            x       y       z     vdW  Elec       q    Type
REMARK                         _______ _______ _______ _____ _____    ______ ____
ROOT
ATOM      1  O   UNL     1       6.993   5.188  20.024  0.00  0.00    +0.000 OA
ATOM      2  C   UNL     1       6.435   5.469  18.965  0.00  0.00    +0.000 C 
ATOM      3  N   UNL     1       5.124   5.148  18.638  0.00  0.00    +0.000 N 
ATOM      4  H   UNL     1       4.845   5.253  17.669  0.00  0.00    +0.000 HD
ENDROOT
BRANCH   3   5
ATOM      5  C   UNL     1       4.168   4.568  19.501  0.00  0.00    +0.000 A 
ATOM      6  C   UNL     1       3.137   5.293  20.104  0.00  0.00    +0.000 A 
ATOM      7  C   UNL     1       2.201   4.662  20.927  0.00  0.00    +0.000 A 
ATOM      8  C   UNL     1       2.298   3.296  21.151  0.00  0.00    +0.000 A 
ATOM      9  C   UNL     1       3.316   2.552  20.566  0.00  0.00    +0.000 A 
ATOM     10  C   UNL     1       4.248   3.188  19.730  0.00  0.00    +0.000 A 
BRANCH   8  11
ATOM     11  O   UNL     1       1.404   2.641  21.943  0.00  0.00    +0.000 OA
ATOM     12  H   UNL     1       0.527   2.701  21.530  0.00  0.00    +0.000 HD
ENDBRANCH   8  11
ENDBRANCH   3   5
BRANCH   2  13
ATOM     13  C   UNL     1       7.169   6.246  17.884  0.00  0.00    +0.000 C 
BRANCH  13  14
ATOM     14  C   UNL     1       6.677   5.885  16.529  0.00  0.00    +0.000 A 
ATOM     15  C   UNL     1       7.073   4.802  15.708  0.00  0.00    +0.000 A 
ATOM     16  C   UNL     1       6.280   4.898  14.588  0.00  0.00    +0.000 A 
ATOM     17  O   UNL     1       5.499   6.011  14.710  0.00  0.00    +0.000 OA
ATOM     18  N   UNL     1       5.746   6.633  15.924  0.00  0.00    +0.000 NA
BRANCH  16  19
ATOM     19  C   UNL     1       6.093   4.085  13.391  0.00  0.00    +0.000 A 
ATOM     20  C   UNL     1       7.205   3.584  12.695  0.00  0.00    +0.000 A 
ATOM     21  C   UNL     1       7.043   2.769  11.572  0.00  0.00    +0.000 A 
ATOM     22  C   UNL     1       5.767   2.444  11.126  0.00  0.00    +0.000 A 
ATOM     23  C   UNL     1       4.650   2.939  11.796  0.00  0.00    +0.000 A 
ATOM     24  C   UNL     1       4.813   3.753  12.920  0.00  0.00    +0.000 A 
ENDBRANCH  16  19
ENDBRANCH  13  14
ENDBRANCH   2  13
TORSDOF 5
ENDMDL
MODEL 6
REMARK VINA RESULT:      -8.0      3.684      6.532
REMARK  Name = 
REMARK  5 active torsions:
REMARK  status: ('A' for Active; 'I' for Inactive)
REMARK    1  A    between atoms: C_2  and  C_3
REMARK    2  A    between atoms: C_3  and  C_4
REMARK    3  A    between atoms: C_6  and  C_7
REMARK    4  A    between atoms: N_15  and  C_16
REMARK    5  A    between atoms: C_19  and  O_20
REMARK                            x       y       z     vdW  Elec       q    Type
REMARK                         _______ _______ _______ _____ _____    ______ ____
ROOT
ATOM      1  O   UNL     1       7.039   5.367  20.036  0.00  0.00    +0.000 OA
ATOM      2  C   UNL     1       6.526   5.488  18.925  0.00  0.00    +0.000 C 
ATOM      3  N   UNL     1       5.262   5.039  18.570  0.00  0.00    +0.000 N 
ATOM      4  H   UNL     1       5.033   5.016  17.582  0.00  0.00    +0.000 HD
ENDROOT
BRANCH   3   5
ATOM      5  C   UNL     1       4.296   4.492  19.443  0.00  0.00    +0.000 A 
ATOM      6  C   UNL     1       3.269   5.243  20.021  0.00  0.00    +0.000 A 
ATOM      7  C   UNL     1       2.323   4.643  20.857  0.00  0.00    +0.000 A 
ATOM      8  C   UNL     1       2.407   3.283  21.119  0.00  0.00    +0.000 A 
ATOM      9  C   UNL     1       3.420   2.515  20.560  0.00  0.00    +0.000 A 
ATOM     10  C   UNL     1       4.362   3.118  19.711  0.00  0.00    +0.000 A 
BRANCH   8  11
ATOM     11  O   UNL     1       1.503   2.658  21.924  0.00  0.00    +0.000 OA
ATOM     12  H   UNL     1       0.782   2.316  21.369  0.00  0.00    +0.000 HD
ENDBRANCH   8  11
ENDBRANCH   3   5
BRANCH   2  13
ATOM     13  C   UNL     1       7.271   6.190  17.801  0.00  0.00    +0.000 C 
BRANCH  13  14
ATOM     14  C   UNL     1       6.723   5.815  16.471  0.00  0.00    +0.000 A 
ATOM     15  C   UNL     1       7.082   4.722  15.647  0.00  0.00    +0.000 A 
ATOM     16  C   UNL     1       6.245   4.807  14.559  0.00  0.00    +0.000 A 
ATOM     17  O   UNL     1       5.472   5.924  14.700  0.00  0.00    +0.000 OA
ATOM     18  N   UNL     1       5.771   6.559  15.896  0.00  0.00    +0.000 NA
BRANCH  16  19
ATOM     19  C   UNL     1       6.007   3.981  13.380  0.00  0.00    +0.000 A 
ATOM     20  C   UNL     1       4.710   3.841  12.864  0.00  0.00    +0.000 A 
ATOM     21  C   UNL     1       4.472   3.088  11.711  0.00  0.00    +0.000 A 
ATOM     22  C   UNL     1       5.528   2.460  11.060  0.00  0.00    +0.000 A 
ATOM     23  C   UNL     1       6.821   2.578  11.562  0.00  0.00    +0.000 A 
ATOM     24  C   UNL     1       7.059   3.332  12.714  0.00  0.00    +0.000 A 
ENDBRANCH  16  19
ENDBRANCH  13  14
ENDBRANCH   2  13
TORSDOF 5
ENDMDL
MODEL 7
REMARK VINA RESULT:      -7.9      1.267      1.631
REMARK  Name = 
REMARK  5 active torsions:
REMARK  status: ('A' for Active; 'I' for Inactive)
REMARK    1  A    between atoms: C_2  and  C_3
REMARK    2  A    between atoms: C_3  and  C_4
REMARK    3  A    between atoms: C_6  and  C_7
REMARK    4  A    between atoms: N_15  and  C_16
REMARK    5  A    between atoms: C_19  and  O_20
REMARK                            x       y       z     vdW  Elec       q    Type
REMARK                         _______ _______ _______ _____ _____    ______ ____
ROOT
ATOM      1  O   UNL     1       5.543   4.581  16.908  0.00  0.00    +0.000 OA
ATOM      2  C   UNL     1       6.098   4.804  17.982  0.00  0.00    +0.000 C 
ATOM      3  N   UNL     1       5.493   4.728  19.230  0.00  0.00    +0.000 N 
ATOM      4  H   UNL     1       5.992   5.127  20.017  0.00  0.00    +0.000 HD
ENDROOT
BRANCH   3   5
ATOM      5  C   UNL     1       4.188   4.258  19.496  0.00  0.00    +0.000 A 
ATOM      6  C   UNL     1       3.833   2.907  19.450  0.00  0.00    +0.000 A 
ATOM      7  C   UNL     1       2.533   2.495  19.751  0.00  0.00    +0.000 A 
ATOM      8  C   UNL     1       1.578   3.441  20.096  0.00  0.00    +0.000 A 
ATOM      9  C   UNL     1       1.904   4.790  20.146  0.00  0.00    +0.000 A 
ATOM     10  C   UNL     1       3.215   5.200  19.855  0.00  0.00    +0.000 A 
BRANCH   8  11
ATOM     11  O   UNL     1       0.301   3.082  20.401  0.00  0.00    +0.000 OA
ATOM     12  H   UNL     1       0.322   2.219  20.847  0.00  0.00    +0.000 HD
ENDBRANCH   8  11
ENDBRANCH   3   5
BRANCH   2  13
ATOM     13  C   UNL     1       7.570   5.181  18.031  0.00  0.00    +0.000 C 
BRANCH  13  14
ATOM     14  C   UNL     1       7.754   6.654  17.945  0.00  0.00    +0.000 A 
ATOM     15  C   UNL     1       8.411   7.514  18.856  0.00  0.00    +0.000 A 
ATOM     16  C   UNL     1       8.338   8.762  18.283  0.00  0.00    +0.000 A 
ATOM     17  O   UNL     1       7.623   8.659  17.124  0.00  0.00    +0.000 OA
ATOM     18  N   UNL     1       7.254   7.340  16.910  0.00  0.00    +0.000 NA
BRANCH  16  19
ATOM     19  C   UNL     1       8.864  10.080  18.623  0.00  0.00    +0.000 A 
ATOM     20  C   UNL     1       8.688  11.160  17.745  0.00  0.00    +0.000 A 
ATOM     21  C   UNL     1       9.148  12.438  18.076  0.00  0.00    +0.000 A 
ATOM     22  C   UNL     1       9.795  12.653  19.287  0.00  0.00    +0.000 A 
ATOM     23  C   UNL     1       9.989  11.591  20.168  0.00  0.00    +0.000 A 
ATOM     24  C   UNL     1       9.527  10.315  19.839  0.00  0.00    +0.000 A 
ENDBRANCH  16  19
ENDBRANCH  13  14
ENDBRANCH   2  13
TORSDOF 5
ENDMDL
MODEL 8
REMARK VINA RESULT:      -7.8      1.601      2.038
REMARK  Name = 
REMARK  5 active torsions:
REMARK  status: ('A' for Active; 'I' for Inactive)
REMARK    1  A    between atoms: C_2  and  C_3
REMARK    2  A    between atoms: C_3  and  C_4
REMARK    3  A    between atoms: C_6  and  C_7
REMARK    4  A    between atoms: N_15  and  C_16
REMARK    5  A    between atoms: C_19  and  O_20
REMARK                            x       y       z     vdW  Elec       q    Type
REMARK                         _______ _______ _______ _____ _____    ______ ____
ROOT
ATOM      1  O   UNL     1       4.258   7.327  17.403  0.00  0.00    +0.000 OA
ATOM      2  C   UNL     1       5.074   6.407  17.369  0.00  0.00    +0.000 C 
ATOM      3  N   UNL     1       4.883   5.143  17.909  0.00  0.00    +0.000 N 
ATOM      4  H   UNL     1       5.696   4.543  17.996  0.00  0.00    +0.000 HD
ENDROOT
BRANCH   3   5
ATOM      5  C   UNL     1       3.684   4.649  18.469  0.00  0.00    +0.000 A 
ATOM      6  C   UNL     1       2.742   3.915  17.743  0.00  0.00    +0.000 A 
ATOM      7  C   UNL     1       1.585   3.425  18.355  0.00  0.00    +0.000 A 
ATOM      8  C   UNL     1       1.367   3.674  19.703  0.00  0.00    +0.000 A 
ATOM      9  C   UNL     1       2.287   4.403  20.446  0.00  0.00    +0.000 A 
ATOM     10  C   UNL     1       3.454   4.884  19.831  0.00  0.00    +0.000 A 
BRANCH   8  11
ATOM     11  O   UNL     1       0.256   3.211  20.339  0.00  0.00    +0.000 OA
ATOM     12  H   UNL     1       0.503   2.427  20.858  0.00  0.00    +0.000 HD
ENDBRANCH   8  11
ENDBRANCH   3   5
BRANCH   2  13
ATOM     13  C   UNL     1       6.417   6.589  16.680  0.00  0.00    +0.000 C 
BRANCH  13  14
ATOM     14  C   UNL     1       7.346   7.399  17.511  0.00  0.00    +0.000 A 
ATOM     15  C   UNL     1       7.713   8.756  17.354  0.00  0.00    +0.000 A 
ATOM     16  C   UNL     1       8.554   9.021  18.410  0.00  0.00    +0.000 A 
ATOM     17  O   UNL     1       8.726   7.868  19.120  0.00  0.00    +0.000 OA
ATOM     18  N   UNL     1       7.973   6.849  18.559  0.00  0.00    +0.000 NA
BRANCH  16  19
ATOM     19  C   UNL     1       9.228  10.215  18.910  0.00  0.00    +0.000 A 
ATOM     20  C   UNL     1       9.793  11.136  18.014  0.00  0.00    +0.000 A 
ATOM     21  C   UNL     1      10.404  12.306  18.475  0.00  0.00    +0.000 A 
ATOM     22  C   UNL     1      10.462  12.569  19.838  0.00  0.00    +0.000 A 
ATOM     23  C   UNL     1       9.917  11.663  20.744  0.00  0.00    +0.000 A 
ATOM     24  C   UNL     1       9.304  10.495  20.283  0.00  0.00    +0.000 A 
ENDBRANCH  16  19
ENDBRANCH  13  14
ENDBRANCH   2  13
TORSDOF 5
ENDMDL
MODEL 9
REMARK VINA RESULT:      -7.7      1.522      1.778
REMARK  Name = 
REMARK  5 active torsions:
REMARK  status: ('A' for Active; 'I' for Inactive)
REMARK    1  A    between atoms: C_2  and  C_3
REMARK    2  A    between atoms: C_3  and  C_4
REMARK    3  A    between atoms: C_6  and  C_7
REMARK    4  A    between atoms: N_15  and  C_16
REMARK    5  A    between atoms: C_19  and  O_20
REMARK                            x       y       z     vdW  Elec       q    Type
REMARK                         _______ _______ _______ _____ _____    ______ ____
ROOT
ATOM      1  O   UNL     1       4.365   7.284  17.636  0.00  0.00    +0.000 OA
ATOM      2  C   UNL     1       5.119   6.325  17.478  0.00  0.00    +0.000 C 
ATOM      3  N   UNL     1       4.861   5.024  17.887  0.00  0.00    +0.000 N 
ATOM      4  H   UNL     1       5.636   4.370  17.884  0.00  0.00    +0.000 HD
ENDROOT
BRANCH   3   5
ATOM      5  C   UNL     1       3.648   4.546  18.428  0.00  0.00    +0.000 A 
ATOM      6  C   UNL     1       2.528   4.237  17.651  0.00  0.00    +0.000 A 
ATOM      7  C   UNL     1       1.361   3.740  18.236  0.00  0.00    +0.000 A 
ATOM      8  C   UNL     1       1.312   3.552  19.611  0.00  0.00    +0.000 A 
ATOM      9  C   UNL     1       2.410   3.854  20.406  0.00  0.00    +0.000 A 
ATOM     10  C   UNL     1       3.585   4.343  19.813  0.00  0.00    +0.000 A 
BRANCH   8  11
ATOM     11  O   UNL     1       0.196   3.065  20.221  0.00  0.00    +0.000 OA
ATOM     12  H   UNL     1      -0.555   3.166  19.613  0.00  0.00    +0.000 HD
ENDBRANCH   8  11
ENDBRANCH   3   5
BRANCH   2  13
ATOM     13  C   UNL     1       6.454   6.498  16.771  0.00  0.00    +0.000 C 
BRANCH  13  14
ATOM     14  C   UNL     1       7.381   7.347  17.565  0.00  0.00    +0.000 A 
ATOM     15  C   UNL     1       7.693   8.716  17.387  0.00  0.00    +0.000 A 
ATOM     16  C   UNL     1       8.559   9.019  18.412  0.00  0.00    +0.000 A 
ATOM     17  O   UNL     1       8.796   7.878  19.124  0.00  0.00    +0.000 OA
ATOM     18  N   UNL     1       8.061   6.828  18.595  0.00  0.00    +0.000 NA
BRANCH  16  19
ATOM     19  C   UNL     1       9.206  10.240  18.881  0.00  0.00    +0.000 A 
ATOM     20  C   UNL     1       9.267  10.526  20.254  0.00  0.00    +0.000 A 
ATOM     21  C   UNL     1       9.920  11.669  20.721  0.00  0.00    +0.000 A 
ATOM     22  C   UNL     1      10.518  12.546  19.823  0.00  0.00    +0.000 A 
ATOM     23  C   UNL     1      10.460  12.286  18.456  0.00  0.00    +0.000 A 
ATOM     24  C   UNL     1       9.809  11.142  17.989  0.00  0.00    +0.000 A 
ENDBRANCH  16  19
ENDBRANCH  13  14
ENDBRANCH   2  13
TORSDOF 5
ENDMDL
