MODEL 1
REMARK VINA RESULT:      -7.0      0.000      0.000
REMARK  Name = 
REMARK  2 active torsions:
REMARK  status: ('A' for Active; 'I' for Inactive)
REMARK    1  A    between atoms: O_1  and  C_2
REMARK    2  A    between atoms: C_5  and  C_6
REMARK                            x       y       z     vdW  Elec       q    Type
REMARK                         _______ _______ _______ _____ _____    ______ ____
ROOT
ATOM      1  C   UNL     1       4.624   4.784  19.221  0.00  0.00    +0.000 C 
ATOM      2  N   UNL     1       3.985   5.973  19.699  0.00  0.00    +0.000 N 
ATOM      3  C   UNL     1       2.643   5.745  19.977  0.00  0.00    +0.000 C 
ATOM      4  S   UNL     1       1.619   6.913  20.550  0.00  0.00    +0.000 S 
ATOM      5  N   UNL     1       2.382   4.420  19.642  0.00  0.00    +0.000 N 
ATOM      6  C   UNL     1       1.085   3.800  19.396  0.00  0.00    +0.000 C 
ATOM      7  C   UNL     1       1.204   2.273  19.429  0.00  0.00    +0.000 C 
ATOM      8  C   UNL     1       2.424   1.780  18.644  0.00  0.00    +0.000 C 
ATOM      9  C   UNL     1       3.699   2.490  19.117  0.00  0.00    +0.000 C 
ATOM     10  N   UNL     1       3.485   3.912  18.928  0.00  0.00    +0.000 NA
ATOM     11  H   UNL     1       4.444   6.860  19.845  0.00  0.00    +0.000 HD
ENDROOT
BRANCH   1  15
ATOM     12  C   UNL     1       6.878   5.206  15.583  0.00  0.00    +0.000 A 
ATOM     13  C   UNL     1       7.509   4.715  16.722  0.00  0.00    +0.000 A 
ATOM     14  C   UNL     1       6.796   4.621  17.921  0.00  0.00    +0.000 A 
ATOM     15  C   UNL     1       5.451   5.018  17.979  0.00  0.00    +0.000 A 
ATOM     16  C   UNL     1       4.852   5.552  16.822  0.00  0.00    +0.000 A 
ATOM     17  C   UNL     1       5.559   5.635  15.626  0.00  0.00    +0.000 A 
BRANCH  12  18
ATOM     18  O   UNL     1       7.521   5.270  14.383  0.00  0.00    +0.000 OA
ATOM     19  H   UNL     1       7.701   4.366  14.080  0.00  0.00    +0.000 HD
ENDBRANCH  12  18
ENDBRANCH   1  15
TORSDOF 2
ENDMDL
MODEL 2
REMARK VINA RESULT:      -6.9      0.370      1.196
REMARK  Name = 
REMARK  2 active torsions:
REMARK  status: ('A' for Active; 'I' for Inactive)
REMARK    1  A    between atoms: O_1  and  C_2
REMARK    2  A    between atoms: C_5  and  C_6
REMARK                            x       y       z     vdW  Elec       q    Type
REMARK                         _______ _______ _______ _____ _____    ______ ____
ROOT
ATOM      1  C   UNL     1       4.553   4.585  19.213  0.00  0.00    +0.000 C 
ATOM      2  N   UNL     1       4.059   5.866  19.616  0.00  0.00    +0.000 N 
ATOM      3  C   UNL     1       2.713   5.803  19.954  0.00  0.00    +0.000 C 
ATOM      4  S   UNL     1       1.838   7.112  20.465  0.00  0.00    +0.000 S 
ATOM      5  N   UNL     1       2.304   4.491  19.734  0.00  0.00    +0.000 N 
ATOM      6  C   UNL     1       0.942   3.994  19.580  0.00  0.00    +0.000 C 
ATOM      7  C   UNL     1       0.905   2.470  19.730  0.00  0.00    +0.000 C 
ATOM      8  C   UNL     1       2.036   1.794  18.948  0.00  0.00    +0.000 C 
ATOM      9  C   UNL     1       3.395   2.399  19.322  0.00  0.00    +0.000 C 
ATOM     10  N   UNL     1       3.320   3.818  19.028  0.00  0.00    +0.000 NA
ATOM     11  H   UNL     1       4.612   6.709  19.676  0.00  0.00    +0.000 HD
ENDROOT
BRANCH   1  15
ATOM     12  C   UNL     1       6.847   5.007  15.600  0.00  0.00    +0.000 A 
ATOM     13  C   UNL     1       5.458   4.954  15.524  0.00  0.00    +0.000 A 
ATOM     14  C   UNL     1       4.708   4.768  16.688  0.00  0.00    +0.000 A 
ATOM     15  C   UNL     1       5.349   4.635  17.930  0.00  0.00    +0.000 A 
ATOM     16  C   UNL     1       6.755   4.647  17.971  0.00  0.00    +0.000 A 
ATOM     17  C   UNL     1       7.502   4.844  16.813  0.00  0.00    +0.000 A 
BRANCH  12  18
ATOM     18  O   UNL     1       7.614   5.234  14.497  0.00  0.00    +0.000 OA
ATOM     19  H   UNL     1       7.106   4.980  13.710  0.00  0.00    +0.000 HD
ENDBRANCH  12  18
ENDBRANCH   1  15
TORSDOF 2
ENDMDL
MODEL 3
REMARK VINA RESULT:      -6.7      3.689      5.218
REMARK  Name = 
REMARK  2 active torsions:
REMARK  status: ('A' for Active; 'I' for Inactive)
REMARK    1  A    between atoms: O_1  and  C_2
REMARK    2  A    between atoms: C_5  and  C_6
REMARK                            x       y       z     vdW  Elec       q    Type
REMARK                         _______ _______ _______ _____ _____    ______ ____
ROOT
ATOM      1  C   UNL     1       3.121   6.322  17.655  0.00  0.00    +0.000 C 
ATOM      2  N   UNL     1       4.551   6.368  17.710  0.00  0.00    +0.000 N 
ATOM      3  C   UNL     1       5.085   5.111  17.961  0.00  0.00    +0.000 C 
ATOM      4  S   UNL     1       6.710   4.818  18.084  0.00  0.00    +0.000 S 
ATOM      5  N   UNL     1       4.011   4.241  18.117  0.00  0.00    +0.000 N 
ATOM      6  C   UNL     1       4.011   2.924  18.744  0.00  0.00    +0.000 C 
ATOM      7  C   UNL     1       2.738   2.154  18.379  0.00  0.00    +0.000 C 
ATOM      8  C   UNL     1       1.488   3.032  18.495  0.00  0.00    +0.000 C 
ATOM      9  C   UNL     1       1.655   4.327  17.689  0.00  0.00    +0.000 C 
ATOM     10  N   UNL     1       2.829   5.000  18.213  0.00  0.00    +0.000 NA
ATOM     11  H   UNL     1       5.111   7.195  17.562  0.00  0.00    +0.000 HD
ENDROOT
BRANCH   1  15
ATOM     12  C   UNL     1       1.006   9.268  19.966  0.00  0.00    +0.000 A 
ATOM     13  C   UNL     1       1.259   9.511  18.619  0.00  0.00    +0.000 A 
ATOM     14  C   UNL     1       1.987   8.580  17.873  0.00  0.00    +0.000 A 
ATOM     15  C   UNL     1       2.464   7.406  18.476  0.00  0.00    +0.000 A 
ATOM     16  C   UNL     1       2.232   7.209  19.851  0.00  0.00    +0.000 A 
ATOM     17  C   UNL     1       1.496   8.130  20.590  0.00  0.00    +0.000 A 
BRANCH  12  18
ATOM     18  O   UNL     1       0.260  10.126  20.717  0.00  0.00    +0.000 OA
ATOM     19  H   UNL     1      -0.666   9.840  20.685  0.00  0.00    +0.000 HD
ENDBRANCH  12  18
ENDBRANCH   1  15
TORSDOF 2
ENDMDL
MODEL 4
REMARK VINA RESULT:      -6.6      3.346      4.823
REMARK  Name = 
REMARK  2 active torsions:
REMARK  status: ('A' for Active; 'I' for Inactive)
REMARK    1  A    between atoms: O_1  and  C_2
REMARK    2  A    between atoms: C_5  and  C_6
REMARK                            x       y       z     vdW  Elec       q    Type
REMARK                         _______ _______ _______ _____ _____    ______ ____
ROOT
ATOM      1  C   UNL     1       3.064   5.963  19.910  0.00  0.00    +0.000 C 
ATOM      2  N   UNL     1       2.368   5.246  20.936  0.00  0.00    +0.000 N 
ATOM      3  C   UNL     1       2.300   3.890  20.643  0.00  0.00    +0.000 C 
ATOM      4  S   UNL     1       1.563   2.781  21.627  0.00  0.00    +0.000 S 
ATOM      5  N   UNL     1       2.910   3.713  19.405  0.00  0.00    +0.000 N 
ATOM      6  C   UNL     1       2.781   2.578  18.499  0.00  0.00    +0.000 C 
ATOM      7  C   UNL     1       3.888   2.605  17.441  0.00  0.00    +0.000 C 
ATOM      8  C   UNL     1       4.081   4.007  16.854  0.00  0.00    +0.000 C 
ATOM      9  C   UNL     1       4.293   5.040  17.968  0.00  0.00    +0.000 C 
ATOM     10  N   UNL     1       3.125   4.979  18.827  0.00  0.00    +0.000 NA
ATOM     11  H   UNL     1       1.993   5.657  21.778  0.00  0.00    +0.000 HD
ENDROOT
BRANCH   1  15
ATOM     12  C   UNL     1       1.231   9.649  18.669  0.00  0.00    +0.000 A 
ATOM     13  C   UNL     1       1.052   9.205  19.976  0.00  0.00    +0.000 A 
ATOM     14  C   UNL     1       1.605   7.984  20.373  0.00  0.00    +0.000 A 
ATOM     15  C   UNL     1       2.336   7.207  19.461  0.00  0.00    +0.000 A 
ATOM     16  C   UNL     1       2.462   7.660  18.134  0.00  0.00    +0.000 A 
ATOM     17  C   UNL     1       1.922   8.881  17.743  0.00  0.00    +0.000 A 
BRANCH  12  18
ATOM     18  O   UNL     1       0.751  10.855  18.254  0.00  0.00    +0.000 OA
ATOM     19  H   UNL     1       0.783  10.884  17.285  0.00  0.00    +0.000 HD
ENDBRANCH  12  18
ENDBRANCH   1  15
TORSDOF 2
ENDMDL
MODEL 5
REMARK VINA RESULT:      -6.6      3.639      5.068
REMARK  Name = 
REMARK  2 active torsions:
REMARK  status: ('A' for Active; 'I' for Inactive)
REMARK    1  A    between atoms: O_1  and  C_2
REMARK    2  A    between atoms: C_5  and  C_6
REMARK                            x       y       z     vdW  Elec       q    Type
REMARK                         _______ _______ _______ _____ _____    ______ ____
ROOT
ATOM      1  C   UNL     1       3.208   6.258  17.707  0.00  0.00    +0.000 C 
ATOM      2  N   UNL     1       4.621   6.419  17.872  0.00  0.00    +0.000 N 
ATOM      3  C   UNL     1       5.232   5.209  18.178  0.00  0.00    +0.000 C 
ATOM      4  S   UNL     1       6.860   5.048  18.431  0.00  0.00    +0.000 S 
ATOM      5  N   UNL     1       4.222   4.257  18.259  0.00  0.00    +0.000 N 
ATOM      6  C   UNL     1       4.277   2.948  18.898  0.00  0.00    +0.000 C 
ATOM      7  C   UNL     1       3.102   2.076  18.443  0.00  0.00    +0.000 C 
ATOM      8  C   UNL     1       1.781   2.852  18.451  0.00  0.00    +0.000 C 
ATOM      9  C   UNL     1       1.908   4.152  17.648  0.00  0.00    +0.000 C 
ATOM     10  N   UNL     1       2.979   4.920  18.254  0.00  0.00    +0.000 NA
ATOM     11  H   UNL     1       5.124   7.287  17.760  0.00  0.00    +0.000 HD
ENDROOT
BRANCH   1  15
ATOM     12  C   UNL     1       1.157   9.342  19.892  0.00  0.00    +0.000 A 
ATOM     13  C   UNL     1       1.538   8.177  20.552  0.00  0.00    +0.000 A 
ATOM     14  C   UNL     1       2.162   7.150  19.838  0.00  0.00    +0.000 A 
ATOM     15  C   UNL     1       2.405   7.290  18.462  0.00  0.00    +0.000 A 
ATOM     16  C   UNL     1       1.968   8.460  17.813  0.00  0.00    +0.000 A 
ATOM     17  C   UNL     1       1.358   9.487  18.527  0.00  0.00    +0.000 A 
BRANCH  12  18
ATOM     18  O   UNL     1       0.590  10.386  20.560  0.00  0.00    +0.000 OA
ATOM     19  H   UNL     1       1.040  10.489  21.413  0.00  0.00    +0.000 HD
ENDBRANCH  12  18
ENDBRANCH   1  15
TORSDOF 2
ENDMDL
MODEL 6
REMARK VINA RESULT:      -6.5      2.489      2.942
REMARK  Name = 
REMARK  2 active torsions:
REMARK  status: ('A' for Active; 'I' for Inactive)
REMARK    1  A    between atoms: O_1  and  C_2
REMARK    2  A    between atoms: C_5  and  C_6
REMARK                            x       y       z     vdW  Elec       q    Type
REMARK                         _______ _______ _______ _____ _____    ______ ____
ROOT
ATOM      1  C   UNL     1       4.478   3.622  18.520  0.00  0.00    +0.000 C 
ATOM      2  N   UNL     1       5.255   2.612  19.173  0.00  0.00    +0.000 N 
ATOM      3  C   UNL     1       4.582   2.092  20.272  0.00  0.00    +0.000 C 
ATOM      4  S   UNL     1       5.204   0.905  21.244  0.00  0.00    +0.000 S 
ATOM      5  N   UNL     1       3.381   2.786  20.374  0.00  0.00    +0.000 N 
ATOM      6  C   UNL     1       2.502   2.885  21.533  0.00  0.00    +0.000 C 
ATOM      7  C   UNL     1       1.125   3.415  21.121  0.00  0.00    +0.000 C 
ATOM      8  C   UNL     1       1.237   4.611  20.169  0.00  0.00    +0.000 C 
ATOM      9  C   UNL     1       2.130   4.270  18.969  0.00  0.00    +0.000 C 
ATOM     10  N   UNL     1       3.425   3.891  19.503  0.00  0.00    +0.000 NA
ATOM     11  H   UNL     1       6.164   2.293  18.871  0.00  0.00    +0.000 HD
ENDROOT
BRANCH   1  15
ATOM     12  C   UNL     1       6.845   7.053  17.465  0.00  0.00    +0.000 A 
ATOM     13  C   UNL     1       7.262   6.232  18.510  0.00  0.00    +0.000 A 
ATOM     14  C   UNL     1       6.473   5.143  18.890  0.00  0.00    +0.000 A 
ATOM     15  C   UNL     1       5.266   4.875  18.225  0.00  0.00    +0.000 A 
ATOM     16  C   UNL     1       4.848   5.748  17.203  0.00  0.00    +0.000 A 
ATOM     17  C   UNL     1       5.640   6.825  16.816  0.00  0.00    +0.000 A 
BRANCH  12  18
ATOM     18  O   UNL     1       7.607   8.096  17.032  0.00  0.00    +0.000 OA
ATOM     19  H   UNL     1       7.345   8.894  17.517  0.00  0.00    +0.000 HD
ENDBRANCH  12  18
ENDBRANCH   1  15
TORSDOF 2
ENDMDL
MODEL 7
REMARK VINA RESULT:      -6.5      3.326      4.765
REMARK  Name = 
REMARK  2 active torsions:
REMARK  status: ('A' for Active; 'I' for Inactive)
REMARK    1  A    between atoms: O_1  and  C_2
REMARK    2  A    between atoms: C_5  and  C_6
REMARK                            x       y       z     vdW  Elec       q    Type
REMARK                         _______ _______ _______ _____ _____    ______ ____
ROOT
ATOM      1  C   UNL     1       3.177   5.915  19.882  0.00  0.00    +0.000 C 
ATOM      2  N   UNL     1       2.430   5.252  20.908  0.00  0.00    +0.000 N 
ATOM      3  C   UNL     1       2.264   3.904  20.617  0.00  0.00    +0.000 C 
ATOM      4  S   UNL     1       1.448   2.852  21.600  0.00  0.00    +0.000 S 
ATOM      5  N   UNL     1       2.861   3.683  19.379  0.00  0.00    +0.000 N 
ATOM      6  C   UNL     1       2.650   2.559  18.474  0.00  0.00    +0.000 C 
ATOM      7  C   UNL     1       3.757   2.504  17.417  0.00  0.00    +0.000 C 
ATOM      8  C   UNL     1       4.051   3.888  16.828  0.00  0.00    +0.000 C 
ATOM      9  C   UNL     1       4.336   4.904  17.941  0.00  0.00    +0.000 C 
ATOM     10  N   UNL     1       3.167   4.929  18.799  0.00  0.00    +0.000 NA
ATOM     11  H   UNL     1       2.086   5.690  21.749  0.00  0.00    +0.000 HD
ENDROOT
BRANCH   1  15
ATOM     12  C   UNL     1       1.128   9.456  18.556  0.00  0.00    +0.000 A 
ATOM     13  C   UNL     1       1.950   8.770  17.666  0.00  0.00    +0.000 A 
ATOM     14  C   UNL     1       2.657   7.646  18.103  0.00  0.00    +0.000 A 
ATOM     15  C   UNL     1       2.542   7.209  19.432  0.00  0.00    +0.000 A 
ATOM     16  C   UNL     1       1.739   7.948  20.320  0.00  0.00    +0.000 A 
ATOM     17  C   UNL     1       1.025   9.060  19.882  0.00  0.00    +0.000 A 
BRANCH  12  18
ATOM     18  O   UNL     1       0.385  10.527  18.159  0.00  0.00    +0.000 OA
ATOM     19  H   UNL     1       0.980  11.194  17.781  0.00  0.00    +0.000 HD
ENDBRANCH  12  18
ENDBRANCH   1  15
TORSDOF 2
ENDMDL
MODEL 8
REMARK VINA RESULT:      -6.5      3.607      5.392
REMARK  Name = 
REMARK  2 active torsions:
REMARK  status: ('A' for Active; 'I' for Inactive)
REMARK    1  A    between atoms: O_1  and  C_2
REMARK    2  A    between atoms: C_5  and  C_6
REMARK                            x       y       z     vdW  Elec       q    Type
REMARK                         _______ _______ _______ _____ _____    ______ ____
ROOT
ATOM      1  C   UNL     1       2.830   6.171  19.568  0.00  0.00    +0.000 C 
ATOM      2  N   UNL     1       1.870   5.163  19.906  0.00  0.00    +0.000 N 
ATOM      3  C   UNL     1       2.039   4.026  19.126  0.00  0.00    +0.000 C 
ATOM      4  S   UNL     1       1.092   2.676  19.265  0.00  0.00    +0.000 S 
ATOM      5  N   UNL     1       3.080   4.295  18.242  0.00  0.00    +0.000 N 
ATOM      6  C   UNL     1       3.401   3.599  17.002  0.00  0.00    +0.000 C 
ATOM      7  C   UNL     1       4.815   3.956  16.535  0.00  0.00    +0.000 C 
ATOM      8  C   UNL     1       5.085   5.461  16.634  0.00  0.00    +0.000 C 
ATOM      9  C   UNL     1       4.772   5.979  18.043  0.00  0.00    +0.000 C 
ATOM     10  N   UNL     1       3.379   5.670  18.306  0.00  0.00    +0.000 NA
ATOM     11  H   UNL     1       1.173   5.246  20.631  0.00  0.00    +0.000 HD
ENDROOT
BRANCH   1  15
ATOM     12  C   UNL     1       0.820   9.928  18.996  0.00  0.00    +0.000 A 
ATOM     13  C   UNL     1       1.483   9.340  17.923  0.00  0.00    +0.000 A 
ATOM     14  C   UNL     1       2.179   8.143  18.113  0.00  0.00    +0.000 A 
ATOM     15  C   UNL     1       2.212   7.535  19.378  0.00  0.00    +0.000 A 
ATOM     16  C   UNL     1       1.570   8.176  20.454  0.00  0.00    +0.000 A 
ATOM     17  C   UNL     1       0.867   9.362  20.262  0.00  0.00    +0.000 A 
BRANCH  12  18
ATOM     18  O   UNL     1       0.090  11.069  18.844  0.00  0.00    +0.000 OA
ATOM     19  H   UNL     1       0.488  11.766  19.389  0.00  0.00    +0.000 HD
ENDBRANCH  12  18
ENDBRANCH   1  15
TORSDOF 2
ENDMDL
MODEL 9
REMARK VINA RESULT:      -6.4      2.565      3.414
REMARK  Name = 
REMARK  2 active torsions:
REMARK  status: ('A' for Active; 'I' for Inactive)
REMARK    1  A    between atoms: O_1  and  C_2
REMARK    2  A    between atoms: C_5  and  C_6
REMARK                            x       y       z     vdW  Elec       q    Type
REMARK                         _______ _______ _______ _____ _____    ______ ____
ROOT
ATOM      1  C   UNL     1       4.402   4.852  17.711  0.00  0.00    +0.000 C 
ATOM      2  N   UNL     1       4.643   3.445  17.597  0.00  0.00    +0.000 N 
ATOM      3  C   UNL     1       3.791   2.722  18.423  0.00  0.00    +0.000 C 
ATOM      4  S   UNL     1       3.809   1.070  18.527  0.00  0.00    +0.000 S 
ATOM      5  N   UNL     1       3.018   3.648  19.115  0.00  0.00    +0.000 N 
ATOM      6  C   UNL     1       2.254   3.437  20.340  0.00  0.00    +0.000 C 
ATOM      7  C   UNL     1       1.261   4.583  20.558  0.00  0.00    +0.000 C 
ATOM      8  C   UNL     1       1.906   5.950  20.311  0.00  0.00    +0.000 C 
ATOM      9  C   UNL     1       2.576   5.995  18.932  0.00  0.00    +0.000 C 
ATOM     10  N   UNL     1       3.561   4.931  18.907  0.00  0.00    +0.000 NA
ATOM     11  H   UNL     1       5.321   3.021  16.983  0.00  0.00    +0.000 HD
ENDROOT
BRANCH   1  15
ATOM     12  C   UNL     1       7.882   7.267  18.449  0.00  0.00    +0.000 A 
ATOM     13  C   UNL     1       6.996   7.639  17.442  0.00  0.00    +0.000 A 
ATOM     14  C   UNL     1       5.888   6.833  17.164  0.00  0.00    +0.000 A 
ATOM     15  C   UNL     1       5.668   5.655  17.894  0.00  0.00    +0.000 A 
ATOM     16  C   UNL     1       6.605   5.281  18.876  0.00  0.00    +0.000 A 
ATOM     17  C   UNL     1       7.701   6.090  19.161  0.00  0.00    +0.000 A 
BRANCH  12  18
ATOM     18  O   UNL     1       8.948   8.048  18.785  0.00  0.00    +0.000 OA
ATOM     19  H   UNL     1       8.735   8.970  18.571  0.00  0.00    +0.000 HD
ENDBRANCH  12  18
ENDBRANCH   1  15
TORSDOF 2
ENDMDL
