MODEL 1
REMARK VINA RESULT:      -7.6      0.000      0.000
REMARK  Name = 
REMARK  9 active torsions:
REMARK  status: ('A' for Active; 'I' for Inactive)
REMARK    1  A    between atoms: C_2  and  C_3
REMARK    2  A    between atoms: C_6  and  O_7
REMARK    3  A    between atoms: O_7  and  C_8
REMARK    4  A    between atoms: C_8  and  C_9
REMARK    5  A    between atoms: N_11  and  C_12
REMARK    6  A    between atoms: C_12  and  C_13
REMARK    7  A    between atoms: C_13  and  C_14
REMARK    8  A    between atoms: C_17  and  S_18
REMARK    9  A    between atoms: S_18  and  N_19
REMARK                            x       y       z     vdW  Elec       q    Type
REMARK                         _______ _______ _______ _____ _____    ______ ____
ROOT
ATOM      1  C   UNL     1       7.616   7.111  17.730  0.00  0.00    +0.000 C 
ATOM      2  O   UNL     1       7.554   6.416  18.740  0.00  0.00    +0.000 OA
ATOM      3  N   UNL     1       7.322   6.634  16.462  0.00  0.00    +0.000 N 
ATOM      4  H   UNL     1       7.678   7.163  15.676  0.00  0.00    +0.000 HD
ENDROOT
BRANCH   1   5
ATOM      5  C   UNL     1       8.002   8.589  17.778  0.00  0.00    +0.000 C 
BRANCH   5   6
ATOM      6  O   UNL     1       8.831   8.818  18.912  0.00  0.00    +0.000 OA
BRANCH   6  10
ATOM      7  C   UNL     1       9.851  12.846  19.317  0.00  0.00    +0.000 A 
ATOM      8  C   UNL     1       9.675  12.254  18.064  0.00  0.00    +0.000 A 
ATOM      9  C   UNL     1       9.348  10.897  17.971  0.00  0.00    +0.000 A 
ATOM     10  C   UNL     1       9.210  10.116  19.122  0.00  0.00    +0.000 A 
ATOM     11  C   UNL     1       9.389  10.706  20.373  0.00  0.00    +0.000 A 
ATOM     12  C   UNL     1       9.709  12.067  20.471  0.00  0.00    +0.000 A 
BRANCH   7  14
ATOM     13  N   UNL     1      10.402  15.374  19.506  0.00  0.00    +0.000 NA
ATOM     14  C   UNL     1      10.162  14.242  19.422  0.00  0.00    +0.000 C 
ENDBRANCH   7  14
ENDBRANCH   6  10
ENDBRANCH   5   6
ENDBRANCH   1   5
BRANCH   3  15
ATOM     15  C   UNL     1       7.045   5.219  16.259  0.00  0.00    +0.000 C 
BRANCH  15  16
ATOM     16  C   UNL     1       5.650   4.972  15.679  0.00  0.00    +0.000 C 
BRANCH  16  17
ATOM     17  C   UNL     1       4.611   4.694  16.742  0.00  0.00    +0.000 A 
ATOM     18  C   UNL     1       4.292   3.373  17.097  0.00  0.00    +0.000 A 
ATOM     19  C   UNL     1       3.351   3.109  18.091  0.00  0.00    +0.000 A 
ATOM     20  C   UNL     1       2.741   4.173  18.756  0.00  0.00    +0.000 A 
ATOM     21  C   UNL     1       3.031   5.494  18.409  0.00  0.00    +0.000 A 
ATOM     22  C   UNL     1       3.970   5.751  17.407  0.00  0.00    +0.000 A 
BRANCH  20  23
ATOM     23  S   UNL     1       1.605   3.840  20.066  0.00  0.00    +0.000 S 
ATOM     24  O   UNL     1       1.265   5.074  20.733  0.00  0.00    +0.000 OA
ATOM     25  O   UNL     1       0.607   2.899  19.611  0.00  0.00    +0.000 OA
BRANCH  23  26
ATOM     26  N   UNL     1       2.590   2.993  21.131  0.00  0.00    +0.000 NA
ATOM     27  H   UNL     1       3.555   3.003  20.802  0.00  0.00    +0.000 HD
ATOM     28  H   UNL     1       2.463   3.340  22.082  0.00  0.00    +0.000 HD
ENDBRANCH  23  26
ENDBRANCH  20  23
ENDBRANCH  16  17
ENDBRANCH  15  16
ENDBRANCH   3  15
TORSDOF 9
ENDMDL
MODEL 2
REMARK VINA RESULT:      -7.5      4.436      7.198
REMARK  Name = 
REMARK  9 active torsions:
REMARK  status: ('A' for Active; 'I' for Inactive)
REMARK    1  A    between atoms: C_2  and  C_3
REMARK    2  A    between atoms: C_6  and  O_7
REMARK    3  A    between atoms: O_7  and  C_8
REMARK    4  A    between atoms: C_8  and  C_9
REMARK    5  A    between atoms: N_11  and  C_12
REMARK    6  A    between atoms: C_12  and  C_13
REMARK    7  A    between atoms: C_13  and  C_14
REMARK    8  A    between atoms: C_17  and  S_18
REMARK    9  A    between atoms: S_18  and  N_19
REMARK                            x       y       z     vdW  Elec       q    Type
REMARK                         _______ _______ _______ _____ _____    ______ ____
ROOT
ATOM      1  C   UNL     1       1.725   3.235  18.071  0.00  0.00    +0.000 C 
ATOM      2  O   UNL     1       0.808   3.894  17.588  0.00  0.00    +0.000 OA
ATOM      3  N   UNL     1       1.979   3.175  19.432  0.00  0.00    +0.000 N 
ATOM      4  H   UNL     1       2.902   2.869  19.716  0.00  0.00    +0.000 HD
ENDROOT
BRANCH   1   5
ATOM      5  C   UNL     1       2.665   2.391  17.211  0.00  0.00    +0.000 C 
BRANCH   5   6
ATOM      6  O   UNL     1       3.979   2.459  17.755  0.00  0.00    +0.000 OA
BRANCH   6  10
ATOM      7  C   UNL     1       6.144   6.017  17.465  0.00  0.00    +0.000 A 
ATOM      8  C   UNL     1       6.056   5.305  18.664  0.00  0.00    +0.000 A 
ATOM      9  C   UNL     1       5.308   4.125  18.723  0.00  0.00    +0.000 A 
ATOM     10  C   UNL     1       4.629   3.652  17.595  0.00  0.00    +0.000 A 
ATOM     11  C   UNL     1       4.715   4.365  16.400  0.00  0.00    +0.000 A 
ATOM     12  C   UNL     1       5.470   5.544  16.333  0.00  0.00    +0.000 A 
BRANCH   7  14
ATOM     13  N   UNL     1       7.574   8.177  17.325  0.00  0.00    +0.000 NA
ATOM     14  C   UNL     1       6.930   7.214  17.388  0.00  0.00    +0.000 C 
ENDBRANCH   7  14
ENDBRANCH   6  10
ENDBRANCH   5   6
ENDBRANCH   1   5
BRANCH   3  15
ATOM     15  C   UNL     1       1.230   4.014  20.355  0.00  0.00    +0.000 C 
BRANCH  15  16
ATOM     16  C   UNL     1       2.107   5.070  21.032  0.00  0.00    +0.000 C 
BRANCH  16  17
ATOM     17  C   UNL     1       1.871   6.464  20.496  0.00  0.00    +0.000 A 
ATOM     18  C   UNL     1       2.375   6.838  19.239  0.00  0.00    +0.000 A 
ATOM     19  C   UNL     1       2.143   8.115  18.728  0.00  0.00    +0.000 A 
ATOM     20  C   UNL     1       1.379   9.019  19.467  0.00  0.00    +0.000 A 
ATOM     21  C   UNL     1       0.881   8.674  20.725  0.00  0.00    +0.000 A 
ATOM     22  C   UNL     1       1.124   7.395  21.234  0.00  0.00    +0.000 A 
BRANCH  20  23
ATOM     23  S   UNL     1       1.022  10.609  18.789  0.00  0.00    +0.000 S 
ATOM     24  O   UNL     1      -0.290  10.592  18.188  0.00  0.00    +0.000 OA
ATOM     25  O   UNL     1       1.442  11.634  19.717  0.00  0.00    +0.000 OA
BRANCH  23  26
ATOM     26  N   UNL     1       2.115  10.662  17.514  0.00  0.00    +0.000 NA
ATOM     27  H   UNL     1       3.069  10.714  17.869  0.00  0.00    +0.000 HD
ATOM     28  H   UNL     1       1.944   9.889  16.870  0.00  0.00    +0.000 HD
ENDBRANCH  23  26
ENDBRANCH  20  23
ENDBRANCH  16  17
ENDBRANCH  15  16
ENDBRANCH   3  15
TORSDOF 9
ENDMDL
MODEL 3
REMARK VINA RESULT:      -7.5      1.065      1.737
REMARK  Name = 
REMARK  9 active torsions:
REMARK  status: ('A' for Active; 'I' for Inactive)
REMARK    1  A    between atoms: C_2  and  C_3
REMARK    2  A    between atoms: C_6  and  O_7
REMARK    3  A    between atoms: O_7  and  C_8
REMARK    4  A    between atoms: C_8  and  C_9
REMARK    5  A    between atoms: N_11  and  C_12
REMARK    6  A    between atoms: C_12  and  C_13
REMARK    7  A    between atoms: C_13  and  C_14
REMARK    8  A    between atoms: C_17  and  S_18
REMARK    9  A    between atoms: S_18  and  N_19
REMARK                            x       y       z     vdW  Elec       q    Type
REMARK                         _______ _______ _______ _____ _____    ______ ____
ROOT
ATOM      1  C   UNL     1       7.759   7.188  17.854  0.00  0.00    +0.000 C 
ATOM      2  O   UNL     1       7.789   6.532  18.891  0.00  0.00    +0.000 OA
ATOM      3  N   UNL     1       7.398   6.651  16.628  0.00  0.00    +0.000 N 
ATOM      4  H   UNL     1       7.683   7.160  15.800  0.00  0.00    +0.000 HD
ENDROOT
BRANCH   1   5
ATOM      5  C   UNL     1       8.096   8.678  17.820  0.00  0.00    +0.000 C 
BRANCH   5   6
ATOM      6  O   UNL     1       8.699   9.048  19.055  0.00  0.00    +0.000 OA
BRANCH   6  10
ATOM      7  C   UNL     1      10.628  12.736  19.382  0.00  0.00    +0.000 A 
ATOM      8  C   UNL     1      10.275  11.989  20.508  0.00  0.00    +0.000 A 
ATOM      9  C   UNL     1       9.616  10.764  20.356  0.00  0.00    +0.000 A 
ATOM     10  C   UNL     1       9.289  10.282  19.085  0.00  0.00    +0.000 A 
ATOM     11  C   UNL     1       9.639  11.030  17.961  0.00  0.00    +0.000 A 
ATOM     12  C   UNL     1      10.306  12.254  18.108  0.00  0.00    +0.000 A 
BRANCH   7  14
ATOM     13  N   UNL     1      11.886  14.991  19.636  0.00  0.00    +0.000 NA
ATOM     14  C   UNL     1      11.326  13.981  19.527  0.00  0.00    +0.000 C 
ENDBRANCH   7  14
ENDBRANCH   6  10
ENDBRANCH   5   6
ENDBRANCH   1   5
BRANCH   3  15
ATOM     15  C   UNL     1       7.158   5.222  16.496  0.00  0.00    +0.000 C 
BRANCH  15  16
ATOM     16  C   UNL     1       5.713   4.904  16.102  0.00  0.00    +0.000 C 
BRANCH  16  17
ATOM     17  C   UNL     1       4.776   4.851  17.288  0.00  0.00    +0.000 A 
ATOM     18  C   UNL     1       3.685   5.732  17.372  0.00  0.00    +0.000 A 
ATOM     19  C   UNL     1       2.805   5.676  18.453  0.00  0.00    +0.000 A 
ATOM     20  C   UNL     1       2.999   4.714  19.444  0.00  0.00    +0.000 A 
ATOM     21  C   UNL     1       4.085   3.837  19.388  0.00  0.00    +0.000 A 
ATOM     22  C   UNL     1       4.967   3.905  18.307  0.00  0.00    +0.000 A 
BRANCH  20  23
ATOM     23  S   UNL     1       1.843   4.592  20.773  0.00  0.00    +0.000 S 
ATOM     24  O   UNL     1       2.401   3.776  21.824  0.00  0.00    +0.000 OA
ATOM     25  O   UNL     1       1.254   5.888  21.020  0.00  0.00    +0.000 OA
BRANCH  23  26
ATOM     26  N   UNL     1       0.637   3.664  20.058  0.00  0.00    +0.000 NA
ATOM     27  H   UNL     1       0.225   4.166  19.273  0.00  0.00    +0.000 HD
ATOM     28  H   UNL     1       0.995   2.737  19.828  0.00  0.00    +0.000 HD
ENDBRANCH  23  26
ENDBRANCH  20  23
ENDBRANCH  16  17
ENDBRANCH  15  16
ENDBRANCH   3  15
TORSDOF 9
ENDMDL
MODEL 4
REMARK VINA RESULT:      -7.2      5.096      6.988
REMARK  Name = 
REMARK  9 active torsions:
REMARK  status: ('A' for Active; 'I' for Inactive)
REMARK    1  A    between atoms: C_2  and  C_3
REMARK    2  A    between atoms: C_6  and  O_7
REMARK    3  A    between atoms: O_7  and  C_8
REMARK    4  A    between atoms: C_8  and  C_9
REMARK    5  A    between atoms: N_11  and  C_12
REMARK    6  A    between atoms: C_12  and  C_13
REMARK    7  A    between atoms: C_13  and  C_14
REMARK    8  A    between atoms: C_17  and  S_18
REMARK    9  A    between atoms: S_18  and  N_19
REMARK                            x       y       z     vdW  Elec       q    Type
REMARK                         _______ _______ _______ _____ _____    ______ ____
ROOT
ATOM      1  C   UNL     1       1.746   4.331  20.612  0.00  0.00    +0.000 C 
ATOM      2  O   UNL     1       1.697   3.540  21.550  0.00  0.00    +0.000 OA
ATOM      3  N   UNL     1       1.596   3.948  19.288  0.00  0.00    +0.000 N 
ATOM      4  H   UNL     1       1.941   4.585  18.582  0.00  0.00    +0.000 HD
ENDROOT
BRANCH   1   5
ATOM      5  C   UNL     1       1.956   5.831  20.819  0.00  0.00    +0.000 C 
BRANCH   5   6
ATOM      6  O   UNL     1       2.466   6.400  19.618  0.00  0.00    +0.000 OA
BRANCH   6  10
ATOM      7  C   UNL     1       1.132  10.303  18.973  0.00  0.00    +0.000 A 
ATOM      8  C   UNL     1       0.908   9.640  20.182  0.00  0.00    +0.000 A 
ATOM      9  C   UNL     1       1.359   8.327  20.353  0.00  0.00    +0.000 A 
ATOM     10  C   UNL     1       2.020   7.658  19.318  0.00  0.00    +0.000 A 
ATOM     11  C   UNL     1       2.240   8.319  18.110  0.00  0.00    +0.000 A 
ATOM     12  C   UNL     1       1.798   9.638  17.937  0.00  0.00    +0.000 A 
BRANCH   7  14
ATOM     13  N   UNL     1       0.355  12.758  18.655  0.00  0.00    +0.000 NA
ATOM     14  C   UNL     1       0.697  11.658  18.797  0.00  0.00    +0.000 C 
ENDBRANCH   7  14
ENDBRANCH   6  10
ENDBRANCH   5   6
ENDBRANCH   1   5
BRANCH   3  15
ATOM     15  C   UNL     1       1.499   2.538  18.941  0.00  0.00    +0.000 C 
BRANCH  15  16
ATOM     16  C   UNL     1       2.799   1.990  18.347  0.00  0.00    +0.000 C 
BRANCH  16  17
ATOM     17  C   UNL     1       3.821   3.069  18.070  0.00  0.00    +0.000 A 
ATOM     18  C   UNL     1       4.785   3.401  19.037  0.00  0.00    +0.000 A 
ATOM     19  C   UNL     1       5.744   4.381  18.781  0.00  0.00    +0.000 A 
ATOM     20  C   UNL     1       5.759   5.016  17.539  0.00  0.00    +0.000 A 
ATOM     21  C   UNL     1       4.802   4.712  16.569  0.00  0.00    +0.000 A 
ATOM     22  C   UNL     1       3.839   3.735  16.835  0.00  0.00    +0.000 A 
BRANCH  20  23
ATOM     23  S   UNL     1       7.019   6.202  17.187  0.00  0.00    +0.000 S 
ATOM     24  O   UNL     1       7.815   6.425  18.369  0.00  0.00    +0.000 OA
ATOM     25  O   UNL     1       7.602   5.916  15.896  0.00  0.00    +0.000 OA
BRANCH  23  26
ATOM     26  N   UNL     1       6.096   7.591  16.981  0.00  0.00    +0.000 NA
ATOM     27  H   UNL     1       5.876   7.725  15.995  0.00  0.00    +0.000 HD
ATOM     28  H   UNL     1       5.283   7.570  17.598  0.00  0.00    +0.000 HD
ENDBRANCH  23  26
ENDBRANCH  20  23
ENDBRANCH  16  17
ENDBRANCH  15  16
ENDBRANCH   3  15
TORSDOF 9
ENDMDL
MODEL 5
REMARK VINA RESULT:      -7.1      1.003      1.162
REMARK  Name = 
REMARK  9 active torsions:
REMARK  status: ('A' for Active; 'I' for Inactive)
REMARK    1  A    between atoms: C_2  and  C_3
REMARK    2  A    between atoms: C_6  and  O_7
REMARK    3  A    between atoms: O_7  and  C_8
REMARK    4  A    between atoms: C_8  and  C_9
REMARK    5  A    between atoms: N_11  and  C_12
REMARK    6  A    between atoms: C_12  and  C_13
REMARK    7  A    between atoms: C_13  and  C_14
REMARK    8  A    between atoms: C_17  and  S_18
REMARK    9  A    between atoms: S_18  and  N_19
REMARK                            x       y       z     vdW  Elec       q    Type
REMARK                         _______ _______ _______ _____ _____    ______ ____
ROOT
ATOM      1  C   UNL     1       7.668   6.208  18.031  0.00  0.00    +0.000 C 
ATOM      2  O   UNL     1       7.467   5.166  18.647  0.00  0.00    +0.000 OA
ATOM      3  N   UNL     1       7.380   6.360  16.683  0.00  0.00    +0.000 N 
ATOM      4  H   UNL     1       7.841   7.119  16.196  0.00  0.00    +0.000 HD
ENDROOT
BRANCH   1   5
ATOM      5  C   UNL     1       8.236   7.458  18.703  0.00  0.00    +0.000 C 
BRANCH   5   6
ATOM      6  O   UNL     1       8.041   8.578  17.846  0.00  0.00    +0.000 OA
BRANCH   6  10
ATOM      7  C   UNL     1       9.488  12.309  19.035  0.00  0.00    +0.000 A 
ATOM      8  C   UNL     1       8.727  12.151  17.875  0.00  0.00    +0.000 A 
ATOM      9  C   UNL     1       8.273  10.881  17.503  0.00  0.00    +0.000 A 
ATOM     10  C   UNL     1       8.587   9.757  18.273  0.00  0.00    +0.000 A 
ATOM     11  C   UNL     1       9.350   9.915  19.430  0.00  0.00    +0.000 A 
ATOM     12  C   UNL     1       9.800  11.187  19.811  0.00  0.00    +0.000 A 
BRANCH   7  14
ATOM     13  N   UNL     1      10.300  14.660  19.773  0.00  0.00    +0.000 NA
ATOM     14  C   UNL     1       9.936  13.611  19.437  0.00  0.00    +0.000 C 
ENDBRANCH   7  14
ENDBRANCH   6  10
ENDBRANCH   5   6
ENDBRANCH   1   5
BRANCH   3  15
ATOM     15  C   UNL     1       6.936   5.219  15.896  0.00  0.00    +0.000 C 
BRANCH  15  16
ATOM     16  C   UNL     1       5.453   5.302  15.527  0.00  0.00    +0.000 C 
BRANCH  16  17
ATOM     17  C   UNL     1       4.541   4.866  16.653  0.00  0.00    +0.000 A 
ATOM     18  C   UNL     1       4.351   3.501  16.926  0.00  0.00    +0.000 A 
ATOM     19  C   UNL     1       3.528   3.092  17.975  0.00  0.00    +0.000 A 
ATOM     20  C   UNL     1       2.910   4.054  18.776  0.00  0.00    +0.000 A 
ATOM     21  C   UNL     1       3.074   5.415  18.513  0.00  0.00    +0.000 A 
ATOM     22  C   UNL     1       3.894   5.818  17.455  0.00  0.00    +0.000 A 
BRANCH  20  23
ATOM     23  S   UNL     1       1.930   3.538  20.150  0.00  0.00    +0.000 S 
ATOM     24  O   UNL     1       0.714   2.926  19.671  0.00  0.00    +0.000 OA
ATOM     25  O   UNL     1       2.778   2.917  21.141  0.00  0.00    +0.000 OA
BRANCH  23  26
ATOM     26  N   UNL     1       1.478   5.024  20.791  0.00  0.00    +0.000 NA
ATOM     27  H   UNL     1       2.292   5.505  21.172  0.00  0.00    +0.000 HD
ATOM     28  H   UNL     1       0.952   5.561  20.102  0.00  0.00    +0.000 HD
ENDBRANCH  23  26
ENDBRANCH  20  23
ENDBRANCH  16  17
ENDBRANCH  15  16
ENDBRANCH   3  15
TORSDOF 9
ENDMDL
MODEL 6
REMARK VINA RESULT:      -7.1      1.251      1.767
REMARK  Name = 
REMARK  9 active torsions:
REMARK  status: ('A' for Active; 'I' for Inactive)
REMARK    1  A    between atoms: C_2  and  C_3
REMARK    2  A    between atoms: C_6  and  O_7
REMARK    3  A    between atoms: O_7  and  C_8
REMARK    4  A    between atoms: C_8  and  C_9
REMARK    5  A    between atoms: N_11  and  C_12
REMARK    6  A    between atoms: C_12  and  C_13
REMARK    7  A    between atoms: C_13  and  C_14
REMARK    8  A    between atoms: C_17  and  S_18
REMARK    9  A    between atoms: S_18  and  N_19
REMARK                            x       y       z     vdW  Elec       q    Type
REMARK                         _______ _______ _______ _____ _____    ______ ____
ROOT
ATOM      1  C   UNL     1       7.982   7.286  18.263  0.00  0.00    +0.000 C 
ATOM      2  O   UNL     1       7.848   6.325  19.015  0.00  0.00    +0.000 OA
ATOM      3  N   UNL     1       7.525   7.294  16.954  0.00  0.00    +0.000 N 
ATOM      4  H   UNL     1       7.929   7.981  16.329  0.00  0.00    +0.000 HD
ENDROOT
BRANCH   1   5
ATOM      5  C   UNL     1       8.649   8.587  18.711  0.00  0.00    +0.000 C 
BRANCH   5   6
ATOM      6  O   UNL     1       8.135   9.665  17.935  0.00  0.00    +0.000 OA
BRANCH   6  10
ATOM      7  C   UNL     1      10.346  13.180  18.360  0.00  0.00    +0.000 A 
ATOM      8  C   UNL     1      10.816  11.954  18.838  0.00  0.00    +0.000 A 
ATOM      9  C   UNL     1      10.037  10.802  18.689  0.00  0.00    +0.000 A 
ATOM     10  C   UNL     1       8.781  10.862  18.079  0.00  0.00    +0.000 A 
ATOM     11  C   UNL     1       8.311  12.088  17.606  0.00  0.00    +0.000 A 
ATOM     12  C   UNL     1       9.091  13.244  17.745  0.00  0.00    +0.000 A 
BRANCH   7  14
ATOM     13  N   UNL     1      11.802  15.315  18.596  0.00  0.00    +0.000 NA
ATOM     14  C   UNL     1      11.149  14.363  18.486  0.00  0.00    +0.000 C 
ENDBRANCH   7  14
ENDBRANCH   6  10
ENDBRANCH   5   6
ENDBRANCH   1   5
BRANCH   3  15
ATOM     15  C   UNL     1       6.969   6.085  16.366  0.00  0.00    +0.000 C 
BRANCH  15  16
ATOM     16  C   UNL     1       5.465   6.198  16.105  0.00  0.00    +0.000 C 
BRANCH  16  17
ATOM     17  C   UNL     1       4.635   5.401  17.087  0.00  0.00    +0.000 A 
ATOM     18  C   UNL     1       4.282   5.950  18.331  0.00  0.00    +0.000 A 
ATOM     19  C   UNL     1       3.500   5.229  19.233  0.00  0.00    +0.000 A 
ATOM     20  C   UNL     1       3.043   3.960  18.880  0.00  0.00    +0.000 A 
ATOM     21  C   UNL     1       3.394   3.388  17.655  0.00  0.00    +0.000 A 
ATOM     22  C   UNL     1       4.184   4.113  16.759  0.00  0.00    +0.000 A 
BRANCH  20  23
ATOM     23  S   UNL     1       1.991   3.077  19.989  0.00  0.00    +0.000 S 
ATOM     24  O   UNL     1       2.762   2.611  21.116  0.00  0.00    +0.000 OA
ATOM     25  O   UNL     1       0.743   3.790  20.139  0.00  0.00    +0.000 OA
BRANCH  23  26
ATOM     26  N   UNL     1       1.638   1.713  19.073  0.00  0.00    +0.000 NA
ATOM     27  H   UNL     1       2.489   1.342  18.653  0.00  0.00    +0.000 HD
ATOM     28  H   UNL     1       1.111   1.040  19.629  0.00  0.00    +0.000 HD
ENDBRANCH  23  26
ENDBRANCH  20  23
ENDBRANCH  16  17
ENDBRANCH  15  16
ENDBRANCH   3  15
TORSDOF 9
ENDMDL
MODEL 7
REMARK VINA RESULT:      -6.9      3.455      9.796
REMARK  Name = 
REMARK  9 active torsions:
REMARK  status: ('A' for Active; 'I' for Inactive)
REMARK    1  A    between atoms: C_2  and  C_3
REMARK    2  A    between atoms: C_6  and  O_7
REMARK    3  A    between atoms: O_7  and  C_8
REMARK    4  A    between atoms: C_8  and  C_9
REMARK    5  A    between atoms: N_11  and  C_12
REMARK    6  A    between atoms: C_12  and  C_13
REMARK    7  A    between atoms: C_13  and  C_14
REMARK    8  A    between atoms: C_17  and  S_18
REMARK    9  A    between atoms: S_18  and  N_19
REMARK                            x       y       z     vdW  Elec       q    Type
REMARK                         _______ _______ _______ _____ _____    ______ ____
ROOT
ATOM      1  C   UNL     1       6.993   5.757  16.801  0.00  0.00    +0.000 C 
ATOM      2  O   UNL     1       7.659   6.014  15.802  0.00  0.00    +0.000 OA
ATOM      3  N   UNL     1       7.100   6.467  17.987  0.00  0.00    +0.000 N 
ATOM      4  H   UNL     1       6.754   6.018  18.826  0.00  0.00    +0.000 HD
ENDROOT
BRANCH   1   5
ATOM      5  C   UNL     1       5.954   4.636  16.824  0.00  0.00    +0.000 C 
BRANCH   5   6
ATOM      6  O   UNL     1       4.660   5.204  16.997  0.00  0.00    +0.000 OA
BRANCH   6  10
ATOM      7  C   UNL     1       2.619   3.532  20.233  0.00  0.00    +0.000 A 
ATOM      8  C   UNL     1       3.159   2.741  19.217  0.00  0.00    +0.000 A 
ATOM      9  C   UNL     1       3.823   3.341  18.142  0.00  0.00    +0.000 A 
ATOM     10  C   UNL     1       3.941   4.732  18.061  0.00  0.00    +0.000 A 
ATOM     11  C   UNL     1       3.398   5.522  19.075  0.00  0.00    +0.000 A 
ATOM     12  C   UNL     1       2.739   4.925  20.158  0.00  0.00    +0.000 A 
BRANCH   7  14
ATOM     13  N   UNL     1       1.419   2.442  22.258  0.00  0.00    +0.000 NA
ATOM     14  C   UNL     1       1.959   2.924  21.352  0.00  0.00    +0.000 C 
ENDBRANCH   7  14
ENDBRANCH   6  10
ENDBRANCH   5   6
ENDBRANCH   1   5
BRANCH   3  15
ATOM     15  C   UNL     1       8.126   7.488  18.139  0.00  0.00    +0.000 C 
BRANCH  15  16
ATOM     16  C   UNL     1       7.716   8.827  17.520  0.00  0.00    +0.000 C 
BRANCH  16  17
ATOM     17  C   UNL     1       8.460  10.003  18.113  0.00  0.00    +0.000 A 
ATOM     18  C   UNL     1       9.359   9.812  19.176  0.00  0.00    +0.000 A 
ATOM     19  C   UNL     1      10.065  10.888  19.715  0.00  0.00    +0.000 A 
ATOM     20  C   UNL     1       9.893  12.160  19.170  0.00  0.00    +0.000 A 
ATOM     21  C   UNL     1       8.995  12.375  18.123  0.00  0.00    +0.000 A 
ATOM     22  C   UNL     1       8.285  11.294  17.594  0.00  0.00    +0.000 A 
BRANCH  20  23
ATOM     23  S   UNL     1      10.843  13.509  19.801  0.00  0.00    +0.000 S 
ATOM     24  O   UNL     1      10.100  14.174  20.844  0.00  0.00    +0.000 OA
ATOM     25  O   UNL     1      12.218  13.096  19.963  0.00  0.00    +0.000 OA
BRANCH  23  26
ATOM     26  N   UNL     1      10.824  14.552  18.483  0.00  0.00    +0.000 NA
ATOM     27  H   UNL     1      11.724  14.533  18.006  0.00  0.00    +0.000 HD
ATOM     28  H   UNL     1      10.023  14.350  17.884  0.00  0.00    +0.000 HD
ENDBRANCH  23  26
ENDBRANCH  20  23
ENDBRANCH  16  17
ENDBRANCH  15  16
ENDBRANCH   3  15
TORSDOF 9
ENDMDL
MODEL 8
REMARK VINA RESULT:      -6.9      5.640      8.668
REMARK  Name = 
REMARK  9 active torsions:
REMARK  status: ('A' for Active; 'I' for Inactive)
REMARK    1  A    between atoms: C_2  and  C_3
REMARK    2  A    between atoms: C_6  and  O_7
REMARK    3  A    between atoms: O_7  and  C_8
REMARK    4  A    between atoms: C_8  and  C_9
REMARK    5  A    between atoms: N_11  and  C_12
REMARK    6  A    between atoms: C_12  and  C_13
REMARK    7  A    between atoms: C_13  and  C_14
REMARK    8  A    between atoms: C_17  and  S_18
REMARK    9  A    between atoms: S_18  and  N_19
REMARK                            x       y       z     vdW  Elec       q    Type
REMARK                         _______ _______ _______ _____ _____    ______ ____
ROOT
ATOM      1  C   UNL     1       1.415   8.409  20.490  0.00  0.00    +0.000 C 
ATOM      2  O   UNL     1       1.297   8.553  21.703  0.00  0.00    +0.000 OA
ATOM      3  N   UNL     1       1.638   7.179  19.891  0.00  0.00    +0.000 N 
ATOM      4  H   UNL     1       2.015   7.185  18.951  0.00  0.00    +0.000 HD
ENDROOT
BRANCH   1   5
ATOM      5  C   UNL     1       1.303   9.579  19.513  0.00  0.00    +0.000 C 
BRANCH   5   6
ATOM      6  O   UNL     1       0.557  10.626  20.125  0.00  0.00    +0.000 OA
BRANCH   6  10
ATOM      7  C   UNL     1      -3.033  11.391  18.136  0.00  0.00    +0.000 A 
ATOM      8  C   UNL     1      -2.098  10.478  17.642  0.00  0.00    +0.000 A 
ATOM      9  C   UNL     1      -0.901  10.261  18.331  0.00  0.00    +0.000 A 
ATOM     10  C   UNL     1      -0.616  10.962  19.506  0.00  0.00    +0.000 A 
ATOM     11  C   UNL     1      -1.548  11.877  19.997  0.00  0.00    +0.000 A 
ATOM     12  C   UNL     1      -2.753  12.091  19.315  0.00  0.00    +0.000 A 
BRANCH   7  14
ATOM     13  N   UNL     1      -5.283  11.761  16.899  0.00  0.00    +0.000 NA
ATOM     14  C   UNL     1      -4.275  11.601  17.450  0.00  0.00    +0.000 C 
ENDBRANCH   7  14
ENDBRANCH   6  10
ENDBRANCH   5   6
ENDBRANCH   1   5
BRANCH   3  15
ATOM     15  C   UNL     1       1.874   5.998  20.709  0.00  0.00    +0.000 C 
BRANCH  15  16
ATOM     16  C   UNL     1       2.010   4.723  19.873  0.00  0.00    +0.000 C 
BRANCH  16  17
ATOM     17  C   UNL     1       3.243   4.721  18.998  0.00  0.00    +0.000 A 
ATOM     18  C   UNL     1       3.145   4.412  17.631  0.00  0.00    +0.000 A 
ATOM     19  C   UNL     1       4.275   4.428  16.813  0.00  0.00    +0.000 A 
ATOM     20  C   UNL     1       5.509   4.784  17.357  0.00  0.00    +0.000 A 
ATOM     21  C   UNL     1       5.632   5.081  18.716  0.00  0.00    +0.000 A 
ATOM     22  C   UNL     1       4.497   5.055  19.531  0.00  0.00    +0.000 A 
BRANCH  20  23
ATOM     23  S   UNL     1       6.925   4.879  16.308  0.00  0.00    +0.000 S 
ATOM     24  O   UNL     1       6.743   4.006  15.173  0.00  0.00    +0.000 OA
ATOM     25  O   UNL     1       7.334   6.258  16.174  0.00  0.00    +0.000 OA
BRANCH  23  26
ATOM     26  N   UNL     1       8.085   4.143  17.275  0.00  0.00    +0.000 NA
ATOM     27  H   UNL     1       8.605   3.451  16.738  0.00  0.00    +0.000 HD
ATOM     28  H   UNL     1       8.665   4.849  17.731  0.00  0.00    +0.000 HD
ENDBRANCH  23  26
ENDBRANCH  20  23
ENDBRANCH  16  17
ENDBRANCH  15  16
ENDBRANCH   3  15
TORSDOF 9
ENDMDL
MODEL 9
REMARK VINA RESULT:      -6.9      5.506      8.618
REMARK  Name = 
REMARK  9 active torsions:
REMARK  status: ('A' for Active; 'I' for Inactive)
REMARK    1  A    between atoms: C_2  and  C_3
REMARK    2  A    between atoms: C_6  and  O_7
REMARK    3  A    between atoms: O_7  and  C_8
REMARK    4  A    between atoms: C_8  and  C_9
REMARK    5  A    between atoms: N_11  and  C_12
REMARK    6  A    between atoms: C_12  and  C_13
REMARK    7  A    between atoms: C_13  and  C_14
REMARK    8  A    between atoms: C_17  and  S_18
REMARK    9  A    between atoms: S_18  and  N_19
REMARK                            x       y       z     vdW  Elec       q    Type
REMARK                         _______ _______ _______ _____ _____    ______ ____
ROOT
ATOM      1  C   UNL     1       0.703   8.428  21.227  0.00  0.00    +0.000 C 
ATOM      2  O   UNL     1      -0.347   7.823  21.420  0.00  0.00    +0.000 OA
ATOM      3  N   UNL     1       1.868   7.809  20.798  0.00  0.00    +0.000 N 
ATOM      4  H   UNL     1       2.737   8.306  20.952  0.00  0.00    +0.000 HD
ENDROOT
BRANCH   1   5
ATOM      5  C   UNL     1       0.822   9.940  21.418  0.00  0.00    +0.000 C 
BRANCH   5   6
ATOM      6  O   UNL     1       0.977  10.560  20.146  0.00  0.00    +0.000 OA
BRANCH   6  10
ATOM      7  C   UNL     1      -2.570  11.249  18.054  0.00  0.00    +0.000 A 
ATOM      8  C   UNL     1      -1.628  10.315  17.616  0.00  0.00    +0.000 A 
ATOM      9  C   UNL     1      -0.445  10.125  18.338  0.00  0.00    +0.000 A 
ATOM     10  C   UNL     1      -0.183  10.872  19.490  0.00  0.00    +0.000 A 
ATOM     11  C   UNL     1      -1.123  11.807  19.925  0.00  0.00    +0.000 A 
ATOM     12  C   UNL     1      -2.313  11.995  19.209  0.00  0.00    +0.000 A 
BRANCH   7  14
ATOM     13  N   UNL     1      -4.787  11.591  16.749  0.00  0.00    +0.000 NA
ATOM     14  C   UNL     1      -3.798  11.433  17.335  0.00  0.00    +0.000 C 
ENDBRANCH   7  14
ENDBRANCH   6  10
ENDBRANCH   5   6
ENDBRANCH   1   5
BRANCH   3  15
ATOM     15  C   UNL     1       1.926   6.360  20.682  0.00  0.00    +0.000 C 
BRANCH  15  16
ATOM     16  C   UNL     1       1.690   5.877  19.248  0.00  0.00    +0.000 C 
BRANCH  16  17
ATOM     17  C   UNL     1       2.976   5.638  18.489  0.00  0.00    +0.000 A 
ATOM     18  C   UNL     1       3.641   6.705  17.861  0.00  0.00    +0.000 A 
ATOM     19  C   UNL     1       4.838   6.496  17.177  0.00  0.00    +0.000 A 
ATOM     20  C   UNL     1       5.391   5.216  17.141  0.00  0.00    +0.000 A 
ATOM     21  C   UNL     1       4.740   4.138  17.745  0.00  0.00    +0.000 A 
ATOM     22  C   UNL     1       3.537   4.353  18.422  0.00  0.00    +0.000 A 
BRANCH  20  23
ATOM     23  S   UNL     1       6.944   4.965  16.339  0.00  0.00    +0.000 S 
ATOM     24  O   UNL     1       6.798   3.963  15.311  0.00  0.00    +0.000 OA
ATOM     25  O   UNL     1       7.575   6.242  16.101  0.00  0.00    +0.000 OA
BRANCH  23  26
ATOM     26  N   UNL     1       7.822   4.237  17.574  0.00  0.00    +0.000 NA
ATOM     27  H   UNL     1       8.368   4.935  18.077  0.00  0.00    +0.000 HD
ATOM     28  H   UNL     1       7.206   3.676  18.162  0.00  0.00    +0.000 HD
ENDBRANCH  23  26
ENDBRANCH  20  23
ENDBRANCH  16  17
ENDBRANCH  15  16
ENDBRANCH   3  15
TORSDOF 9
ENDMDL
