MODEL 1
REMARK VINA RESULT:      -7.3      0.000      0.000
REMARK  Name = 
REMARK  7 active torsions:
REMARK  status: ('A' for Active; 'I' for Inactive)
REMARK    1  A    between atoms: C_1  and  C_2
REMARK    2  A    between atoms: C_2  and  C_3
REMARK    3  A    between atoms: C_3  and  N_4
REMARK    4  A    between atoms: C_11  and  C_12
REMARK    5  A    between atoms: C_12  and  N_13
REMARK    6  A    between atoms: C_14  and  C_16
REMARK    7  A    between atoms: N_20  and  C_21
REMARK                            x       y       z     vdW  Elec       q    Type
REMARK                         _______ _______ _______ _____ _____    ______ ____
ROOT
ATOM      1  N   UNL     1       2.269   3.459  18.503  0.00  0.00    +0.000 NA
ATOM      2  C   UNL     1       3.387   2.668  17.943  0.00  0.00    +0.000 C 
ATOM      3  C   UNL     1       4.336   3.412  17.008  0.00  0.00    +0.000 C 
ATOM      4  C   UNL     1       5.101   4.516  17.719  0.00  0.00    +0.000 C 
ATOM      5  N   UNL     1       4.316   5.738  17.784  0.00  0.00    +0.000 N 
ATOM      6  C   UNL     1       3.160   5.811  18.535  0.00  0.00    +0.000 A 
ATOM      7  N   UNL     1       2.424   6.882  18.611  0.00  0.00    +0.000 NA
ATOM      8  C   UNL     1       2.794   7.983  17.872  0.00  0.00    +0.000 A 
ATOM      9  C   UNL     1       3.868   7.999  17.081  0.00  0.00    +0.000 A 
ATOM     10  C   UNL     1       4.711   6.800  16.999  0.00  0.00    +0.000 A 
ATOM     11  O   UNL     1       5.680   6.806  16.246  0.00  0.00    +0.000 OA
ATOM     12  C   UNL     1       2.744   4.577  19.358  0.00  0.00    +0.000 C 
ENDROOT
BRANCH   1  13
ATOM     13  C   UNL     1       1.406   2.519  19.265  0.00  0.00    +0.000 C 
BRANCH  13  15
ATOM     14  C   UNL     1       1.622   2.487  21.783  0.00  0.00    +0.000 C 
ATOM     15  C   UNL     1       0.859   3.055  20.594  0.00  0.00    +0.000 C 
ENDBRANCH  13  15
ENDBRANCH   1  13
BRANCH   8  16
ATOM     16  C   UNL     1       1.867   9.174  17.901  0.00  0.00    +0.000 C 
BRANCH  16  17
ATOM     17  N   UNL     1       1.409   9.444  19.244  0.00  0.00    +0.000 N 
ATOM     18  C   UNL     1       0.113   9.869  19.470  0.00  0.00    +0.000 C 
ATOM     19  O   UNL     1      -0.664  10.092  18.545  0.00  0.00    +0.000 OA
ATOM     20  H   UNL     1       1.949   9.154  20.054  0.00  0.00    +0.000 HD
BRANCH  18  21
ATOM     21  C   UNL     1      -0.231  10.030  20.874  0.00  0.00    +0.000 A 
ATOM     22  N   UNL     1      -0.277   9.031  21.744  0.00  0.00    +0.000 NA
ATOM     23  C   UNL     1      -0.589   9.599  22.953  0.00  0.00    +0.000 A 
ATOM     24  C   UNL     1      -0.760  10.957  22.825  0.00  0.00    +0.000 A 
ATOM     25  N   UNL     1      -0.541  11.218  21.503  0.00  0.00    +0.000 N 
ATOM     26  C   UNL     1      -0.635  12.518  20.880  0.00  0.00    +0.000 C 
ENDBRANCH  18  21
ENDBRANCH  16  17
ENDBRANCH   8  16
TORSDOF 5
ENDMDL
MODEL 2
REMARK VINA RESULT:      -7.2      2.655      8.009
REMARK  Name = 
REMARK  7 active torsions:
REMARK  status: ('A' for Active; 'I' for Inactive)
REMARK    1  A    between atoms: C_1  and  C_2
REMARK    2  A    between atoms: C_2  and  C_3
REMARK    3  A    between atoms: C_3  and  N_4
REMARK    4  A    between atoms: C_11  and  C_12
REMARK    5  A    between atoms: C_12  and  N_13
REMARK    6  A    between atoms: C_14  and  C_16
REMARK    7  A    between atoms: N_20  and  C_21
REMARK                            x       y       z     vdW  Elec       q    Type
REMARK                         _______ _______ _______ _____ _____    ______ ____
ROOT
ATOM      1  N   UNL     1      -1.389  10.949  18.668  0.00  0.00    +0.000 NA
ATOM      2  C   UNL     1      -1.842  11.938  19.671  0.00  0.00    +0.000 C 
ATOM      3  C   UNL     1      -1.520  11.615  21.128  0.00  0.00    +0.000 C 
ATOM      4  C   UNL     1      -0.025  11.603  21.401  0.00  0.00    +0.000 C 
ATOM      5  N   UNL     1       0.558  10.316  21.057  0.00  0.00    +0.000 N 
ATOM      6  C   UNL     1       0.612   9.876  19.750  0.00  0.00    +0.000 A 
ATOM      7  N   UNL     1       1.116   8.727  19.402  0.00  0.00    +0.000 NA
ATOM      8  C   UNL     1       1.579   7.892  20.393  0.00  0.00    +0.000 A 
ATOM      9  C   UNL     1       1.531   8.204  21.689  0.00  0.00    +0.000 A 
ATOM     10  C   UNL     1       0.976   9.503  22.089  0.00  0.00    +0.000 A 
ATOM     11  O   UNL     1       0.903   9.775  23.284  0.00  0.00    +0.000 OA
ATOM     12  C   UNL     1       0.090  10.811  18.642  0.00  0.00    +0.000 C 
ENDROOT
BRANCH   1  13
ATOM     13  C   UNL     1      -1.919  11.388  17.351  0.00  0.00    +0.000 C 
BRANCH  13  15
ATOM     14  C   UNL     1      -2.830  10.214  15.306  0.00  0.00    +0.000 C 
ATOM     15  C   UNL     1      -3.056  10.533  16.779  0.00  0.00    +0.000 C 
ENDBRANCH  13  15
ENDBRANCH   1  13
BRANCH   8  16
ATOM     16  C   UNL     1       2.064   6.525  19.969  0.00  0.00    +0.000 C 
BRANCH  16  17
ATOM     17  N   UNL     1       3.467   6.554  19.628  0.00  0.00    +0.000 N 
ATOM     18  C   UNL     1       4.130   5.389  19.291  0.00  0.00    +0.000 C 
ATOM     19  O   UNL     1       3.574   4.295  19.333  0.00  0.00    +0.000 OA
ATOM     20  H   UNL     1       3.947   7.431  19.444  0.00  0.00    +0.000 HD
BRANCH  18  21
ATOM     21  C   UNL     1       5.518   5.579  18.899  0.00  0.00    +0.000 A 
ATOM     22  N   UNL     1       6.552   5.327  19.689  0.00  0.00    +0.000 NA
ATOM     23  C   UNL     1       7.670   5.587  18.940  0.00  0.00    +0.000 A 
ATOM     24  C   UNL     1       7.326   6.025  17.684  0.00  0.00    +0.000 A 
ATOM     25  N   UNL     1       5.961   6.026  17.672  0.00  0.00    +0.000 N 
ATOM     26  C   UNL     1       5.134   6.441  16.562  0.00  0.00    +0.000 C 
ENDBRANCH  18  21
ENDBRANCH  16  17
ENDBRANCH   8  16
TORSDOF 5
ENDMDL
MODEL 3
REMARK VINA RESULT:      -7.1      2.462      4.389
REMARK  Name = 
REMARK  7 active torsions:
REMARK  status: ('A' for Active; 'I' for Inactive)
REMARK    1  A    between atoms: C_1  and  C_2
REMARK    2  A    between atoms: C_2  and  C_3
REMARK    3  A    between atoms: C_3  and  N_4
REMARK    4  A    between atoms: C_11  and  C_12
REMARK    5  A    between atoms: C_12  and  N_13
REMARK    6  A    between atoms: C_14  and  C_16
REMARK    7  A    between atoms: N_20  and  C_21
REMARK                            x       y       z     vdW  Elec       q    Type
REMARK                         _______ _______ _______ _____ _____    ______ ____
ROOT
ATOM      1  N   UNL     1       5.488   6.221  17.887  0.00  0.00    +0.000 NA
ATOM      2  C   UNL     1       5.689   4.786  17.587  0.00  0.00    +0.000 C 
ATOM      3  C   UNL     1       4.839   3.805  18.390  0.00  0.00    +0.000 C 
ATOM      4  C   UNL     1       3.355   3.949  18.093  0.00  0.00    +0.000 C 
ATOM      5  N   UNL     1       2.763   5.010  18.891  0.00  0.00    +0.000 N 
ATOM      6  C   UNL     1       3.111   6.332  18.702  0.00  0.00    +0.000 A 
ATOM      7  N   UNL     1       2.612   7.310  19.402  0.00  0.00    +0.000 NA
ATOM      8  C   UNL     1       1.725   7.004  20.409  0.00  0.00    +0.000 A 
ATOM      9  C   UNL     1       1.358   5.756  20.702  0.00  0.00    +0.000 A 
ATOM     10  C   UNL     1       1.907   4.648  19.909  0.00  0.00    +0.000 A 
ATOM     11  O   UNL     1       1.593   3.498  20.200  0.00  0.00    +0.000 OA
ATOM     12  C   UNL     1       4.107   6.672  17.577  0.00  0.00    +0.000 C 
ENDROOT
BRANCH   1  13
ATOM     13  C   UNL     1       6.498   6.977  17.102  0.00  0.00    +0.000 C 
BRANCH  13  15
ATOM     14  C   UNL     1       8.056   8.822  17.850  0.00  0.00    +0.000 C 
ATOM     15  C   UNL     1       7.792   7.321  17.850  0.00  0.00    +0.000 C 
ENDBRANCH  13  15
ENDBRANCH   1  13
BRANCH   8  16
ATOM     16  C   UNL     1       1.242   8.148  21.270  0.00  0.00    +0.000 C 
BRANCH  16  17
ATOM     17  N   UNL     1       0.569   9.148  20.475  0.00  0.00    +0.000 N 
ATOM     18  C   UNL     1       0.404  10.432  20.958  0.00  0.00    +0.000 C 
ATOM     19  O   UNL     1       0.762  10.747  22.090  0.00  0.00    +0.000 OA
ATOM     20  H   UNL     1       0.372   8.995  19.490  0.00  0.00    +0.000 HD
BRANCH  18  21
ATOM     21  C   UNL     1      -0.224  11.352  20.021  0.00  0.00    +0.000 A 
ATOM     22  N   UNL     1      -1.517  11.643  20.024  0.00  0.00    +0.000 NA
ATOM     23  C   UNL     1      -1.696  12.570  19.030  0.00  0.00    +0.000 A 
ATOM     24  C   UNL     1      -0.509  12.838  18.392  0.00  0.00    +0.000 A 
ATOM     25  N   UNL     1       0.415  12.054  19.021  0.00  0.00    +0.000 N 
ATOM     26  C   UNL     1       1.815  11.971  18.677  0.00  0.00    +0.000 C 
ENDBRANCH  18  21
ENDBRANCH  16  17
ENDBRANCH   8  16
TORSDOF 5
ENDMDL
MODEL 4
REMARK VINA RESULT:      -7.1      2.282      4.364
REMARK  Name = 
REMARK  7 active torsions:
REMARK  status: ('A' for Active; 'I' for Inactive)
REMARK    1  A    between atoms: C_1  and  C_2
REMARK    2  A    between atoms: C_2  and  C_3
REMARK    3  A    between atoms: C_3  and  N_4
REMARK    4  A    between atoms: C_11  and  C_12
REMARK    5  A    between atoms: C_12  and  N_13
REMARK    6  A    between atoms: C_14  and  C_16
REMARK    7  A    between atoms: N_20  and  C_21
REMARK                            x       y       z     vdW  Elec       q    Type
REMARK                         _______ _______ _______ _____ _____    ______ ____
ROOT
ATOM      1  N   UNL     1       6.177   6.558  17.539  0.00  0.00    +0.000 NA
ATOM      2  C   UNL     1       6.596   5.360  16.778  0.00  0.00    +0.000 C 
ATOM      3  C   UNL     1       5.843   4.068  17.089  0.00  0.00    +0.000 C 
ATOM      4  C   UNL     1       4.374   4.148  16.703  0.00  0.00    +0.000 C 
ATOM      5  N   UNL     1       3.592   4.778  17.755  0.00  0.00    +0.000 N 
ATOM      6  C   UNL     1       3.762   6.108  18.080  0.00  0.00    +0.000 A 
ATOM      7  N   UNL     1       3.090   6.706  19.021  0.00  0.00    +0.000 NA
ATOM      8  C   UNL     1       2.194   5.962  19.755  0.00  0.00    +0.000 A 
ATOM      9  C   UNL     1       1.988   4.660  19.549  0.00  0.00    +0.000 A 
ATOM     10  C   UNL     1       2.734   3.982  18.482  0.00  0.00    +0.000 A 
ATOM     11  O   UNL     1       2.567   2.777  18.316  0.00  0.00    +0.000 OA
ATOM     12  C   UNL     1       4.769   6.938  17.260  0.00  0.00    +0.000 C 
ENDROOT
BRANCH   1  13
ATOM     13  C   UNL     1       7.118   7.652  17.183  0.00  0.00    +0.000 C 
BRANCH  13  15
ATOM     14  C   UNL     1       8.524   9.452  18.266  0.00  0.00    +0.000 C 
ATOM     15  C   UNL     1       8.192   7.965  18.232  0.00  0.00    +0.000 C 
ENDBRANCH  13  15
ENDBRANCH   1  13
BRANCH   8  16
ATOM     16  C   UNL     1       1.503   6.657  20.905  0.00  0.00    +0.000 C 
BRANCH  16  17
ATOM     17  N   UNL     1       1.360   8.071  20.647  0.00  0.00    +0.000 N 
ATOM     18  C   UNL     1       0.276   8.768  21.146  0.00  0.00    +0.000 C 
ATOM     19  O   UNL     1      -0.626   8.205  21.761  0.00  0.00    +0.000 OA
ATOM     20  H   UNL     1       2.128   8.618  20.267  0.00  0.00    +0.000 HD
BRANCH  18  21
ATOM     21  C   UNL     1       0.301  10.196  20.872  0.00  0.00    +0.000 A 
ATOM     22  N   UNL     1       0.632  11.117  21.767  0.00  0.00    +0.000 NA
ATOM     23  C   UNL     1       0.577  12.318  21.109  0.00  0.00    +0.000 A 
ATOM     24  C   UNL     1       0.188  12.143  19.803  0.00  0.00    +0.000 A 
ATOM     25  N   UNL     1       0.006  10.797  19.666  0.00  0.00    +0.000 N 
ATOM     26  C   UNL     1      -0.435  10.130  18.462  0.00  0.00    +0.000 C 
ENDBRANCH  18  21
ENDBRANCH  16  17
ENDBRANCH   8  16
TORSDOF 5
ENDMDL
MODEL 5
REMARK VINA RESULT:      -7.1      2.245      4.086
REMARK  Name = 
REMARK  7 active torsions:
REMARK  status: ('A' for Active; 'I' for Inactive)
REMARK    1  A    between atoms: C_1  and  C_2
REMARK    2  A    between atoms: C_2  and  C_3
REMARK    3  A    between atoms: C_3  and  N_4
REMARK    4  A    between atoms: C_11  and  C_12
REMARK    5  A    between atoms: C_12  and  N_13
REMARK    6  A    between atoms: C_14  and  C_16
REMARK    7  A    between atoms: N_20  and  C_21
REMARK                            x       y       z     vdW  Elec       q    Type
REMARK                         _______ _______ _______ _____ _____    ______ ____
ROOT
ATOM      1  N   UNL     1       5.375   5.333  17.338  0.00  0.00    +0.000 NA
ATOM      2  C   UNL     1       5.355   4.017  16.662  0.00  0.00    +0.000 C 
ATOM      3  C   UNL     1       4.397   2.978  17.240  0.00  0.00    +0.000 C 
ATOM      4  C   UNL     1       2.941   3.392  17.094  0.00  0.00    +0.000 C 
ATOM      5  N   UNL     1       2.537   4.270  18.180  0.00  0.00    +0.000 N 
ATOM      6  C   UNL     1       3.068   5.537  18.316  0.00  0.00    +0.000 A 
ATOM      7  N   UNL     1       2.740   6.349  19.280  0.00  0.00    +0.000 NA
ATOM      8  C   UNL     1       1.850   5.906  20.232  0.00  0.00    +0.000 A 
ATOM      9  C   UNL     1       1.315   4.685  20.215  0.00  0.00    +0.000 A 
ATOM     10  C   UNL     1       1.670   3.767  19.126  0.00  0.00    +0.000 A 
ATOM     11  O   UNL     1       1.201   2.632  19.130  0.00  0.00    +0.000 OA
ATOM     12  C   UNL     1       4.066   6.029  17.252  0.00  0.00    +0.000 C 
ENDROOT
BRANCH   1  13
ATOM     13  C   UNL     1       6.459   6.131  16.708  0.00  0.00    +0.000 C 
BRANCH  13  15
ATOM     14  C   UNL     1       7.706   5.971  18.900  0.00  0.00    +0.000 C 
ATOM     15  C   UNL     1       7.410   6.837  17.682  0.00  0.00    +0.000 C 
ENDBRANCH  13  15
ENDBRANCH   1  13
BRANCH   8  16
ATOM     16  C   UNL     1       1.567   6.832  21.392  0.00  0.00    +0.000 C 
BRANCH  16  17
ATOM     17  N   UNL     1       1.622   8.215  20.978  0.00  0.00    +0.000 N 
ATOM     18  C   UNL     1       0.519   9.034  21.125  0.00  0.00    +0.000 C 
ATOM     19  O   UNL     1      -0.552   8.605  21.547  0.00  0.00    +0.000 OA
ATOM     20  H   UNL     1       2.505   8.663  20.751  0.00  0.00    +0.000 HD
BRANCH  18  21
ATOM     21  C   UNL     1       0.741  10.418  20.736  0.00  0.00    +0.000 A 
ATOM     22  N   UNL     1       0.807  11.427  21.593  0.00  0.00    +0.000 NA
ATOM     23  C   UNL     1       1.071  12.543  20.840  0.00  0.00    +0.000 A 
ATOM     24  C   UNL     1       1.146  12.226  19.506  0.00  0.00    +0.000 A 
ATOM     25  N   UNL     1       0.926  10.879  19.449  0.00  0.00    +0.000 N 
ATOM     26  C   UNL     1       0.881  10.089  18.241  0.00  0.00    +0.000 C 
ENDBRANCH  18  21
ENDBRANCH  16  17
ENDBRANCH   8  16
TORSDOF 5
ENDMDL
MODEL 6
REMARK VINA RESULT:      -7.0      2.553      4.290
REMARK  Name = 
REMARK  7 active torsions:
REMARK  status: ('A' for Active; 'I' for Inactive)
REMARK    1  A    between atoms: C_1  and  C_2
REMARK    2  A    between atoms: C_2  and  C_3
REMARK    3  A    between atoms: C_3  and  N_4
REMARK    4  A    between atoms: C_11  and  C_12
REMARK    5  A    between atoms: C_12  and  N_13
REMARK    6  A    between atoms: C_14  and  C_16
REMARK    7  A    between atoms: N_20  and  C_21
REMARK                            x       y       z     vdW  Elec       q    Type
REMARK                         _______ _______ _______ _____ _____    ______ ____
ROOT
ATOM      1  N   UNL     1       5.384   5.566  18.135  0.00  0.00    +0.000 NA
ATOM      2  C   UNL     1       5.451   4.091  18.238  0.00  0.00    +0.000 C 
ATOM      3  C   UNL     1       4.528   3.447  19.269  0.00  0.00    +0.000 C 
ATOM      4  C   UNL     1       3.059   3.640  18.931  0.00  0.00    +0.000 C 
ATOM      5  N   UNL     1       2.578   4.927  19.405  0.00  0.00    +0.000 N 
ATOM      6  C   UNL     1       3.041   6.111  18.867  0.00  0.00    +0.000 A 
ATOM      7  N   UNL     1       2.644   7.283  19.270  0.00  0.00    +0.000 NA
ATOM      8  C   UNL     1       1.749   7.345  20.315  0.00  0.00    +0.000 A 
ATOM      9  C   UNL     1       1.275   6.262  20.932  0.00  0.00    +0.000 A 
ATOM     10  C   UNL     1       1.709   4.936  20.475  0.00  0.00    +0.000 A 
ATOM     11  O   UNL     1       1.297   3.941  21.066  0.00  0.00    +0.000 OA
ATOM     12  C   UNL     1       4.045   6.040  17.701  0.00  0.00    +0.000 C 
ENDROOT
BRANCH   1  13
ATOM     13  C   UNL     1       6.446   5.986  17.183  0.00  0.00    +0.000 C 
BRANCH  13  15
ATOM     14  C   UNL     1       8.136   7.452  18.360  0.00  0.00    +0.000 C 
ATOM     15  C   UNL     1       6.975   7.413  17.373  0.00  0.00    +0.000 C 
ENDBRANCH  13  15
ENDBRANCH   1  13
BRANCH   8  16
ATOM     16  C   UNL     1       1.384   8.719  20.827  0.00  0.00    +0.000 C 
BRANCH  16  17
ATOM     17  N   UNL     1       0.214   9.231  20.154  0.00  0.00    +0.000 N 
ATOM     18  C   UNL     1       0.343  10.130  19.112  0.00  0.00    +0.000 C 
ATOM     19  O   UNL     1       1.438  10.569  18.770  0.00  0.00    +0.000 OA
ATOM     20  H   UNL     1      -0.701   8.812  20.294  0.00  0.00    +0.000 HD
BRANCH  18  21
ATOM     21  C   UNL     1      -0.913  10.503  18.480  0.00  0.00    +0.000 A 
ATOM     22  N   UNL     1      -1.387   9.933  17.382  0.00  0.00    +0.000 NA
ATOM     23  C   UNL     1      -2.599  10.529  17.142  0.00  0.00    +0.000 A 
ATOM     24  C   UNL     1      -2.866  11.491  18.085  0.00  0.00    +0.000 A 
ATOM     25  N   UNL     1      -1.787  11.474  18.923  0.00  0.00    +0.000 N 
ATOM     26  C   UNL     1      -1.600  12.339  20.064  0.00  0.00    +0.000 C 
ENDBRANCH  18  21
ENDBRANCH  16  17
ENDBRANCH   8  16
TORSDOF 5
ENDMDL
MODEL 7
REMARK VINA RESULT:      -7.0      2.577      4.297
REMARK  Name = 
REMARK  7 active torsions:
REMARK  status: ('A' for Active; 'I' for Inactive)
REMARK    1  A    between atoms: C_1  and  C_2
REMARK    2  A    between atoms: C_2  and  C_3
REMARK    3  A    between atoms: C_3  and  N_4
REMARK    4  A    between atoms: C_11  and  C_12
REMARK    5  A    between atoms: C_12  and  N_13
REMARK    6  A    between atoms: C_14  and  C_16
REMARK    7  A    between atoms: N_20  and  C_21
REMARK                            x       y       z     vdW  Elec       q    Type
REMARK                         _______ _______ _______ _____ _____    ______ ____
ROOT
ATOM      1  N   UNL     1       5.427   5.681  17.843  0.00  0.00    +0.000 NA
ATOM      2  C   UNL     1       5.581   4.227  18.072  0.00  0.00    +0.000 C 
ATOM      3  C   UNL     1       4.758   3.634  19.213  0.00  0.00    +0.000 C 
ATOM      4  C   UNL     1       3.263   3.722  18.953  0.00  0.00    +0.000 C 
ATOM      5  N   UNL     1       2.740   5.022  19.341  0.00  0.00    +0.000 N 
ATOM      6  C   UNL     1       3.104   6.173  18.671  0.00  0.00    +0.000 A 
ATOM      7  N   UNL     1       2.667   7.356  18.994  0.00  0.00    +0.000 NA
ATOM      8  C   UNL     1       1.833   7.468  20.084  0.00  0.00    +0.000 A 
ATOM      9  C   UNL     1       1.458   6.424  20.824  0.00  0.00    +0.000 A 
ATOM     10  C   UNL     1       1.937   5.085  20.459  0.00  0.00    +0.000 A 
ATOM     11  O   UNL     1       1.616   4.129  21.161  0.00  0.00    +0.000 OA
ATOM     12  C   UNL     1       4.040   6.045  17.455  0.00  0.00    +0.000 C 
ENDROOT
BRANCH   1  13
ATOM     13  C   UNL     1       6.405   6.064  16.792  0.00  0.00    +0.000 C 
BRANCH  13  15
ATOM     14  C   UNL     1       6.565   4.753  14.637  0.00  0.00    +0.000 C 
ATOM     15  C   UNL     1       7.081   4.896  16.063  0.00  0.00    +0.000 C 
ENDBRANCH  13  15
ENDBRANCH   1  13
BRANCH   8  16
ATOM     16  C   UNL     1       1.424   8.863  20.495  0.00  0.00    +0.000 C 
BRANCH  16  17
ATOM     17  N   UNL     1       0.194   9.256  19.848  0.00  0.00    +0.000 N 
ATOM     18  C   UNL     1       0.199  10.235  18.872  0.00  0.00    +0.000 C 
ATOM     19  O   UNL     1       1.223  10.842  18.571  0.00  0.00    +0.000 OA
ATOM     20  H   UNL     1      -0.655   8.708  19.950  0.00  0.00    +0.000 HD
BRANCH  18  21
ATOM     21  C   UNL     1      -1.097  10.475  18.255  0.00  0.00    +0.000 A 
ATOM     22  N   UNL     1      -1.541   9.827  17.187  0.00  0.00    +0.000 NA
ATOM     23  C   UNL     1      -2.804  10.307  16.954  0.00  0.00    +0.000 A 
ATOM     24  C   UNL     1      -3.136  11.276  17.870  0.00  0.00    +0.000 A 
ATOM     25  N   UNL     1      -2.044  11.382  18.684  0.00  0.00    +0.000 N 
ATOM     26  C   UNL     1      -1.911  12.301  19.790  0.00  0.00    +0.000 C 
ENDBRANCH  18  21
ENDBRANCH  16  17
ENDBRANCH   8  16
TORSDOF 5
ENDMDL
MODEL 8
REMARK VINA RESULT:      -7.0      2.937      7.996
REMARK  Name = 
REMARK  7 active torsions:
REMARK  status: ('A' for Active; 'I' for Inactive)
REMARK    1  A    between atoms: C_1  and  C_2
REMARK    2  A    between atoms: C_2  and  C_3
REMARK    3  A    between atoms: C_3  and  N_4
REMARK    4  A    between atoms: C_11  and  C_12
REMARK    5  A    between atoms: C_12  and  N_13
REMARK    6  A    between atoms: C_14  and  C_16
REMARK    7  A    between atoms: N_20  and  C_21
REMARK                            x       y       z     vdW  Elec       q    Type
REMARK                         _______ _______ _______ _____ _____    ______ ____
ROOT
ATOM      1  N   UNL     1      -2.519  10.284  17.956  0.00  0.00    +0.000 NA
ATOM      2  C   UNL     1      -3.069  11.630  18.233  0.00  0.00    +0.000 C 
ATOM      3  C   UNL     1      -2.696  12.244  19.581  0.00  0.00    +0.000 C 
ATOM      4  C   UNL     1      -1.206  12.520  19.698  0.00  0.00    +0.000 C 
ATOM      5  N   UNL     1      -0.486  11.328  20.119  0.00  0.00    +0.000 N 
ATOM      6  C   UNL     1      -0.397  10.216  19.306  0.00  0.00    +0.000 A 
ATOM      7  N   UNL     1       0.228   9.128  19.650  0.00  0.00    +0.000 NA
ATOM      8  C   UNL     1       0.793   9.069  20.904  0.00  0.00    +0.000 A 
ATOM      9  C   UNL     1       0.725  10.071  21.781  0.00  0.00    +0.000 A 
ATOM     10  C   UNL     1       0.032  11.307  21.396  0.00  0.00    +0.000 A 
ATOM     11  O   UNL     1      -0.058  12.217  22.216  0.00  0.00    +0.000 OA
ATOM     12  C   UNL     1      -1.034  10.283  17.905  0.00  0.00    +0.000 C 
ENDROOT
BRANCH   1  13
ATOM     13  C   UNL     1      -3.109   9.827  16.671  0.00  0.00    +0.000 C 
BRANCH  13  15
ATOM     14  C   UNL     1      -3.289  10.076  14.162  0.00  0.00    +0.000 C 
ATOM     15  C   UNL     1      -2.835  10.730  15.462  0.00  0.00    +0.000 C 
ENDBRANCH  13  15
ENDBRANCH   1  13
BRANCH   8  16
ATOM     16  C   UNL     1       1.423   7.758  21.313  0.00  0.00    +0.000 C 
BRANCH  16  17
ATOM     17  N   UNL     1       2.256   7.230  20.257  0.00  0.00    +0.000 N 
ATOM     18  C   UNL     1       2.460   5.868  20.141  0.00  0.00    +0.000 C 
ATOM     19  O   UNL     1       2.000   5.074  20.958  0.00  0.00    +0.000 OA
ATOM     20  H   UNL     1       2.551   7.811  19.478  0.00  0.00    +0.000 HD
BRANCH  18  21
ATOM     21  C   UNL     1       3.258   5.475  18.990  0.00  0.00    +0.000 A 
ATOM     22  N   UNL     1       4.530   5.807  18.823  0.00  0.00    +0.000 NA
ATOM     23  C   UNL     1       4.924   5.210  17.653  0.00  0.00    +0.000 A 
ATOM     24  C   UNL     1       3.882   4.523  17.080  0.00  0.00    +0.000 A 
ATOM     25  N   UNL     1       2.828   4.705  17.929  0.00  0.00    +0.000 N 
ATOM     26  C   UNL     1       1.494   4.188  17.731  0.00  0.00    +0.000 C 
ENDBRANCH  18  21
ENDBRANCH  16  17
ENDBRANCH   8  16
TORSDOF 5
ENDMDL
MODEL 9
REMARK VINA RESULT:      -7.0      2.287      4.036
REMARK  Name = 
REMARK  7 active torsions:
REMARK  status: ('A' for Active; 'I' for Inactive)
REMARK    1  A    between atoms: C_1  and  C_2
REMARK    2  A    between atoms: C_2  and  C_3
REMARK    3  A    between atoms: C_3  and  N_4
REMARK    4  A    between atoms: C_11  and  C_12
REMARK    5  A    between atoms: C_12  and  N_13
REMARK    6  A    between atoms: C_14  and  C_16
REMARK    7  A    between atoms: N_20  and  C_21
REMARK                            x       y       z     vdW  Elec       q    Type
REMARK                         _______ _______ _______ _____ _____    ______ ____
ROOT
ATOM      1  N   UNL     1       5.470   5.664  17.516  0.00  0.00    +0.000 NA
ATOM      2  C   UNL     1       5.455   4.362  16.814  0.00  0.00    +0.000 C 
ATOM      3  C   UNL     1       4.455   3.331  17.330  0.00  0.00    +0.000 C 
ATOM      4  C   UNL     1       3.014   3.774  17.133  0.00  0.00    +0.000 C 
ATOM      5  N   UNL     1       2.580   4.638  18.219  0.00  0.00    +0.000 N 
ATOM      6  C   UNL     1       3.128   5.892  18.403  0.00  0.00    +0.000 A 
ATOM      7  N   UNL     1       2.775   6.691  19.368  0.00  0.00    +0.000 NA
ATOM      8  C   UNL     1       1.838   6.246  20.274  0.00  0.00    +0.000 A 
ATOM      9  C   UNL     1       1.282   5.036  20.210  0.00  0.00    +0.000 A 
ATOM     10  C   UNL     1       1.666   4.133  19.118  0.00  0.00    +0.000 A 
ATOM     11  O   UNL     1       1.177   3.007  19.079  0.00  0.00    +0.000 OA
ATOM     12  C   UNL     1       4.178   6.387  17.391  0.00  0.00    +0.000 C 
ENDROOT
BRANCH   1  13
ATOM     13  C   UNL     1       6.594   6.455  16.948  0.00  0.00    +0.000 C 
BRANCH  13  15
ATOM     14  C   UNL     1       7.807   5.914  19.099  0.00  0.00    +0.000 C 
ATOM     15  C   UNL     1       7.655   6.911  17.957  0.00  0.00    +0.000 C 
ENDBRANCH  13  15
ENDBRANCH   1  13
BRANCH   8  16
ATOM     16  C   UNL     1       1.523   7.155  21.439  0.00  0.00    +0.000 C 
BRANCH  16  17
ATOM     17  N   UNL     1       0.887   8.372  20.992  0.00  0.00    +0.000 N 
ATOM     18  C   UNL     1       1.044   9.546  21.704  0.00  0.00    +0.000 C 
ATOM     19  O   UNL     1       1.668   9.582  22.761  0.00  0.00    +0.000 OA
ATOM     20  H   UNL     1       0.475   8.442  20.066  0.00  0.00    +0.000 HD
BRANCH  18  21
ATOM     21  C   UNL     1       0.408  10.706  21.098  0.00  0.00    +0.000 A 
ATOM     22  N   UNL     1       0.761  11.216  19.926  0.00  0.00    +0.000 NA
ATOM     23  C   UNL     1      -0.100  12.258  19.695  0.00  0.00    +0.000 A 
ATOM     24  C   UNL     1      -0.977  12.408  20.741  0.00  0.00    +0.000 A 
ATOM     25  N   UNL     1      -0.640  11.427  21.629  0.00  0.00    +0.000 N 
ATOM     26  C   UNL     1      -1.273  11.203  22.908  0.00  0.00    +0.000 C 
ENDBRANCH  18  21
ENDBRANCH  16  17
ENDBRANCH   8  16
TORSDOF 5
ENDMDL
