MODEL 1
REMARK VINA RESULT:      -6.6      0.000      0.000
REMARK  Name = 
REMARK  3 active torsions:
REMARK  status: ('A' for Active; 'I' for Inactive)
REMARK    1  A    between atoms: C_1  and  O_2
REMARK    2  A    between atoms: O_2  and  C_3
REMARK    3  A    between atoms: C_4  and  C_5
REMARK                            x       y       z     vdW  Elec       q    Type
REMARK                         _______ _______ _______ _____ _____    ______ ____
ROOT
ATOM      1  C   UNL     1       2.371   6.664  18.746  0.00  0.00    +0.000 A 
ATOM      2  C   UNL     1       2.639   7.493  17.674  0.00  0.00    +0.000 A 
ATOM      3  S   UNL     1       2.252   9.106  18.061  0.00  0.00    +0.000 S 
ATOM      4  C   UNL     1       1.754   8.615  19.648  0.00  0.00    +0.000 A 
ATOM      5  N   UNL     1       1.324   9.515  20.571  0.00  0.00    +0.000 N 
ATOM      6  C   UNL     1       1.383   9.196  22.000  0.00  0.00    +0.000 C 
ATOM      7  C   UNL     1      -0.021   9.159  22.616  0.00  0.00    +0.000 C 
ATOM      8  O   UNL     1      -0.760  10.359  22.330  0.00  0.00    +0.000 OA
ATOM      9  C   UNL     1      -0.900  10.522  20.910  0.00  0.00    +0.000 C 
ATOM     10  C   UNL     1       0.469  10.654  20.223  0.00  0.00    +0.000 C 
ATOM     11  N   UNL     1       1.910   7.326  19.876  0.00  0.00    +0.000 NA
ENDROOT
BRANCH   1  13
ATOM     12  C   UNL     1       3.793   4.611  19.170  0.00  0.00    +0.000 A 
ATOM     13  C   UNL     1       2.601   5.215  18.703  0.00  0.00    +0.000 A 
ATOM     14  C   UNL     1       1.580   4.386  18.181  0.00  0.00    +0.000 A 
ATOM     15  C   UNL     1       1.718   2.998  18.143  0.00  0.00    +0.000 A 
ATOM     16  C   UNL     1       2.876   2.421  18.630  0.00  0.00    +0.000 A 
ATOM     17  F   UNL     1       3.003   1.090  18.610  0.00  0.00    +0.000 F 
ATOM     18  C   UNL     1       3.903   3.213  19.143  0.00  0.00    +0.000 A 
ATOM     19  F   UNL     1       4.986   2.588  19.632  0.00  0.00    +0.000 F 
BRANCH  12  21
ATOM     20  C   UNL     1       5.958   5.548  18.913  0.00  0.00    +0.000 C 
ATOM     21  O   UNL     1       4.767   5.429  19.689  0.00  0.00    +0.000 OA
ENDBRANCH  12  21
ENDBRANCH   1  13
TORSDOF 2
ENDMDL
MODEL 2
REMARK VINA RESULT:      -6.1      1.190      1.202
REMARK  Name = 
REMARK  3 active torsions:
REMARK  status: ('A' for Active; 'I' for Inactive)
REMARK    1  A    between atoms: C_1  and  O_2
REMARK    2  A    between atoms: O_2  and  C_3
REMARK    3  A    between atoms: C_4  and  C_5
REMARK                            x       y       z     vdW  Elec       q    Type
REMARK                         _______ _______ _______ _____ _____    ______ ____
ROOT
ATOM      1  C   UNL     1       2.241   7.380  18.481  0.00  0.00    +0.000 A 
ATOM      2  C   UNL     1       2.382   8.376  17.534  0.00  0.00    +0.000 A 
ATOM      3  S   UNL     1       1.941   9.884  18.190  0.00  0.00    +0.000 S 
ATOM      4  C   UNL     1       1.592   9.130  19.712  0.00  0.00    +0.000 A 
ATOM      5  N   UNL     1       1.186   9.852  20.790  0.00  0.00    +0.000 N 
ATOM      6  C   UNL     1       1.372   9.327  22.145  0.00  0.00    +0.000 C 
ATOM      7  C   UNL     1       0.022   9.109  22.841  0.00  0.00    +0.000 C 
ATOM      8  O   UNL     1      -0.799  10.289  22.794  0.00  0.00    +0.000 OA
ATOM      9  C   UNL     1      -1.055  10.653  21.429  0.00  0.00    +0.000 C 
ATOM     10  C   UNL     1       0.248  10.974  20.679  0.00  0.00    +0.000 C 
ATOM     11  N   UNL     1       1.832   7.834  19.727  0.00  0.00    +0.000 NA
ENDROOT
BRANCH   1  13
ATOM     12  C   UNL     1       3.851   5.505  17.927  0.00  0.00    +0.000 A 
ATOM     13  C   UNL     1       2.543   5.971  18.200  0.00  0.00    +0.000 A 
ATOM     14  C   UNL     1       1.480   5.038  18.213  0.00  0.00    +0.000 A 
ATOM     15  C   UNL     1       1.701   3.679  17.989  0.00  0.00    +0.000 A 
ATOM     16  C   UNL     1       2.988   3.235  17.753  0.00  0.00    +0.000 A 
ATOM     17  F   UNL     1       3.205   1.930  17.555  0.00  0.00    +0.000 F 
ATOM     18  C   UNL     1       4.056   4.132  17.727  0.00  0.00    +0.000 A 
ATOM     19  F   UNL     1       5.285   3.630  17.527  0.00  0.00    +0.000 F 
BRANCH  12  21
ATOM     20  C   UNL     1       5.504   6.661  16.678  0.00  0.00    +0.000 C 
ATOM     21  O   UNL     1       4.875   6.421  17.935  0.00  0.00    +0.000 OA
ENDBRANCH  12  21
ENDBRANCH   1  13
TORSDOF 2
ENDMDL
MODEL 3
REMARK VINA RESULT:      -6.0      3.986      7.131
REMARK  Name = 
REMARK  3 active torsions:
REMARK  status: ('A' for Active; 'I' for Inactive)
REMARK    1  A    between atoms: C_1  and  O_2
REMARK    2  A    between atoms: O_2  and  C_3
REMARK    3  A    between atoms: C_4  and  C_5
REMARK                            x       y       z     vdW  Elec       q    Type
REMARK                         _______ _______ _______ _____ _____    ______ ____
ROOT
ATOM      1  C   UNL     1       2.911   5.851  18.046  0.00  0.00    +0.000 A 
ATOM      2  C   UNL     1       2.247   4.662  17.815  0.00  0.00    +0.000 A 
ATOM      3  S   UNL     1       3.265   3.560  17.008  0.00  0.00    +0.000 S 
ATOM      4  C   UNL     1       4.549   4.727  17.016  0.00  0.00    +0.000 A 
ATOM      5  N   UNL     1       5.775   4.443  16.506  0.00  0.00    +0.000 N 
ATOM      6  C   UNL     1       6.952   5.196  16.943  0.00  0.00    +0.000 C 
ATOM      7  C   UNL     1       7.576   5.972  15.775  0.00  0.00    +0.000 C 
ATOM      8  O   UNL     1       7.832   5.119  14.646  0.00  0.00    +0.000 OA
ATOM      9  C   UNL     1       6.605   4.532  14.187  0.00  0.00    +0.000 C 
ATOM     10  C   UNL     1       5.956   3.663  15.276  0.00  0.00    +0.000 C 
ATOM     11  N   UNL     1       4.234   5.854  17.623  0.00  0.00    +0.000 NA
ENDROOT
BRANCH   1  13
ATOM     12  C   UNL     1       1.971   6.993  20.101  0.00  0.00    +0.000 A 
ATOM     13  C   UNL     1       2.282   6.993  18.721  0.00  0.00    +0.000 A 
ATOM     14  C   UNL     1       1.984   8.146  17.957  0.00  0.00    +0.000 A 
ATOM     15  C   UNL     1       1.417   9.279  18.542  0.00  0.00    +0.000 A 
ATOM     16  C   UNL     1       1.146   9.275  19.897  0.00  0.00    +0.000 A 
ATOM     17  F   UNL     1       0.619  10.366  20.463  0.00  0.00    +0.000 F 
ATOM     18  C   UNL     1       1.422   8.150  20.674  0.00  0.00    +0.000 A 
ATOM     19  F   UNL     1       1.167   8.224  21.990  0.00  0.00    +0.000 F 
BRANCH  12  21
ATOM     20  C   UNL     1       1.283   4.854  20.865  0.00  0.00    +0.000 C 
ATOM     21  O   UNL     1       2.282   5.872  20.831  0.00  0.00    +0.000 OA
ENDBRANCH  12  21
ENDBRANCH   1  13
TORSDOF 2
ENDMDL
MODEL 4
REMARK VINA RESULT:      -6.0      1.587      1.635
REMARK  Name = 
REMARK  3 active torsions:
REMARK  status: ('A' for Active; 'I' for Inactive)
REMARK    1  A    between atoms: C_1  and  O_2
REMARK    2  A    between atoms: O_2  and  C_3
REMARK    3  A    between atoms: C_4  and  C_5
REMARK                            x       y       z     vdW  Elec       q    Type
REMARK                         _______ _______ _______ _____ _____    ______ ____
ROOT
ATOM      1  C   UNL     1       2.128   7.366  19.267  0.00  0.00    +0.000 A 
ATOM      2  C   UNL     1       2.410   7.845  18.002  0.00  0.00    +0.000 A 
ATOM      3  S   UNL     1       1.910   9.467  17.857  0.00  0.00    +0.000 S 
ATOM      4  C   UNL     1       1.349   9.449  19.498  0.00  0.00    +0.000 A 
ATOM      5  N   UNL     1       0.815  10.554  20.082  0.00  0.00    +0.000 N 
ATOM      6  C   UNL     1       0.810  10.693  21.540  0.00  0.00    +0.000 C 
ATOM      7  C   UNL     1      -0.623  10.744  22.085  0.00  0.00    +0.000 C 
ATOM      8  O   UNL     1      -1.412  11.743  21.414  0.00  0.00    +0.000 OA
ATOM      9  C   UNL     1      -1.478  11.454  20.009  0.00  0.00    +0.000 C 
ATOM     10  C   UNL     1      -0.082  11.468  19.367  0.00  0.00    +0.000 C 
ATOM     11  N   UNL     1       1.565   8.306  20.118  0.00  0.00    +0.000 NA
ENDROOT
BRANCH   1  13
ATOM     12  C   UNL     1       3.610   5.312  19.264  0.00  0.00    +0.000 A 
ATOM     13  C   UNL     1       2.443   5.993  19.682  0.00  0.00    +0.000 A 
ATOM     14  C   UNL     1       1.542   5.328  20.546  0.00  0.00    +0.000 A 
ATOM     15  C   UNL     1       1.796   4.036  21.007  0.00  0.00    +0.000 A 
ATOM     16  C   UNL     1       2.955   3.395  20.614  0.00  0.00    +0.000 A 
ATOM     17  F   UNL     1       3.209   2.163  21.069  0.00  0.00    +0.000 F 
ATOM     18  C   UNL     1       3.858   4.022  19.757  0.00  0.00    +0.000 A 
ATOM     19  F   UNL     1       4.982   3.358  19.442  0.00  0.00    +0.000 F 
BRANCH  12  21
ATOM     20  C   UNL     1       4.703   5.387  17.160  0.00  0.00    +0.000 C 
ATOM     21  O   UNL     1       4.483   5.979  18.439  0.00  0.00    +0.000 OA
ENDBRANCH  12  21
ENDBRANCH   1  13
TORSDOF 2
ENDMDL
MODEL 5
REMARK VINA RESULT:      -6.0      2.663      3.591
REMARK  Name = 
REMARK  3 active torsions:
REMARK  status: ('A' for Active; 'I' for Inactive)
REMARK    1  A    between atoms: C_1  and  O_2
REMARK    2  A    between atoms: O_2  and  C_3
REMARK    3  A    between atoms: C_4  and  C_5
REMARK                            x       y       z     vdW  Elec       q    Type
REMARK                         _______ _______ _______ _____ _____    ______ ____
ROOT
ATOM      1  C   UNL     1       3.812   6.090  18.435  0.00  0.00    +0.000 A 
ATOM      2  C   UNL     1       3.388   5.280  19.471  0.00  0.00    +0.000 A 
ATOM      3  S   UNL     1       2.134   6.036  20.340  0.00  0.00    +0.000 S 
ATOM      4  C   UNL     1       2.215   7.408  19.281  0.00  0.00    +0.000 A 
ATOM      5  N   UNL     1       1.371   8.465  19.416  0.00  0.00    +0.000 N 
ATOM      6  C   UNL     1       1.104   9.348  18.278  0.00  0.00    +0.000 C 
ATOM      7  C   UNL     1       1.587  10.776  18.563  0.00  0.00    +0.000 C 
ATOM      8  O   UNL     1       1.067  11.275  19.808  0.00  0.00    +0.000 OA
ATOM      9  C   UNL     1       1.496  10.435  20.890  0.00  0.00    +0.000 C 
ATOM     10  C   UNL     1       0.978   8.997  20.724  0.00  0.00    +0.000 C 
ATOM     11  N   UNL     1       3.103   7.278  18.316  0.00  0.00    +0.000 NA
ENDROOT
BRANCH   1  13
ATOM     12  C   UNL     1       6.119   5.162  17.958  0.00  0.00    +0.000 A 
ATOM     13  C   UNL     1       4.889   5.702  17.516  0.00  0.00    +0.000 A 
ATOM     14  C   UNL     1       4.681   5.867  16.127  0.00  0.00    +0.000 A 
ATOM     15  C   UNL     1       5.648   5.487  15.196  0.00  0.00    +0.000 A 
ATOM     16  C   UNL     1       6.833   4.934  15.642  0.00  0.00    +0.000 A 
ATOM     17  F   UNL     1       7.754   4.553  14.750  0.00  0.00    +0.000 F 
ATOM     18  C   UNL     1       7.070   4.766  17.006  0.00  0.00    +0.000 A 
ATOM     19  F   UNL     1       8.227   4.190  17.370  0.00  0.00    +0.000 F 
BRANCH  12  21
ATOM     20  C   UNL     1       7.448   5.627  19.869  0.00  0.00    +0.000 C 
ATOM     21  O   UNL     1       6.299   4.992  19.310  0.00  0.00    +0.000 OA
ENDBRANCH  12  21
ENDBRANCH   1  13
TORSDOF 2
ENDMDL
MODEL 6
REMARK VINA RESULT:      -6.0      3.881      7.188
REMARK  Name = 
REMARK  3 active torsions:
REMARK  status: ('A' for Active; 'I' for Inactive)
REMARK    1  A    between atoms: C_1  and  O_2
REMARK    2  A    between atoms: O_2  and  C_3
REMARK    3  A    between atoms: C_4  and  C_5
REMARK                            x       y       z     vdW  Elec       q    Type
REMARK                         _______ _______ _______ _____ _____    ______ ____
ROOT
ATOM      1  C   UNL     1       1.696   8.326  19.596  0.00  0.00    +0.000 A 
ATOM      2  C   UNL     1       2.251   8.888  18.462  0.00  0.00    +0.000 A 
ATOM      3  S   UNL     1       3.074   7.704  17.555  0.00  0.00    +0.000 S 
ATOM      4  C   UNL     1       2.638   6.495  18.721  0.00  0.00    +0.000 A 
ATOM      5  N   UNL     1       2.987   5.192  18.561  0.00  0.00    +0.000 N 
ATOM      6  C   UNL     1       2.230   4.135  19.237  0.00  0.00    +0.000 C 
ATOM      7  C   UNL     1       3.114   3.375  20.234  0.00  0.00    +0.000 C 
ATOM      8  O   UNL     1       4.326   2.904  19.621  0.00  0.00    +0.000 OA
ATOM      9  C   UNL     1       5.081   4.015  19.113  0.00  0.00    +0.000 C 
ATOM     10  C   UNL     1       4.295   4.784  18.038  0.00  0.00    +0.000 C 
ATOM     11  N   UNL     1       1.889   6.955  19.703  0.00  0.00    +0.000 NA
ENDROOT
BRANCH   1  13
ATOM     12  C   UNL     1       0.084  10.180  20.207  0.00  0.00    +0.000 A 
ATOM     13  C   UNL     1       0.930   9.107  20.574  0.00  0.00    +0.000 A 
ATOM     14  C   UNL     1       1.035   8.764  21.942  0.00  0.00    +0.000 A 
ATOM     15  C   UNL     1       0.308   9.442  22.920  0.00  0.00    +0.000 A 
ATOM     16  C   UNL     1      -0.536  10.469  22.543  0.00  0.00    +0.000 A 
ATOM     17  F   UNL     1      -1.247  11.109  23.478  0.00  0.00    +0.000 F 
ATOM     18  C   UNL     1      -0.655  10.835  21.203  0.00  0.00    +0.000 A 
ATOM     19  F   UNL     1      -1.519  11.817  20.900  0.00  0.00    +0.000 F 
BRANCH  12  21
ATOM     20  C   UNL     1      -1.276  10.198  18.263  0.00  0.00    +0.000 C 
ATOM     21  O   UNL     1      -0.020  10.490  18.872  0.00  0.00    +0.000 OA
ENDBRANCH  12  21
ENDBRANCH   1  13
TORSDOF 2
ENDMDL
MODEL 7
REMARK VINA RESULT:      -5.9      2.609      3.745
REMARK  Name = 
REMARK  3 active torsions:
REMARK  status: ('A' for Active; 'I' for Inactive)
REMARK    1  A    between atoms: C_1  and  O_2
REMARK    2  A    between atoms: O_2  and  C_3
REMARK    3  A    between atoms: C_4  and  C_5
REMARK                            x       y       z     vdW  Elec       q    Type
REMARK                         _______ _______ _______ _____ _____    ______ ____
ROOT
ATOM      1  C   UNL     1       3.587   6.273  18.631  0.00  0.00    +0.000 A 
ATOM      2  C   UNL     1       3.110   5.532  19.695  0.00  0.00    +0.000 A 
ATOM      3  S   UNL     1       1.858   6.371  20.488  0.00  0.00    +0.000 S 
ATOM      4  C   UNL     1       2.009   7.681  19.360  0.00  0.00    +0.000 A 
ATOM      5  N   UNL     1       1.196   8.768  19.416  0.00  0.00    +0.000 N 
ATOM      6  C   UNL     1       0.986   9.596  18.226  0.00  0.00    +0.000 C 
ATOM      7  C   UNL     1       1.506  11.023  18.448  0.00  0.00    +0.000 C 
ATOM      8  O   UNL     1       0.969  11.604  19.650  0.00  0.00    +0.000 OA
ATOM      9  C   UNL     1       1.344  10.810  20.787  0.00  0.00    +0.000 C 
ATOM     10  C   UNL     1       0.786   9.382  20.683  0.00  0.00    +0.000 C 
ATOM     11  N   UNL     1       2.919   7.473  18.429  0.00  0.00    +0.000 NA
ENDROOT
BRANCH   1  13
ATOM     12  C   UNL     1       4.588   4.620  16.994  0.00  0.00    +0.000 A 
ATOM     13  C   UNL     1       4.674   5.804  17.764  0.00  0.00    +0.000 A 
ATOM     14  C   UNL     1       5.856   6.578  17.688  0.00  0.00    +0.000 A 
ATOM     15  C   UNL     1       6.915   6.210  16.857  0.00  0.00    +0.000 A 
ATOM     16  C   UNL     1       6.804   5.066  16.090  0.00  0.00    +0.000 A 
ATOM     17  F   UNL     1       7.811   4.720  15.280  0.00  0.00    +0.000 F 
ATOM     18  C   UNL     1       5.655   4.279  16.149  0.00  0.00    +0.000 A 
ATOM     19  F   UNL     1       5.596   3.200  15.351  0.00  0.00    +0.000 F 
BRANCH  12  21
ATOM     20  C   UNL     1       3.528   2.624  17.718  0.00  0.00    +0.000 C 
ATOM     21  O   UNL     1       3.427   3.889  17.066  0.00  0.00    +0.000 OA
ENDBRANCH  12  21
ENDBRANCH   1  13
TORSDOF 2
ENDMDL
MODEL 8
REMARK VINA RESULT:      -5.8      4.715      6.031
REMARK  Name = 
REMARK  3 active torsions:
REMARK  status: ('A' for Active; 'I' for Inactive)
REMARK    1  A    between atoms: C_1  and  O_2
REMARK    2  A    between atoms: O_2  and  C_3
REMARK    3  A    between atoms: C_4  and  C_5
REMARK                            x       y       z     vdW  Elec       q    Type
REMARK                         _______ _______ _______ _____ _____    ______ ____
ROOT
ATOM      1  C   UNL     1       4.737   5.271  16.370  0.00  0.00    +0.000 A 
ATOM      2  C   UNL     1       4.429   6.574  16.712  0.00  0.00    +0.000 A 
ATOM      3  S   UNL     1       3.568   6.614  18.180  0.00  0.00    +0.000 S 
ATOM      4  C   UNL     1       3.659   4.886  18.291  0.00  0.00    +0.000 A 
ATOM      5  N   UNL     1       3.143   4.211  19.352  0.00  0.00    +0.000 N 
ATOM      6  C   UNL     1       3.637   2.873  19.689  0.00  0.00    +0.000 C 
ATOM      7  C   UNL     1       2.524   1.825  19.557  0.00  0.00    +0.000 C 
ATOM      8  O   UNL     1       1.348   2.201  20.294  0.00  0.00    +0.000 OA
ATOM      9  C   UNL     1       0.842   3.453  19.805  0.00  0.00    +0.000 C 
ATOM     10  C   UNL     1       1.871   4.582  19.981  0.00  0.00    +0.000 C 
ATOM     11  N   UNL     1       4.329   4.327  17.303  0.00  0.00    +0.000 NA
ENDROOT
BRANCH   1  13
ATOM     12  C   UNL     1       6.792   5.371  14.894  0.00  0.00    +0.000 A 
ATOM     13  C   UNL     1       5.474   4.925  15.149  0.00  0.00    +0.000 A 
ATOM     14  C   UNL     1       4.839   4.101  14.190  0.00  0.00    +0.000 A 
ATOM     15  C   UNL     1       5.494   3.705  13.023  0.00  0.00    +0.000 A 
ATOM     16  C   UNL     1       6.792   4.125  12.802  0.00  0.00    +0.000 A 
ATOM     17  F   UNL     1       7.427   3.732  11.692  0.00  0.00    +0.000 F 
ATOM     18  C   UNL     1       7.440   4.944  13.725  0.00  0.00    +0.000 A 
ATOM     19  F   UNL     1       8.712   5.287  13.467  0.00  0.00    +0.000 F 
BRANCH  12  21
ATOM     20  C   UNL     1       7.692   5.519  17.084  0.00  0.00    +0.000 C 
ATOM     21  O   UNL     1       7.400   6.157  15.842  0.00  0.00    +0.000 OA
ENDBRANCH  12  21
ENDBRANCH   1  13
TORSDOF 2
ENDMDL
MODEL 9
REMARK VINA RESULT:      -5.8      5.972      8.426
REMARK  Name = 
REMARK  3 active torsions:
REMARK  status: ('A' for Active; 'I' for Inactive)
REMARK    1  A    between atoms: C_1  and  O_2
REMARK    2  A    between atoms: O_2  and  C_3
REMARK    3  A    between atoms: C_4  and  C_5
REMARK                            x       y       z     vdW  Elec       q    Type
REMARK                         _______ _______ _______ _____ _____    ______ ____
ROOT
ATOM      1  C   UNL     1      -2.006  12.383  22.938  0.00  0.00    +0.000 A 
ATOM      2  C   UNL     1      -1.422  13.560  23.366  0.00  0.00    +0.000 A 
ATOM      3  S   UNL     1      -2.607  14.632  23.954  0.00  0.00    +0.000 S 
ATOM      4  C   UNL     1      -3.844  13.464  23.615  0.00  0.00    +0.000 A 
ATOM      5  N   UNL     1      -5.149  13.700  23.910  0.00  0.00    +0.000 N 
ATOM      6  C   UNL     1      -6.081  12.585  24.092  0.00  0.00    +0.000 C 
ATOM      7  C   UNL     1      -7.190  12.614  23.031  0.00  0.00    +0.000 C 
ATOM      8  O   UNL     1      -7.839  13.896  22.975  0.00  0.00    +0.000 OA
ATOM      9  C   UNL     1      -6.882  14.916  22.648  0.00  0.00    +0.000 C 
ATOM     10  C   UNL     1      -5.777  15.011  23.713  0.00  0.00    +0.000 C 
ATOM     11  N   UNL     1      -3.381  12.330  23.128  0.00  0.00    +0.000 NA
ENDROOT
BRANCH   1  13
ATOM     12  C   UNL     1      -0.871  11.200  21.009  0.00  0.00    +0.000 A 
ATOM     13  C   UNL     1      -1.230  11.272  22.375  0.00  0.00    +0.000 A 
ATOM     14  C   UNL     1      -0.816  10.233  23.241  0.00  0.00    +0.000 A 
ATOM     15  C   UNL     1      -0.047   9.164  22.780  0.00  0.00    +0.000 A 
ATOM     16  C   UNL     1       0.321   9.123  21.448  0.00  0.00    +0.000 A 
ATOM     17  F   UNL     1       1.074   8.109  21.008  0.00  0.00    +0.000 F 
ATOM     18  C   UNL     1      -0.078  10.129  20.569  0.00  0.00    +0.000 A 
ATOM     19  F   UNL     1       0.343  10.048  19.297  0.00  0.00    +0.000 F 
BRANCH  12  21
ATOM     20  C   UNL     1      -2.358  11.938  19.314  0.00  0.00    +0.000 C 
ATOM     21  O   UNL     1      -1.266  12.226  20.185  0.00  0.00    +0.000 OA
ENDBRANCH  12  21
ENDBRANCH   1  13
TORSDOF 2
ENDMDL
