MODEL 1
REMARK VINA RESULT:      -6.7      0.000      0.000
REMARK  Name = 
REMARK  12 active torsions:
REMARK  status: ('A' for Active; 'I' for Inactive)
REMARK    1  A    between atoms: C_2  and  C_3
REMARK    2  A    between atoms: C_3  and  C_4
REMARK    3  A    between atoms: C_6  and  O_7
REMARK    4  A    between atoms: O_7  and  C_8
REMARK    5  A    between atoms: C_8  and  C_9
REMARK    6  A    between atoms: C_9  and  C_10
REMARK    7  A    between atoms: C_10  and  C_11
REMARK    8  A    between atoms: C_10  and  C_12
REMARK    9  A    between atoms: C_15  and  O_16
REMARK   10  A    between atoms: O_16  and  C_17
REMARK   11  A    between atoms: C_17  and  C_18
REMARK   12  A    between atoms: C_18  and  C_19
REMARK                            x       y       z     vdW  Elec       q    Type
REMARK                         _______ _______ _______ _____ _____    ______ ____
ROOT
ATOM      1  C   UNL     1       5.438   4.621  16.328  0.00  0.00    +0.000 A 
ATOM      2  C   UNL     1       4.448   3.704  16.747  0.00  0.00    +0.000 A 
ATOM      3  C   UNL     1       3.333   4.119  17.481  0.00  0.00    +0.000 A 
ATOM      4  C   UNL     1       3.172   5.468  17.766  0.00  0.00    +0.000 A 
ATOM      5  C   UNL     1       4.132   6.387  17.353  0.00  0.00    +0.000 A 
ATOM      6  C   UNL     1       5.294   5.974  16.688  0.00  0.00    +0.000 A 
ENDROOT
BRANCH   1   7
ATOM      7  C   UNL     1       6.577   4.109  15.466  0.00  0.00    +0.000 C 
BRANCH   7   9
ATOM      8  C   UNL     1       6.314   3.647  12.994  0.00  0.00    +0.000 C 
ATOM      9  C   UNL     1       6.464   4.509  14.015  0.00  0.00    +0.000 C 
ENDBRANCH   7   9
ENDBRANCH   1   7
BRANCH   3  10
ATOM     10  O   UNL     1       2.478   3.133  17.890  0.00  0.00    +0.000 OA
BRANCH  10  11
ATOM     11  C   UNL     1       1.230   3.615  18.391  0.00  0.00    +0.000 C 
BRANCH  11  12
ATOM     12  C   UNL     1       0.814   2.759  19.580  0.00  0.00    +0.000 C 
BRANCH  12  13
ATOM     13  C   UNL     1       1.219   3.387  20.924  0.00  0.00    +0.000 C 
ATOM     14  C   UNL     1       2.463   2.725  21.521  0.00  0.00    +0.000 C 
ATOM     15  C   UNL     1       1.462   4.885  20.742  0.00  0.00    +0.000 C 
ENDBRANCH  12  13
ENDBRANCH  11  12
ENDBRANCH  10  11
ENDBRANCH   3  10
BRANCH   6  16
ATOM     16  O   UNL     1       6.312   6.857  16.397  0.00  0.00    +0.000 OA
BRANCH  16  17
ATOM     17  C   UNL     1       6.874   7.500  17.550  0.00  0.00    +0.000 C 
BRANCH  17  18
ATOM     18  C   UNL     1       8.001   6.684  18.167  0.00  0.00    +0.000 C 
ATOM     19  C   UNL     1       7.522   5.848  19.341  0.00  0.00    +0.000 C 
ENDBRANCH  17  18
ENDBRANCH  16  17
ENDBRANCH   6  16
TORSDOF 9
ENDMDL
MODEL 2
REMARK VINA RESULT:      -6.6      1.113      1.494
REMARK  Name = 
REMARK  12 active torsions:
REMARK  status: ('A' for Active; 'I' for Inactive)
REMARK    1  A    between atoms: C_2  and  C_3
REMARK    2  A    between atoms: C_3  and  C_4
REMARK    3  A    between atoms: C_6  and  O_7
REMARK    4  A    between atoms: O_7  and  C_8
REMARK    5  A    between atoms: C_8  and  C_9
REMARK    6  A    between atoms: C_9  and  C_10
REMARK    7  A    between atoms: C_10  and  C_11
REMARK    8  A    between atoms: C_10  and  C_12
REMARK    9  A    between atoms: C_15  and  O_16
REMARK   10  A    between atoms: O_16  and  C_17
REMARK   11  A    between atoms: C_17  and  C_18
REMARK   12  A    between atoms: C_18  and  C_19
REMARK                            x       y       z     vdW  Elec       q    Type
REMARK                         _______ _______ _______ _____ _____    ______ ____
ROOT
ATOM      1  C   UNL     1       5.330   4.597  16.548  0.00  0.00    +0.000 A 
ATOM      2  C   UNL     1       4.124   3.873  16.680  0.00  0.00    +0.000 A 
ATOM      3  C   UNL     1       3.702   3.379  17.918  0.00  0.00    +0.000 A 
ATOM      4  C   UNL     1       4.462   3.643  19.049  0.00  0.00    +0.000 A 
ATOM      5  C   UNL     1       5.648   4.364  18.938  0.00  0.00    +0.000 A 
ATOM      6  C   UNL     1       6.124   4.795  17.693  0.00  0.00    +0.000 A 
ENDROOT
BRANCH   1   7
ATOM      7  C   UNL     1       5.680   5.172  15.187  0.00  0.00    +0.000 C 
BRANCH   7   9
ATOM      8  C   UNL     1       6.813   4.321  13.093  0.00  0.00    +0.000 C 
ATOM      9  C   UNL     1       6.013   4.122  14.155  0.00  0.00    +0.000 C 
ENDBRANCH   7   9
ENDBRANCH   1   7
BRANCH   3  10
ATOM     10  O   UNL     1       2.555   2.634  17.912  0.00  0.00    +0.000 OA
BRANCH  10  11
ATOM     11  C   UNL     1       1.385   3.364  18.282  0.00  0.00    +0.000 C 
BRANCH  11  12
ATOM     12  C   UNL     1       0.742   2.686  19.485  0.00  0.00    +0.000 C 
BRANCH  12  13
ATOM     13  C   UNL     1       1.020   3.436  20.799  0.00  0.00    +0.000 C 
ATOM     14  C   UNL     1       2.103   2.751  21.636  0.00  0.00    +0.000 C 
ATOM     15  C   UNL     1       1.429   4.877  20.494  0.00  0.00    +0.000 C 
ENDBRANCH  12  13
ENDBRANCH  11  12
ENDBRANCH  10  11
ENDBRANCH   3  10
BRANCH   6  16
ATOM     16  O   UNL     1       7.360   5.388  17.557  0.00  0.00    +0.000 OA
BRANCH  16  17
ATOM     17  C   UNL     1       7.914   5.869  18.791  0.00  0.00    +0.000 C 
BRANCH  17  18
ATOM     18  C   UNL     1       8.258   7.350  18.722  0.00  0.00    +0.000 C 
ATOM     19  C   UNL     1       7.734   7.999  17.452  0.00  0.00    +0.000 C 
ENDBRANCH  17  18
ENDBRANCH  16  17
ENDBRANCH   6  16
TORSDOF 9
ENDMDL
MODEL 3
REMARK VINA RESULT:      -6.5      0.941      1.156
REMARK  Name = 
REMARK  12 active torsions:
REMARK  status: ('A' for Active; 'I' for Inactive)
REMARK    1  A    between atoms: C_2  and  C_3
REMARK    2  A    between atoms: C_3  and  C_4
REMARK    3  A    between atoms: C_6  and  O_7
REMARK    4  A    between atoms: O_7  and  C_8
REMARK    5  A    between atoms: C_8  and  C_9
REMARK    6  A    between atoms: C_9  and  C_10
REMARK    7  A    between atoms: C_10  and  C_11
REMARK    8  A    between atoms: C_10  and  C_12
REMARK    9  A    between atoms: C_15  and  O_16
REMARK   10  A    between atoms: O_16  and  C_17
REMARK   11  A    between atoms: C_17  and  C_18
REMARK   12  A    between atoms: C_18  and  C_19
REMARK                            x       y       z     vdW  Elec       q    Type
REMARK                         _______ _______ _______ _____ _____    ______ ____
ROOT
ATOM      1  C   UNL     1       5.850   4.798  16.114  0.00  0.00    +0.000 A 
ATOM      2  C   UNL     1       4.728   3.966  16.326  0.00  0.00    +0.000 A 
ATOM      3  C   UNL     1       3.651   4.379  17.116  0.00  0.00    +0.000 A 
ATOM      4  C   UNL     1       3.665   5.653  17.668  0.00  0.00    +0.000 A 
ATOM      5  C   UNL     1       4.757   6.489  17.462  0.00  0.00    +0.000 A 
ATOM      6  C   UNL     1       5.878   6.058  16.741  0.00  0.00    +0.000 A 
ENDROOT
BRANCH   1   7
ATOM      7  C   UNL     1       6.941   4.312  15.179  0.00  0.00    +0.000 C 
BRANCH   7   9
ATOM      8  C   UNL     1       5.994   3.597  12.946  0.00  0.00    +0.000 C 
ATOM      9  C   UNL     1       6.616   4.506  13.717  0.00  0.00    +0.000 C 
ENDBRANCH   7   9
ENDBRANCH   1   7
BRANCH   3  10
ATOM     10  O   UNL     1       2.654   3.463  17.305  0.00  0.00    +0.000 OA
BRANCH  10  11
ATOM     11  C   UNL     1       1.540   3.959  18.049  0.00  0.00    +0.000 C 
BRANCH  11  12
ATOM     12  C   UNL     1       1.142   2.920  19.090  0.00  0.00    +0.000 C 
BRANCH  12  13
ATOM     13  C   UNL     1       0.935   3.537  20.483  0.00  0.00    +0.000 C 
ATOM     14  C   UNL     1       1.489   2.645  21.597  0.00  0.00    +0.000 C 
ATOM     15  C   UNL     1       1.593   4.915  20.542  0.00  0.00    +0.000 C 
ENDBRANCH  12  13
ENDBRANCH  11  12
ENDBRANCH  10  11
ENDBRANCH   3  10
BRANCH   6  16
ATOM     16  O   UNL     1       7.018   6.827  16.647  0.00  0.00    +0.000 OA
BRANCH  16  17
ATOM     17  C   UNL     1       6.991   8.010  17.461  0.00  0.00    +0.000 C 
BRANCH  17  18
ATOM     18  C   UNL     1       8.307   8.229  18.193  0.00  0.00    +0.000 C 
ATOM     19  C   UNL     1       8.648   9.704  18.323  0.00  0.00    +0.000 C 
ENDBRANCH  17  18
ENDBRANCH  16  17
ENDBRANCH   6  16
TORSDOF 9
ENDMDL
MODEL 4
REMARK VINA RESULT:      -6.5      1.176      1.657
REMARK  Name = 
REMARK  12 active torsions:
REMARK  status: ('A' for Active; 'I' for Inactive)
REMARK    1  A    between atoms: C_2  and  C_3
REMARK    2  A    between atoms: C_3  and  C_4
REMARK    3  A    between atoms: C_6  and  O_7
REMARK    4  A    between atoms: O_7  and  C_8
REMARK    5  A    between atoms: C_8  and  C_9
REMARK    6  A    between atoms: C_9  and  C_10
REMARK    7  A    between atoms: C_10  and  C_11
REMARK    8  A    between atoms: C_10  and  C_12
REMARK    9  A    between atoms: C_15  and  O_16
REMARK   10  A    between atoms: O_16  and  C_17
REMARK   11  A    between atoms: C_17  and  C_18
REMARK   12  A    between atoms: C_18  and  C_19
REMARK                            x       y       z     vdW  Elec       q    Type
REMARK                         _______ _______ _______ _____ _____    ______ ____
ROOT
ATOM      1  C   UNL     1       5.622   4.673  16.270  0.00  0.00    +0.000 A 
ATOM      2  C   UNL     1       4.446   3.923  16.494  0.00  0.00    +0.000 A 
ATOM      3  C   UNL     1       4.003   3.630  17.787  0.00  0.00    +0.000 A 
ATOM      4  C   UNL     1       4.710   4.124  18.875  0.00  0.00    +0.000 A 
ATOM      5  C   UNL     1       5.865   4.873  18.673  0.00  0.00    +0.000 A 
ATOM      6  C   UNL     1       6.365   5.106  17.385  0.00  0.00    +0.000 A 
ENDROOT
BRANCH   1   7
ATOM      7  C   UNL     1       5.995   5.021  14.841  0.00  0.00    +0.000 C 
BRANCH   7   9
ATOM      8  C   UNL     1       6.355   3.847  12.630  0.00  0.00    +0.000 C 
ATOM      9  C   UNL     1       6.242   3.813  13.969  0.00  0.00    +0.000 C 
ENDBRANCH   7   9
ENDBRANCH   1   7
BRANCH   3  10
ATOM     10  O   UNL     1       2.892   2.839  17.880  0.00  0.00    +0.000 OA
BRANCH  10  11
ATOM     11  C   UNL     1       1.691   3.553  18.174  0.00  0.00    +0.000 C 
BRANCH  11  12
ATOM     12  C   UNL     1       1.073   2.976  19.442  0.00  0.00    +0.000 C 
BRANCH  12  13
ATOM     13  C   UNL     1       1.873   3.345  20.703  0.00  0.00    +0.000 C 
ATOM     14  C   UNL     1       1.915   4.857  20.939  0.00  0.00    +0.000 C 
ATOM     15  C   UNL     1       1.272   2.644  21.920  0.00  0.00    +0.000 C 
ENDBRANCH  12  13
ENDBRANCH  11  12
ENDBRANCH  10  11
ENDBRANCH   3  10
BRANCH   6  16
ATOM     16  O   UNL     1       7.578   5.728  17.182  0.00  0.00    +0.000 OA
BRANCH  16  17
ATOM     17  C   UNL     1       7.864   6.770  18.127  0.00  0.00    +0.000 C 
BRANCH  17  18
ATOM     18  C   UNL     1       7.620   8.154  17.542  0.00  0.00    +0.000 C 
ATOM     19  C   UNL     1       8.410   9.227  18.271  0.00  0.00    +0.000 C 
ENDBRANCH  17  18
ENDBRANCH  16  17
ENDBRANCH   6  16
TORSDOF 9
ENDMDL
MODEL 5
REMARK VINA RESULT:      -6.4      1.292      3.143
REMARK  Name = 
REMARK  12 active torsions:
REMARK  status: ('A' for Active; 'I' for Inactive)
REMARK    1  A    between atoms: C_2  and  C_3
REMARK    2  A    between atoms: C_3  and  C_4
REMARK    3  A    between atoms: C_6  and  O_7
REMARK    4  A    between atoms: O_7  and  C_8
REMARK    5  A    between atoms: C_8  and  C_9
REMARK    6  A    between atoms: C_9  and  C_10
REMARK    7  A    between atoms: C_10  and  C_11
REMARK    8  A    between atoms: C_10  and  C_12
REMARK    9  A    between atoms: C_15  and  O_16
REMARK   10  A    between atoms: O_16  and  C_17
REMARK   11  A    between atoms: C_17  and  C_18
REMARK   12  A    between atoms: C_18  and  C_19
REMARK                            x       y       z     vdW  Elec       q    Type
REMARK                         _______ _______ _______ _____ _____    ______ ____
ROOT
ATOM      1  C   UNL     1       3.919   6.164  17.427  0.00  0.00    +0.000 A 
ATOM      2  C   UNL     1       2.940   5.156  17.569  0.00  0.00    +0.000 A 
ATOM      3  C   UNL     1       3.176   3.845  17.147  0.00  0.00    +0.000 A 
ATOM      4  C   UNL     1       4.417   3.515  16.616  0.00  0.00    +0.000 A 
ATOM      5  C   UNL     1       5.396   4.494  16.478  0.00  0.00    +0.000 A 
ATOM      6  C   UNL     1       5.145   5.829  16.822  0.00  0.00    +0.000 A 
ENDROOT
BRANCH   1   7
ATOM      7  C   UNL     1       3.620   7.544  17.983  0.00  0.00    +0.000 C 
BRANCH   7   9
ATOM      8  C   UNL     1       1.588   9.042  17.833  0.00  0.00    +0.000 C 
ATOM      9  C   UNL     1       2.145   7.846  18.091  0.00  0.00    +0.000 C 
ENDBRANCH   7   9
ENDBRANCH   1   7
BRANCH   3  10
ATOM     10  O   UNL     1       2.131   2.972  17.272  0.00  0.00    +0.000 OA
BRANCH  10  11
ATOM     11  C   UNL     1       1.147   3.374  18.226  0.00  0.00    +0.000 C 
BRANCH  11  12
ATOM     12  C   UNL     1       1.236   2.458  19.440  0.00  0.00    +0.000 C 
BRANCH  12  13
ATOM     13  C   UNL     1       1.004   3.212  20.760  0.00  0.00    +0.000 C 
ATOM     14  C   UNL     1       1.762   2.577  21.929  0.00  0.00    +0.000 C 
ATOM     15  C   UNL     1       1.422   4.674  20.601  0.00  0.00    +0.000 C 
ENDBRANCH  12  13
ENDBRANCH  11  12
ENDBRANCH  10  11
ENDBRANCH   3  10
BRANCH   6  16
ATOM     16  O   UNL     1       6.059   6.827  16.562  0.00  0.00    +0.000 OA
BRANCH  16  17
ATOM     17  C   UNL     1       7.396   6.518  16.985  0.00  0.00    +0.000 C 
BRANCH  17  18
ATOM     18  C   UNL     1       7.843   7.392  18.147  0.00  0.00    +0.000 C 
ATOM     19  C   UNL     1       7.976   8.851  17.744  0.00  0.00    +0.000 C 
ENDBRANCH  17  18
ENDBRANCH  16  17
ENDBRANCH   6  16
TORSDOF 9
ENDMDL
MODEL 6
REMARK VINA RESULT:      -6.4      1.560      3.287
REMARK  Name = 
REMARK  12 active torsions:
REMARK  status: ('A' for Active; 'I' for Inactive)
REMARK    1  A    between atoms: C_2  and  C_3
REMARK    2  A    between atoms: C_3  and  C_4
REMARK    3  A    between atoms: C_6  and  O_7
REMARK    4  A    between atoms: O_7  and  C_8
REMARK    5  A    between atoms: C_8  and  C_9
REMARK    6  A    between atoms: C_9  and  C_10
REMARK    7  A    between atoms: C_10  and  C_11
REMARK    8  A    between atoms: C_10  and  C_12
REMARK    9  A    between atoms: C_15  and  O_16
REMARK   10  A    between atoms: O_16  and  C_17
REMARK   11  A    between atoms: C_17  and  C_18
REMARK   12  A    between atoms: C_18  and  C_19
REMARK                            x       y       z     vdW  Elec       q    Type
REMARK                         _______ _______ _______ _____ _____    ______ ____
ROOT
ATOM      1  C   UNL     1       3.463   6.208  17.527  0.00  0.00    +0.000 A 
ATOM      2  C   UNL     1       2.342   5.429  17.888  0.00  0.00    +0.000 A 
ATOM      3  C   UNL     1       2.301   4.053  17.647  0.00  0.00    +0.000 A 
ATOM      4  C   UNL     1       3.406   3.430  17.082  0.00  0.00    +0.000 A 
ATOM      5  C   UNL     1       4.523   4.180  16.729  0.00  0.00    +0.000 A 
ATOM      6  C   UNL     1       4.545   5.573  16.890  0.00  0.00    +0.000 A 
ENDROOT
BRANCH   1   7
ATOM      7  C   UNL     1       3.467   7.680  17.894  0.00  0.00    +0.000 C 
BRANCH   7   9
ATOM      8  C   UNL     1       1.538   9.103  18.700  0.00  0.00    +0.000 C 
ATOM      9  C   UNL     1       2.117   8.342  17.756  0.00  0.00    +0.000 C 
ENDBRANCH   7   9
ENDBRANCH   1   7
BRANCH   3  10
ATOM     10  O   UNL     1       1.137   3.415  17.976  0.00  0.00    +0.000 OA
BRANCH  10  11
ATOM     11  C   UNL     1       0.822   3.459  19.368  0.00  0.00    +0.000 C 
BRANCH  11  12
ATOM     12  C   UNL     1       1.499   2.285  20.064  0.00  0.00    +0.000 C 
BRANCH  12  13
ATOM     13  C   UNL     1       2.569   2.740  21.071  0.00  0.00    +0.000 C 
ATOM     14  C   UNL     1       3.989   2.522  20.542  0.00  0.00    +0.000 C 
ATOM     15  C   UNL     1       2.361   4.214  21.416  0.00  0.00    +0.000 C 
ENDBRANCH  12  13
ENDBRANCH  11  12
ENDBRANCH  10  11
ENDBRANCH   3  10
BRANCH   6  16
ATOM     16  O   UNL     1       5.590   6.338  16.419  0.00  0.00    +0.000 OA
BRANCH  16  17
ATOM     17  C   UNL     1       6.885   5.860  16.810  0.00  0.00    +0.000 C 
BRANCH  17  18
ATOM     18  C   UNL     1       7.460   6.656  17.973  0.00  0.00    +0.000 C 
ATOM     19  C   UNL     1       7.757   5.775  19.175  0.00  0.00    +0.000 C 
ENDBRANCH  17  18
ENDBRANCH  16  17
ENDBRANCH   6  16
TORSDOF 9
ENDMDL
MODEL 7
REMARK VINA RESULT:      -6.4      1.302      3.622
REMARK  Name = 
REMARK  12 active torsions:
REMARK  status: ('A' for Active; 'I' for Inactive)
REMARK    1  A    between atoms: C_2  and  C_3
REMARK    2  A    between atoms: C_3  and  C_4
REMARK    3  A    between atoms: C_6  and  O_7
REMARK    4  A    between atoms: O_7  and  C_8
REMARK    5  A    between atoms: C_8  and  C_9
REMARK    6  A    between atoms: C_9  and  C_10
REMARK    7  A    between atoms: C_10  and  C_11
REMARK    8  A    between atoms: C_10  and  C_12
REMARK    9  A    between atoms: C_15  and  O_16
REMARK   10  A    between atoms: O_16  and  C_17
REMARK   11  A    between atoms: C_17  and  C_18
REMARK   12  A    between atoms: C_18  and  C_19
REMARK                            x       y       z     vdW  Elec       q    Type
REMARK                         _______ _______ _______ _____ _____    ______ ____
ROOT
ATOM      1  C   UNL     1       6.264   5.122  17.809  0.00  0.00    +0.000 A 
ATOM      2  C   UNL     1       5.243   5.394  18.746  0.00  0.00    +0.000 A 
ATOM      3  C   UNL     1       3.907   5.082  18.481  0.00  0.00    +0.000 A 
ATOM      4  C   UNL     1       3.582   4.449  17.288  0.00  0.00    +0.000 A 
ATOM      5  C   UNL     1       4.576   4.165  16.357  0.00  0.00    +0.000 A 
ATOM      6  C   UNL     1       5.907   4.546  16.575  0.00  0.00    +0.000 A 
ENDROOT
BRANCH   1   7
ATOM      7  C   UNL     1       7.700   5.416  18.201  0.00  0.00    +0.000 C 
BRANCH   7   9
ATOM      8  C   UNL     1       7.707   7.866  17.577  0.00  0.00    +0.000 C 
ATOM      9  C   UNL     1       7.973   6.880  18.451  0.00  0.00    +0.000 C 
ENDBRANCH   7   9
ENDBRANCH   1   7
BRANCH   3  10
ATOM     10  O   UNL     1       2.999   5.453  19.433  0.00  0.00    +0.000 OA
BRANCH  10  11
ATOM     11  C   UNL     1       1.691   4.917  19.232  0.00  0.00    +0.000 C 
BRANCH  11  12
ATOM     12  C   UNL     1       1.140   4.447  20.572  0.00  0.00    +0.000 C 
BRANCH  12  13
ATOM     13  C   UNL     1       1.214   2.919  20.733  0.00  0.00    +0.000 C 
ATOM     14  C   UNL     1       1.489   2.212  19.403  0.00  0.00    +0.000 C 
ATOM     15  C   UNL     1       2.297   2.558  21.749  0.00  0.00    +0.000 C 
ENDBRANCH  12  13
ENDBRANCH  11  12
ENDBRANCH  10  11
ENDBRANCH   3  10
BRANCH   6  16
ATOM     16  O   UNL     1       6.872   4.392  15.603  0.00  0.00    +0.000 OA
BRANCH  16  17
ATOM     17  C   UNL     1       6.431   4.747  14.284  0.00  0.00    +0.000 C 
BRANCH  17  18
ATOM     18  C   UNL     1       6.449   3.556  13.336  0.00  0.00    +0.000 C 
ATOM     19  C   UNL     1       5.298   3.599  12.345  0.00  0.00    +0.000 C 
ENDBRANCH  17  18
ENDBRANCH  16  17
ENDBRANCH   6  16
TORSDOF 9
ENDMDL
MODEL 8
REMARK VINA RESULT:      -6.4      1.775      6.101
REMARK  Name = 
REMARK  12 active torsions:
REMARK  status: ('A' for Active; 'I' for Inactive)
REMARK    1  A    between atoms: C_2  and  C_3
REMARK    2  A    between atoms: C_3  and  C_4
REMARK    3  A    between atoms: C_6  and  O_7
REMARK    4  A    between atoms: O_7  and  C_8
REMARK    5  A    between atoms: C_8  and  C_9
REMARK    6  A    between atoms: C_9  and  C_10
REMARK    7  A    between atoms: C_10  and  C_11
REMARK    8  A    between atoms: C_10  and  C_12
REMARK    9  A    between atoms: C_15  and  O_16
REMARK   10  A    between atoms: O_16  and  C_17
REMARK   11  A    between atoms: C_17  and  C_18
REMARK   12  A    between atoms: C_18  and  C_19
REMARK                            x       y       z     vdW  Elec       q    Type
REMARK                         _______ _______ _______ _____ _____    ______ ____
ROOT
ATOM      1  C   UNL     1       2.958   5.341  18.456  0.00  0.00    +0.000 A 
ATOM      2  C   UNL     1       4.233   5.735  18.920  0.00  0.00    +0.000 A 
ATOM      3  C   UNL     1       5.245   4.800  19.157  0.00  0.00    +0.000 A 
ATOM      4  C   UNL     1       5.006   3.459  18.886  0.00  0.00    +0.000 A 
ATOM      5  C   UNL     1       3.759   3.054  18.419  0.00  0.00    +0.000 A 
ATOM      6  C   UNL     1       2.711   3.970  18.255  0.00  0.00    +0.000 A 
ENDROOT
BRANCH   1   7
ATOM      7  C   UNL     1       1.938   6.420  18.145  0.00  0.00    +0.000 C 
BRANCH   7   9
ATOM      8  C   UNL     1       1.827   8.925  17.814  0.00  0.00    +0.000 C 
ATOM      9  C   UNL     1       2.532   7.805  18.053  0.00  0.00    +0.000 C 
ENDBRANCH   7   9
ENDBRANCH   1   7
BRANCH   3  10
ATOM     10  O   UNL     1       6.413   5.291  19.670  0.00  0.00    +0.000 OA
BRANCH  10  11
ATOM     11  C   UNL     1       7.476   5.377  18.720  0.00  0.00    +0.000 C 
BRANCH  11  12
ATOM     12  C   UNL     1       7.162   6.492  17.731  0.00  0.00    +0.000 C 
BRANCH  12  13
ATOM     13  C   UNL     1       6.959   5.965  16.300  0.00  0.00    +0.000 C 
ATOM     14  C   UNL     1       7.216   4.460  16.198  0.00  0.00    +0.000 C 
ATOM     15  C   UNL     1       5.541   6.285  15.828  0.00  0.00    +0.000 C 
ENDBRANCH  12  13
ENDBRANCH  11  12
ENDBRANCH  10  11
ENDBRANCH   3  10
BRANCH   6  16
ATOM     16  O   UNL     1       1.438   3.559  17.925  0.00  0.00    +0.000 OA
BRANCH  16  17
ATOM     17  C   UNL     1       0.811   2.742  18.925  0.00  0.00    +0.000 C 
BRANCH  17  18
ATOM     18  C   UNL     1       0.714   3.454  20.266  0.00  0.00    +0.000 C 
ATOM     19  C   UNL     1       1.432   2.694  21.368  0.00  0.00    +0.000 C 
ENDBRANCH  17  18
ENDBRANCH  16  17
ENDBRANCH   6  16
TORSDOF 9
ENDMDL
MODEL 9
REMARK VINA RESULT:      -6.2      1.333      3.708
REMARK  Name = 
REMARK  12 active torsions:
REMARK  status: ('A' for Active; 'I' for Inactive)
REMARK    1  A    between atoms: C_2  and  C_3
REMARK    2  A    between atoms: C_3  and  C_4
REMARK    3  A    between atoms: C_6  and  O_7
REMARK    4  A    between atoms: O_7  and  C_8
REMARK    5  A    between atoms: C_8  and  C_9
REMARK    6  A    between atoms: C_9  and  C_10
REMARK    7  A    between atoms: C_10  and  C_11
REMARK    8  A    between atoms: C_10  and  C_12
REMARK    9  A    between atoms: C_15  and  O_16
REMARK   10  A    between atoms: O_16  and  C_17
REMARK   11  A    between atoms: C_17  and  C_18
REMARK   12  A    between atoms: C_18  and  C_19
REMARK                            x       y       z     vdW  Elec       q    Type
REMARK                         _______ _______ _______ _____ _____    ______ ____
ROOT
ATOM      1  C   UNL     1       5.604   6.197  17.058  0.00  0.00    +0.000 A 
ATOM      2  C   UNL     1       5.005   5.879  18.297  0.00  0.00    +0.000 A 
ATOM      3  C   UNL     1       4.390   4.643  18.515  0.00  0.00    +0.000 A 
ATOM      4  C   UNL     1       4.407   3.689  17.506  0.00  0.00    +0.000 A 
ATOM      5  C   UNL     1       5.001   3.981  16.282  0.00  0.00    +0.000 A 
ATOM      6  C   UNL     1       5.549   5.245  16.023  0.00  0.00    +0.000 A 
ENDROOT
BRANCH   1   7
ATOM      7  C   UNL     1       6.322   7.526  16.924  0.00  0.00    +0.000 C 
BRANCH   7   9
ATOM      8  C   UNL     1       8.264   8.703  18.037  0.00  0.00    +0.000 C 
ATOM      9  C   UNL     1       7.646   7.574  17.649  0.00  0.00    +0.000 C 
ENDBRANCH   7   9
ENDBRANCH   1   7
BRANCH   3  10
ATOM     10  O   UNL     1       3.784   4.475  19.730  0.00  0.00    +0.000 OA
BRANCH  10  11
ATOM     11  C   UNL     1       2.764   5.434  20.010  0.00  0.00    +0.000 C 
BRANCH  11  12
ATOM     12  C   UNL     1       1.450   4.700  20.248  0.00  0.00    +0.000 C 
BRANCH  12  13
ATOM     13  C   UNL     1       1.629   3.173  20.269  0.00  0.00    +0.000 C 
ATOM     14  C   UNL     1       1.357   2.579  21.654  0.00  0.00    +0.000 C 
ATOM     15  C   UNL     1       0.704   2.530  19.236  0.00  0.00    +0.000 C 
ENDBRANCH  12  13
ENDBRANCH  11  12
ENDBRANCH  10  11
ENDBRANCH   3  10
BRANCH   6  16
ATOM     16  O   UNL     1       6.016   5.587  14.772  0.00  0.00    +0.000 OA
BRANCH  16  17
ATOM     17  C   UNL     1       7.081   4.750  14.298  0.00  0.00    +0.000 C 
BRANCH  17  18
ATOM     18  C   UNL     1       6.934   4.420  12.820  0.00  0.00    +0.000 C 
ATOM     19  C   UNL     1       5.818   3.421  12.567  0.00  0.00    +0.000 C 
ENDBRANCH  17  18
ENDBRANCH  16  17
ENDBRANCH   6  16
TORSDOF 9
ENDMDL
