MODEL 1
REMARK VINA RESULT:      -8.1      0.000      0.000
REMARK  Name = 
REMARK  7 active torsions:
REMARK  status: ('A' for Active; 'I' for Inactive)
REMARK    1  A    between atoms: C_1  and  C_2
REMARK    2  A    between atoms: C_2  and  O_3
REMARK    3  A    between atoms: O_3  and  C_4
REMARK    4  A    between atoms: C_4  and  C_6
REMARK    5  A    between atoms: C_7  and  C_8
REMARK    6  A    between atoms: C_9  and  O_10
REMARK    7  A    between atoms: O_10  and  C_11
REMARK                            x       y       z     vdW  Elec       q    Type
REMARK                         _______ _______ _______ _____ _____    ______ ____
ROOT
ATOM      1  C   UNL     1       5.864   4.432  16.903  0.00  0.00    +0.000 A 
ATOM      2  C   UNL     1       4.871   4.713  17.769  0.00  0.00    +0.000 A 
ATOM      3  N   UNL     1       5.087   5.298  19.007  0.00  0.00    +0.000 NA
ATOM      4  C   UNL     1       6.295   5.418  19.422  0.00  0.00    +0.000 A 
ATOM      5  N   UNL     1       7.377   5.045  18.700  0.00  0.00    +0.000 N 
ATOM      6  C   UNL     1       7.254   4.558  17.435  0.00  0.00    +0.000 A 
ATOM      7  O   UNL     1       8.249   4.217  16.801  0.00  0.00    +0.000 OA
ATOM      8  H   UNL     1       8.309   5.113  19.074  0.00  0.00    +0.000 HD
ENDROOT
BRANCH   1  10
ATOM      9  C   UNL     1       6.053   4.595  14.475  0.00  0.00    +0.000 C 
ATOM     10  C   UNL     1       5.674   3.906  15.564  0.00  0.00    +0.000 C 
BRANCH   9  11
ATOM     11  C   UNL     1       6.085   3.941  13.155  0.00  0.00    +0.000 C 
ATOM     12  O   UNL     1       7.069   3.846  12.440  0.00  0.00    +0.000 OA
BRANCH  11  13
ATOM     13  O   UNL     1       4.807   3.611  12.835  0.00  0.00    +0.000 OA
BRANCH  13  15
ATOM     14  C   UNL     1       3.601   3.629  10.777  0.00  0.00    +0.000 C 
ATOM     15  C   UNL     1       4.650   2.900  11.600  0.00  0.00    +0.000 C 
ENDBRANCH  13  15
ENDBRANCH  11  13
ENDBRANCH   9  11
ENDBRANCH   1  10
BRANCH   2  16
ATOM     16  O   UNL     1       3.543   4.412  17.413  0.00  0.00    +0.000 OA
BRANCH  16  17
ATOM     17  C   UNL     1       2.706   3.965  18.420  0.00  0.00    +0.000 A 
ATOM     18  C   UNL     1       1.913   4.863  19.153  0.00  0.00    +0.000 A 
ATOM     19  C   UNL     1       0.974   4.396  20.071  0.00  0.00    +0.000 A 
ATOM     20  C   UNL     1       0.868   3.030  20.315  0.00  0.00    +0.000 A 
ATOM     21  C   UNL     1       1.721   2.136  19.662  0.00  0.00    +0.000 A 
ATOM     22  C   UNL     1       2.645   2.602  18.718  0.00  0.00    +0.000 A 
ATOM     23 CL   UNL     1       3.677   1.458  17.942  0.00  0.00    +0.000 Cl
ENDBRANCH  16  17
ENDBRANCH   2  16
TORSDOF 6
ENDMDL
MODEL 2
REMARK VINA RESULT:      -7.9      1.253      1.526
REMARK  Name = 
REMARK  7 active torsions:
REMARK  status: ('A' for Active; 'I' for Inactive)
REMARK    1  A    between atoms: C_1  and  C_2
REMARK    2  A    between atoms: C_2  and  O_3
REMARK    3  A    between atoms: O_3  and  C_4
REMARK    4  A    between atoms: C_4  and  C_6
REMARK    5  A    between atoms: C_7  and  C_8
REMARK    6  A    between atoms: C_9  and  O_10
REMARK    7  A    between atoms: O_10  and  C_11
REMARK                            x       y       z     vdW  Elec       q    Type
REMARK                         _______ _______ _______ _____ _____    ______ ____
ROOT
ATOM      1  C   UNL     1       5.850   4.517  15.453  0.00  0.00    +0.000 A 
ATOM      2  C   UNL     1       5.268   4.169  16.616  0.00  0.00    +0.000 A 
ATOM      3  N   UNL     1       5.720   4.605  17.852  0.00  0.00    +0.000 NA
ATOM      4  C   UNL     1       6.844   5.223  17.907  0.00  0.00    +0.000 A 
ATOM      5  N   UNL     1       7.594   5.513  16.818  0.00  0.00    +0.000 N 
ATOM      6  C   UNL     1       7.169   5.211  15.561  0.00  0.00    +0.000 A 
ATOM      7  O   UNL     1       7.870   5.475  14.588  0.00  0.00    +0.000 OA
ATOM      8  H   UNL     1       8.491   5.961  16.901  0.00  0.00    +0.000 HD
ENDROOT
BRANCH   1  10
ATOM      9  C   UNL     1       6.103   3.462  13.266  0.00  0.00    +0.000 C 
ATOM     10  C   UNL     1       5.356   4.161  14.136  0.00  0.00    +0.000 C 
BRANCH   9  11
ATOM     11  C   UNL     1       5.495   2.898  12.049  0.00  0.00    +0.000 C 
ATOM     12  O   UNL     1       5.969   1.994  11.380  0.00  0.00    +0.000 OA
BRANCH  11  13
ATOM     13  O   UNL     1       4.415   3.661  11.743  0.00  0.00    +0.000 OA
BRANCH  13  15
ATOM     14  C   UNL     1       3.097   4.156   9.818  0.00  0.00    +0.000 C 
ATOM     15  C   UNL     1       3.498   3.077  10.808  0.00  0.00    +0.000 C 
ENDBRANCH  13  15
ENDBRANCH  11  13
ENDBRANCH   9  11
ENDBRANCH   1  10
BRANCH   2  16
ATOM     16  O   UNL     1       4.138   3.329  16.595  0.00  0.00    +0.000 OA
BRANCH  16  17
ATOM     17  C   UNL     1       3.223   3.477  17.622  0.00  0.00    +0.000 A 
ATOM     18  C   UNL     1       2.502   4.671  17.782  0.00  0.00    +0.000 A 
ATOM     19  C   UNL     1       1.487   4.766  18.732  0.00  0.00    +0.000 A 
ATOM     20  C   UNL     1       1.230   3.692  19.577  0.00  0.00    +0.000 A 
ATOM     21  C   UNL     1       2.008   2.534  19.491  0.00  0.00    +0.000 A 
ATOM     22  C   UNL     1       3.009   2.426  18.518  0.00  0.00    +0.000 A 
ATOM     23 CL   UNL     1       3.944   0.978  18.455  0.00  0.00    +0.000 Cl
ENDBRANCH  16  17
ENDBRANCH   2  16
TORSDOF 6
ENDMDL
MODEL 3
REMARK VINA RESULT:      -7.8      1.194      1.575
REMARK  Name = 
REMARK  7 active torsions:
REMARK  status: ('A' for Active; 'I' for Inactive)
REMARK    1  A    between atoms: C_1  and  C_2
REMARK    2  A    between atoms: C_2  and  O_3
REMARK    3  A    between atoms: O_3  and  C_4
REMARK    4  A    between atoms: C_4  and  C_6
REMARK    5  A    between atoms: C_7  and  C_8
REMARK    6  A    between atoms: C_9  and  O_10
REMARK    7  A    between atoms: O_10  and  C_11
REMARK                            x       y       z     vdW  Elec       q    Type
REMARK                         _______ _______ _______ _____ _____    ______ ____
ROOT
ATOM      1  C   UNL     1       6.069   4.417  16.861  0.00  0.00    +0.000 A 
ATOM      2  C   UNL     1       5.015   4.825  17.592  0.00  0.00    +0.000 A 
ATOM      3  N   UNL     1       5.142   5.506  18.793  0.00  0.00    +0.000 NA
ATOM      4  C   UNL     1       6.308   5.600  19.320  0.00  0.00    +0.000 A 
ATOM      5  N   UNL     1       7.432   5.109  18.748  0.00  0.00    +0.000 N 
ATOM      6  C   UNL     1       7.405   4.518  17.521  0.00  0.00    +0.000 A 
ATOM      7  O   UNL     1       8.435   4.071  17.024  0.00  0.00    +0.000 OA
ATOM      8  H   UNL     1       8.325   5.161  19.209  0.00  0.00    +0.000 HD
ENDROOT
BRANCH   1  10
ATOM      9  C   UNL     1       5.748   4.496  14.442  0.00  0.00    +0.000 C 
ATOM     10  C   UNL     1       5.981   3.785  15.557  0.00  0.00    +0.000 C 
BRANCH   9  11
ATOM     11  C   UNL     1       5.915   3.877  13.116  0.00  0.00    +0.000 C 
ATOM     12  O   UNL     1       6.984   3.666  12.567  0.00  0.00    +0.000 OA
BRANCH  11  13
ATOM     13  O   UNL     1       4.677   3.730  12.578  0.00  0.00    +0.000 OA
BRANCH  13  15
ATOM     14  C   UNL     1       3.390   3.354  10.604  0.00  0.00    +0.000 C 
ATOM     15  C   UNL     1       4.617   2.926  11.392  0.00  0.00    +0.000 C 
ENDBRANCH  13  15
ENDBRANCH  11  13
ENDBRANCH   9  11
ENDBRANCH   1  10
BRANCH   2  16
ATOM     16  O   UNL     1       3.712   4.563  17.126  0.00  0.00    +0.000 OA
BRANCH  16  17
ATOM     17  C   UNL     1       2.830   3.978  18.018  0.00  0.00    +0.000 A 
ATOM     18  C   UNL     1       2.746   2.582  18.141  0.00  0.00    +0.000 A 
ATOM     19  C   UNL     1       1.957   2.003  19.133  0.00  0.00    +0.000 A 
ATOM     20  C   UNL     1       1.192   2.811  19.966  0.00  0.00    +0.000 A 
ATOM     21  C   UNL     1       1.194   4.198  19.788  0.00  0.00    +0.000 A 
ATOM     22  C   UNL     1       2.008   4.783  18.810  0.00  0.00    +0.000 A 
ATOM     23 CL   UNL     1       1.972   6.498  18.628  0.00  0.00    +0.000 Cl
ENDBRANCH  16  17
ENDBRANCH   2  16
TORSDOF 6
ENDMDL
MODEL 4
REMARK VINA RESULT:      -7.7      1.122      1.138
REMARK  Name = 
REMARK  7 active torsions:
REMARK  status: ('A' for Active; 'I' for Inactive)
REMARK    1  A    between atoms: C_1  and  C_2
REMARK    2  A    between atoms: C_2  and  O_3
REMARK    3  A    between atoms: O_3  and  C_4
REMARK    4  A    between atoms: C_4  and  C_6
REMARK    5  A    between atoms: C_7  and  C_8
REMARK    6  A    between atoms: C_9  and  O_10
REMARK    7  A    between atoms: O_10  and  C_11
REMARK                            x       y       z     vdW  Elec       q    Type
REMARK                         _______ _______ _______ _____ _____    ______ ____
ROOT
ATOM      1  C   UNL     1       5.841   4.999  16.301  0.00  0.00    +0.000 A 
ATOM      2  C   UNL     1       5.124   4.334  17.226  0.00  0.00    +0.000 A 
ATOM      3  N   UNL     1       5.218   4.587  18.586  0.00  0.00    +0.000 NA
ATOM      4  C   UNL     1       6.153   5.364  18.998  0.00  0.00    +0.000 A 
ATOM      5  N   UNL     1       7.029   5.986  18.174  0.00  0.00    +0.000 N 
ATOM      6  C   UNL     1       6.937   5.870  16.821  0.00  0.00    +0.000 A 
ATOM      7  O   UNL     1       7.747   6.437  16.092  0.00  0.00    +0.000 OA
ATOM      8  H   UNL     1       7.777   6.554  18.534  0.00  0.00    +0.000 HD
ENDROOT
BRANCH   1  10
ATOM      9  C   UNL     1       6.510   4.009  14.172  0.00  0.00    +0.000 C 
ATOM     10  C   UNL     1       5.706   4.830  14.865  0.00  0.00    +0.000 C 
BRANCH   9  11
ATOM     11  C   UNL     1       6.195   3.663  12.775  0.00  0.00    +0.000 C 
ATOM     12  O   UNL     1       7.016   3.511  11.885  0.00  0.00    +0.000 OA
BRANCH  11  13
ATOM     13  O   UNL     1       4.844   3.694  12.645  0.00  0.00    +0.000 OA
BRANCH  13  15
ATOM     14  C   UNL     1       3.580   3.933  10.636  0.00  0.00    +0.000 C 
ATOM     15  C   UNL     1       4.320   2.956  11.532  0.00  0.00    +0.000 C 
ENDBRANCH  13  15
ENDBRANCH  11  13
ENDBRANCH   9  11
ENDBRANCH   1  10
BRANCH   2  16
ATOM     16  O   UNL     1       4.223   3.335  16.810  0.00  0.00    +0.000 OA
BRANCH  16  17
ATOM     17  C   UNL     1       3.077   3.165  17.568  0.00  0.00    +0.000 A 
ATOM     18  C   UNL     1       2.056   4.130  17.562  0.00  0.00    +0.000 A 
ATOM     19  C   UNL     1       0.850   3.891  18.218  0.00  0.00    +0.000 A 
ATOM     20  C   UNL     1       0.678   2.716  18.942  0.00  0.00    +0.000 A 
ATOM     21  C   UNL     1       1.724   1.793  19.033  0.00  0.00    +0.000 A 
ATOM     22  C   UNL     1       2.927   2.019  18.352  0.00  0.00    +0.000 A 
ATOM     23 CL   UNL     1       4.188   0.851  18.499  0.00  0.00    +0.000 Cl
ENDBRANCH  16  17
ENDBRANCH   2  16
TORSDOF 6
ENDMDL
MODEL 5
REMARK VINA RESULT:      -7.5      0.874      1.503
REMARK  Name = 
REMARK  7 active torsions:
REMARK  status: ('A' for Active; 'I' for Inactive)
REMARK    1  A    between atoms: C_1  and  C_2
REMARK    2  A    between atoms: C_2  and  O_3
REMARK    3  A    between atoms: O_3  and  C_4
REMARK    4  A    between atoms: C_4  and  C_6
REMARK    5  A    between atoms: C_7  and  C_8
REMARK    6  A    between atoms: C_9  and  O_10
REMARK    7  A    between atoms: O_10  and  C_11
REMARK                            x       y       z     vdW  Elec       q    Type
REMARK                         _______ _______ _______ _____ _____    ______ ____
ROOT
ATOM      1  C   UNL     1       5.917   4.422  17.031  0.00  0.00    +0.000 A 
ATOM      2  C   UNL     1       4.945   4.771  17.895  0.00  0.00    +0.000 A 
ATOM      3  N   UNL     1       5.192   5.425  19.092  0.00  0.00    +0.000 NA
ATOM      4  C   UNL     1       6.410   5.549  19.478  0.00  0.00    +0.000 A 
ATOM      5  N   UNL     1       7.472   5.116  18.761  0.00  0.00    +0.000 N 
ATOM      6  C   UNL     1       7.318   4.556  17.530  0.00  0.00    +0.000 A 
ATOM      7  O   UNL     1       8.295   4.162  16.899  0.00  0.00    +0.000 OA
ATOM      8  H   UNL     1       8.412   5.190  19.113  0.00  0.00    +0.000 HD
ENDROOT
BRANCH   1  10
ATOM      9  C   UNL     1       5.516   4.567  14.627  0.00  0.00    +0.000 C 
ATOM     10  C   UNL     1       5.694   3.820  15.729  0.00  0.00    +0.000 C 
BRANCH   9  11
ATOM     11  C   UNL     1       5.547   3.944  13.292  0.00  0.00    +0.000 C 
ATOM     12  O   UNL     1       4.566   3.606  12.651  0.00  0.00    +0.000 OA
BRANCH  11  13
ATOM     13  O   UNL     1       6.847   3.692  12.993  0.00  0.00    +0.000 OA
BRANCH  13  15
ATOM     14  C   UNL     1       8.136   5.645  12.529  0.00  0.00    +0.000 C 
ATOM     15  C   UNL     1       7.389   4.471  11.918  0.00  0.00    +0.000 C 
ENDBRANCH  13  15
ENDBRANCH  11  13
ENDBRANCH   9  11
ENDBRANCH   1  10
BRANCH   2  16
ATOM     16  O   UNL     1       3.605   4.471  17.581  0.00  0.00    +0.000 OA
BRANCH  16  17
ATOM     17  C   UNL     1       2.793   4.050  18.620  0.00  0.00    +0.000 A 
ATOM     18  C   UNL     1       2.089   4.974  19.408  0.00  0.00    +0.000 A 
ATOM     19  C   UNL     1       1.171   4.540  20.361  0.00  0.00    +0.000 A 
ATOM     20  C   UNL     1       0.998   3.178  20.584  0.00  0.00    +0.000 A 
ATOM     21  C   UNL     1       1.766   2.251  19.872  0.00  0.00    +0.000 A 
ATOM     22  C   UNL     1       2.669   2.686  18.893  0.00  0.00    +0.000 A 
ATOM     23 CL   UNL     1       3.595   1.503  18.045  0.00  0.00    +0.000 Cl
ENDBRANCH  16  17
ENDBRANCH   2  16
TORSDOF 6
ENDMDL
MODEL 6
REMARK VINA RESULT:      -7.5      3.094      5.421
REMARK  Name = 
REMARK  7 active torsions:
REMARK  status: ('A' for Active; 'I' for Inactive)
REMARK    1  A    between atoms: C_1  and  C_2
REMARK    2  A    between atoms: C_2  and  O_3
REMARK    3  A    between atoms: O_3  and  C_4
REMARK    4  A    between atoms: C_4  and  C_6
REMARK    5  A    between atoms: C_7  and  C_8
REMARK    6  A    between atoms: C_9  and  O_10
REMARK    7  A    between atoms: O_10  and  C_11
REMARK                            x       y       z     vdW  Elec       q    Type
REMARK                         _______ _______ _______ _____ _____    ______ ____
ROOT
ATOM      1  C   UNL     1       4.753   6.003  17.546  0.00  0.00    +0.000 A 
ATOM      2  C   UNL     1       5.161   5.129  18.485  0.00  0.00    +0.000 A 
ATOM      3  N   UNL     1       6.413   4.534  18.476  0.00  0.00    +0.000 NA
ATOM      4  C   UNL     1       7.152   4.685  17.438  0.00  0.00    +0.000 A 
ATOM      5  N   UNL     1       6.796   5.430  16.366  0.00  0.00    +0.000 N 
ATOM      6  C   UNL     1       5.628   6.128  16.342  0.00  0.00    +0.000 A 
ATOM      7  O   UNL     1       5.321   6.792  15.355  0.00  0.00    +0.000 OA
ATOM      8  H   UNL     1       7.381   5.492  15.549  0.00  0.00    +0.000 HD
ENDROOT
BRANCH   1  10
ATOM      9  C   UNL     1       3.286   7.768  18.378  0.00  0.00    +0.000 C 
ATOM     10  C   UNL     1       3.490   6.718  17.567  0.00  0.00    +0.000 C 
BRANCH   9  11
ATOM     11  C   UNL     1       2.102   8.626  18.203  0.00  0.00    +0.000 C 
ATOM     12  O   UNL     1       1.843   9.273  17.202  0.00  0.00    +0.000 OA
BRANCH  11  13
ATOM     13  O   UNL     1       1.453   8.670  19.395  0.00  0.00    +0.000 OA
BRANCH  13  15
ATOM     14  C   UNL     1      -0.488   9.997  19.798  0.00  0.00    +0.000 C 
ATOM     15  C   UNL     1       1.031   9.976  19.813  0.00  0.00    +0.000 C 
ENDBRANCH  13  15
ENDBRANCH  11  13
ENDBRANCH   9  11
ENDBRANCH   1  10
BRANCH   2  16
ATOM     16  O   UNL     1       4.289   4.797  19.540  0.00  0.00    +0.000 OA
BRANCH  16  17
ATOM     17  C   UNL     1       3.215   3.978  19.236  0.00  0.00    +0.000 A 
ATOM     18  C   UNL     1       3.359   2.895  18.355  0.00  0.00    +0.000 A 
ATOM     19  C   UNL     1       2.312   1.996  18.158  0.00  0.00    +0.000 A 
ATOM     20  C   UNL     1       1.090   2.211  18.787  0.00  0.00    +0.000 A 
ATOM     21  C   UNL     1       0.907   3.341  19.589  0.00  0.00    +0.000 A 
ATOM     22  C   UNL     1       1.967   4.229  19.810  0.00  0.00    +0.000 A 
ATOM     23 CL   UNL     1       1.689   5.611  20.806  0.00  0.00    +0.000 Cl
ENDBRANCH  16  17
ENDBRANCH   2  16
TORSDOF 6
ENDMDL
MODEL 7
REMARK VINA RESULT:      -7.5      3.610      5.567
REMARK  Name = 
REMARK  7 active torsions:
REMARK  status: ('A' for Active; 'I' for Inactive)
REMARK    1  A    between atoms: C_1  and  C_2
REMARK    2  A    between atoms: C_2  and  O_3
REMARK    3  A    between atoms: O_3  and  C_4
REMARK    4  A    between atoms: C_4  and  C_6
REMARK    5  A    between atoms: C_7  and  C_8
REMARK    6  A    between atoms: C_9  and  O_10
REMARK    7  A    between atoms: O_10  and  C_11
REMARK                            x       y       z     vdW  Elec       q    Type
REMARK                         _______ _______ _______ _____ _____    ______ ____
ROOT
ATOM      1  C   UNL     1       2.589   5.183  18.488  0.00  0.00    +0.000 A 
ATOM      2  C   UNL     1       2.256   5.745  19.666  0.00  0.00    +0.000 A 
ATOM      3  N   UNL     1       1.522   5.087  20.640  0.00  0.00    +0.000 NA
ATOM      4  C   UNL     1       0.987   3.959  20.342  0.00  0.00    +0.000 A 
ATOM      5  N   UNL     1       1.134   3.353  19.142  0.00  0.00    +0.000 N 
ATOM      6  C   UNL     1       1.923   3.885  18.169  0.00  0.00    +0.000 A 
ATOM      7  O   UNL     1       2.035   3.322  17.083  0.00  0.00    +0.000 OA
ATOM      8  H   UNL     1       0.664   2.489  18.926  0.00  0.00    +0.000 HD
ENDROOT
BRANCH   1  10
ATOM      9  C   UNL     1       4.688   5.381  17.256  0.00  0.00    +0.000 C 
ATOM     10  C   UNL     1       3.432   5.801  17.481  0.00  0.00    +0.000 C 
BRANCH   9  11
ATOM     11  C   UNL     1       5.428   5.847  16.071  0.00  0.00    +0.000 C 
ATOM     12  O   UNL     1       5.490   5.259  15.004  0.00  0.00    +0.000 OA
BRANCH  11  13
ATOM     13  O   UNL     1       6.128   6.951  16.438  0.00  0.00    +0.000 OA
BRANCH  13  15
ATOM     14  C   UNL     1       7.843   8.053  17.678  0.00  0.00    +0.000 C 
ATOM     15  C   UNL     1       7.238   6.708  17.312  0.00  0.00    +0.000 C 
ENDBRANCH  13  15
ENDBRANCH  11  13
ENDBRANCH   9  11
ENDBRANCH   1  10
BRANCH   2  16
ATOM     16  O   UNL     1       2.672   7.062  19.941  0.00  0.00    +0.000 OA
BRANCH  16  17
ATOM     17  C   UNL     1       1.681   8.001  20.170  0.00  0.00    +0.000 A 
ATOM     18  C   UNL     1       0.988   8.037  21.391  0.00  0.00    +0.000 A 
ATOM     19  C   UNL     1       0.090   9.066  21.666  0.00  0.00    +0.000 A 
ATOM     20  C   UNL     1      -0.176  10.029  20.699  0.00  0.00    +0.000 A 
ATOM     21  C   UNL     1       0.437   9.946  19.445  0.00  0.00    +0.000 A 
ATOM     22  C   UNL     1       1.361   8.929  19.176  0.00  0.00    +0.000 A 
ATOM     23 CL   UNL     1       2.087   8.868  17.612  0.00  0.00    +0.000 Cl
ENDBRANCH  16  17
ENDBRANCH   2  16
TORSDOF 6
ENDMDL
MODEL 8
REMARK VINA RESULT:      -7.5      3.333      4.933
REMARK  Name = 
REMARK  7 active torsions:
REMARK  status: ('A' for Active; 'I' for Inactive)
REMARK    1  A    between atoms: C_1  and  C_2
REMARK    2  A    between atoms: C_2  and  O_3
REMARK    3  A    between atoms: O_3  and  C_4
REMARK    4  A    between atoms: C_4  and  C_6
REMARK    5  A    between atoms: C_7  and  C_8
REMARK    6  A    between atoms: C_9  and  O_10
REMARK    7  A    between atoms: O_10  and  C_11
REMARK                            x       y       z     vdW  Elec       q    Type
REMARK                         _______ _______ _______ _____ _____    ______ ____
ROOT
ATOM      1  C   UNL     1       2.578   7.382  18.568  0.00  0.00    +0.000 A 
ATOM      2  C   UNL     1       2.449   6.832  19.790  0.00  0.00    +0.000 A 
ATOM      3  N   UNL     1       1.613   7.345  20.769  0.00  0.00    +0.000 NA
ATOM      4  C   UNL     1       1.070   8.490  20.569  0.00  0.00    +0.000 A 
ATOM      5  N   UNL     1       1.233   9.209  19.434  0.00  0.00    +0.000 N 
ATOM      6  C   UNL     1       1.954   8.727  18.385  0.00  0.00    +0.000 A 
ATOM      7  O   UNL     1       2.096   9.399  17.367  0.00  0.00    +0.000 OA
ATOM      8  H   UNL     1       0.827  10.123  19.326  0.00  0.00    +0.000 HD
ENDROOT
BRANCH   1  10
ATOM      9  C   UNL     1       4.648   7.184  17.289  0.00  0.00    +0.000 C 
ATOM     10  C   UNL     1       3.368   6.826  17.485  0.00  0.00    +0.000 C 
BRANCH   9  11
ATOM     11  C   UNL     1       5.497   6.427  16.353  0.00  0.00    +0.000 C 
ATOM     12  O   UNL     1       5.264   6.262  15.167  0.00  0.00    +0.000 OA
BRANCH  11  13
ATOM     13  O   UNL     1       6.482   5.842  17.082  0.00  0.00    +0.000 OA
BRANCH  13  15
ATOM     14  C   UNL     1       7.890   6.017  18.999  0.00  0.00    +0.000 C 
ATOM     15  C   UNL     1       7.342   6.748  17.786  0.00  0.00    +0.000 C 
ENDBRANCH  13  15
ENDBRANCH  11  13
ENDBRANCH   9  11
ENDBRANCH   1  10
BRANCH   2  16
ATOM     16  O   UNL     1       3.187   5.674  20.104  0.00  0.00    +0.000 OA
BRANCH  16  17
ATOM     17  C   UNL     1       2.606   4.455  19.799  0.00  0.00    +0.000 A 
ATOM     18  C   UNL     1       1.258   4.202  20.096  0.00  0.00    +0.000 A 
ATOM     19  C   UNL     1       0.644   3.027  19.666  0.00  0.00    +0.000 A 
ATOM     20  C   UNL     1       1.390   2.064  18.994  0.00  0.00    +0.000 A 
ATOM     21  C   UNL     1       2.757   2.265  18.779  0.00  0.00    +0.000 A 
ATOM     22  C   UNL     1       3.368   3.457  19.186  0.00  0.00    +0.000 A 
ATOM     23 CL   UNL     1       5.058   3.655  18.901  0.00  0.00    +0.000 Cl
ENDBRANCH  16  17
ENDBRANCH   2  16
TORSDOF 6
ENDMDL
MODEL 9
REMARK VINA RESULT:      -7.5      2.772      4.316
REMARK  Name = 
REMARK  7 active torsions:
REMARK  status: ('A' for Active; 'I' for Inactive)
REMARK    1  A    between atoms: C_1  and  C_2
REMARK    2  A    between atoms: C_2  and  O_3
REMARK    3  A    between atoms: O_3  and  C_4
REMARK    4  A    between atoms: C_4  and  C_6
REMARK    5  A    between atoms: C_7  and  C_8
REMARK    6  A    between atoms: C_9  and  O_10
REMARK    7  A    between atoms: O_10  and  C_11
REMARK                            x       y       z     vdW  Elec       q    Type
REMARK                         _______ _______ _______ _____ _____    ______ ____
ROOT
ATOM      1  C   UNL     1       2.616   7.321  18.605  0.00  0.00    +0.000 A 
ATOM      2  C   UNL     1       2.426   6.829  19.844  0.00  0.00    +0.000 A 
ATOM      3  N   UNL     1       1.550   7.393  20.758  0.00  0.00    +0.000 NA
ATOM      4  C   UNL     1       1.027   8.531  20.479  0.00  0.00    +0.000 A 
ATOM      5  N   UNL     1       1.248   9.195  19.321  0.00  0.00    +0.000 N 
ATOM      6  C   UNL     1       2.014   8.660  18.331  0.00  0.00    +0.000 A 
ATOM      7  O   UNL     1       2.209   9.283  17.290  0.00  0.00    +0.000 OA
ATOM      8  H   UNL     1       0.856  10.106  19.153  0.00  0.00    +0.000 HD
ENDROOT
BRANCH   1  10
ATOM      9  C   UNL     1       4.746   7.039  17.445  0.00  0.00    +0.000 C 
ATOM     10  C   UNL     1       3.452   6.710  17.588  0.00  0.00    +0.000 C 
BRANCH   9  11
ATOM     11  C   UNL     1       5.629   6.232  16.585  0.00  0.00    +0.000 C 
ATOM     12  O   UNL     1       6.781   6.513  16.300  0.00  0.00    +0.000 OA
BRANCH  11  13
ATOM     13  O   UNL     1       4.880   5.224  16.068  0.00  0.00    +0.000 OA
BRANCH  13  15
ATOM     14  C   UNL     1       5.740   4.136  14.127  0.00  0.00    +0.000 C 
ATOM     15  C   UNL     1       5.619   4.072  15.640  0.00  0.00    +0.000 C 
ENDBRANCH  13  15
ENDBRANCH  11  13
ENDBRANCH   9  11
ENDBRANCH   1  10
BRANCH   2  16
ATOM     16  O   UNL     1       3.139   5.683  20.246  0.00  0.00    +0.000 OA
BRANCH  16  17
ATOM     17  C   UNL     1       2.602   4.455  19.900  0.00  0.00    +0.000 A 
ATOM     18  C   UNL     1       1.243   4.174  20.112  0.00  0.00    +0.000 A 
ATOM     19  C   UNL     1       0.681   2.990  19.639  0.00  0.00    +0.000 A 
ATOM     20  C   UNL     1       1.486   2.046  19.010  0.00  0.00    +0.000 A 
ATOM     21  C   UNL     1       2.859   2.274  18.881  0.00  0.00    +0.000 A 
ATOM     22  C   UNL     1       3.420   3.476  19.331  0.00  0.00    +0.000 A 
ATOM     23 CL   UNL     1       5.120   3.708  19.151  0.00  0.00    +0.000 Cl
ENDBRANCH  16  17
ENDBRANCH   2  16
TORSDOF 6
ENDMDL
