MODEL 1
REMARK VINA RESULT:      -8.5      0.000      0.000
REMARK  Name = 
REMARK  5 active torsions:
REMARK  status: ('A' for Active; 'I' for Inactive)
REMARK    1  A    between atoms: C_1  and  C_2
REMARK    2  A    between atoms: C_4  and  C_5
REMARK    3  A    between atoms: C_6  and  C_7
REMARK    4  A    between atoms: C_10  and  N_11
REMARK    5  A    between atoms: N_11  and  C_12
REMARK                            x       y       z     vdW  Elec       q    Type
REMARK                         _______ _______ _______ _____ _____    ______ ____
ROOT
ATOM      1  C   UNL     1       5.203   5.620  16.240  0.00  0.00    +0.000 C 
ATOM      2  C   UNL     1       4.382   5.096  17.377  0.00  0.00    +0.000 A 
ATOM      3  C   UNL     1       4.054   3.758  17.483  0.00  0.00    +0.000 A 
ATOM      4  C   UNL     1       3.238   3.341  18.543  0.00  0.00    +0.000 A 
ATOM      5  C   UNL     1       2.938   1.869  18.660  0.00  0.00    +0.000 C 
ATOM      6  C   UNL     1       2.759   4.305  19.461  0.00  0.00    +0.000 A 
ATOM      7  C   UNL     1       3.132   5.652  19.290  0.00  0.00    +0.000 A 
ATOM      8  N   UNL     1       3.953   6.008  18.268  0.00  0.00    +0.000 NA
ENDROOT
BRANCH   6   9
ATOM      9  C   UNL     1       1.875   3.885  20.577  0.00  0.00    +0.000 C 
ATOM     10  N   UNL     1       0.543   3.696  20.290  0.00  0.00    +0.000 N 
ATOM     11  O   UNL     1       2.272   3.759  21.729  0.00  0.00    +0.000 OA
ATOM     12  H   UNL     1       0.117   4.179  19.510  0.00  0.00    +0.000 HD
ATOM     13  H   UNL     1      -0.041   3.560  21.111  0.00  0.00    +0.000 HD
ENDBRANCH   6   9
BRANCH   7  14
ATOM     14  N   UNL     1       2.618   6.696  20.106  0.00  0.00    +0.000 N 
ATOM     15  H   UNL     1       3.152   6.835  20.952  0.00  0.00    +0.000 HD
BRANCH  14  16
ATOM     16  C   UNL     1       1.941   7.861  19.635  0.00  0.00    +0.000 A 
ATOM     17  C   UNL     1       2.100   8.240  18.289  0.00  0.00    +0.000 A 
ATOM     18  C   UNL     1       1.628   9.456  17.808  0.00  0.00    +0.000 A 
ATOM     19  C   UNL     1       0.965  10.320  18.667  0.00  0.00    +0.000 A 
ATOM     20  C   UNL     1       0.736   9.967  20.003  0.00  0.00    +0.000 A 
ATOM     21  C   UNL     1       0.050  10.865  20.835  0.00  0.00    +0.000 A 
ATOM     22  C   UNL     1      -0.211  10.554  22.165  0.00  0.00    +0.000 A 
ATOM     23  C   UNL     1       0.211   9.335  22.680  0.00  0.00    +0.000 A 
ATOM     24  C   UNL     1       0.912   8.435  21.868  0.00  0.00    +0.000 A 
ATOM     25  C   UNL     1       1.205   8.721  20.510  0.00  0.00    +0.000 A 
ENDBRANCH  14  16
ENDBRANCH   7  14
TORSDOF 3
ENDMDL
MODEL 2
REMARK VINA RESULT:      -8.3      1.250      1.261
REMARK  Name = 
REMARK  5 active torsions:
REMARK  status: ('A' for Active; 'I' for Inactive)
REMARK    1  A    between atoms: C_1  and  C_2
REMARK    2  A    between atoms: C_4  and  C_5
REMARK    3  A    between atoms: C_6  and  C_7
REMARK    4  A    between atoms: C_10  and  N_11
REMARK    5  A    between atoms: N_11  and  C_12
REMARK                            x       y       z     vdW  Elec       q    Type
REMARK                         _______ _______ _______ _____ _____    ______ ____
ROOT
ATOM      1  C   UNL     1       6.950   5.319  18.532  0.00  0.00    +0.000 C 
ATOM      2  C   UNL     1       5.586   4.788  18.847  0.00  0.00    +0.000 A 
ATOM      3  C   UNL     1       5.180   3.533  18.437  0.00  0.00    +0.000 A 
ATOM      4  C   UNL     1       3.872   3.117  18.718  0.00  0.00    +0.000 A 
ATOM      5  C   UNL     1       3.474   1.725  18.303  0.00  0.00    +0.000 C 
ATOM      6  C   UNL     1       3.000   4.002  19.395  0.00  0.00    +0.000 A 
ATOM      7  C   UNL     1       3.481   5.269  19.780  0.00  0.00    +0.000 A 
ATOM      8  N   UNL     1       4.767   5.619  19.519  0.00  0.00    +0.000 NA
ENDROOT
BRANCH   6   9
ATOM      9  C   UNL     1       1.604   3.587  19.681  0.00  0.00    +0.000 C 
ATOM     10  N   UNL     1       1.337   3.095  20.938  0.00  0.00    +0.000 N 
ATOM     11  O   UNL     1       0.716   3.614  18.838  0.00  0.00    +0.000 OA
ATOM     12  H   UNL     1       2.074   2.672  21.485  0.00  0.00    +0.000 HD
ATOM     13  H   UNL     1       0.411   2.686  21.032  0.00  0.00    +0.000 HD
ENDBRANCH   6   9
BRANCH   7  14
ATOM     14  N   UNL     1       2.647   6.254  20.376  0.00  0.00    +0.000 N 
ATOM     15  H   UNL     1       2.845   6.399  21.355  0.00  0.00    +0.000 HD
BRANCH  14  16
ATOM     16  C   UNL     1       2.096   7.388  19.708  0.00  0.00    +0.000 A 
ATOM     17  C   UNL     1       2.371   7.569  18.339  0.00  0.00    +0.000 A 
ATOM     18  C   UNL     1       2.028   8.739  17.671  0.00  0.00    +0.000 A 
ATOM     19  C   UNL     1       1.381   9.755  18.358  0.00  0.00    +0.000 A 
ATOM     20  C   UNL     1       1.040   9.603  19.708  0.00  0.00    +0.000 A 
ATOM     21  C   UNL     1       0.374  10.651  20.362  0.00  0.00    +0.000 A 
ATOM     22  C   UNL     1       0.004  10.542  21.697  0.00  0.00    +0.000 A 
ATOM     23  C   UNL     1       0.294   9.378  22.397  0.00  0.00    +0.000 A 
ATOM     24  C   UNL     1       0.972   8.330  21.763  0.00  0.00    +0.000 A 
ATOM     25  C   UNL     1       1.375   8.407  20.406  0.00  0.00    +0.000 A 
ENDBRANCH  14  16
ENDBRANCH   7  14
TORSDOF 3
ENDMDL
MODEL 3
REMARK VINA RESULT:      -8.3      3.895      6.312
REMARK  Name = 
REMARK  5 active torsions:
REMARK  status: ('A' for Active; 'I' for Inactive)
REMARK    1  A    between atoms: C_1  and  C_2
REMARK    2  A    between atoms: C_4  and  C_5
REMARK    3  A    between atoms: C_6  and  C_7
REMARK    4  A    between atoms: C_10  and  N_11
REMARK    5  A    between atoms: N_11  and  C_12
REMARK                            x       y       z     vdW  Elec       q    Type
REMARK                         _______ _______ _______ _____ _____    ______ ____
ROOT
ATOM      1  C   UNL     1       4.639   3.109  11.623  0.00  0.00    +0.000 C 
ATOM      2  C   UNL     1       5.413   3.713  12.754  0.00  0.00    +0.000 A 
ATOM      3  C   UNL     1       6.612   4.366  12.549  0.00  0.00    +0.000 A 
ATOM      4  C   UNL     1       7.314   4.861  13.656  0.00  0.00    +0.000 A 
ATOM      5  C   UNL     1       8.594   5.612  13.397  0.00  0.00    +0.000 C 
ATOM      6  C   UNL     1       6.782   4.660  14.952  0.00  0.00    +0.000 A 
ATOM      7  C   UNL     1       5.555   3.983  15.086  0.00  0.00    +0.000 A 
ATOM      8  N   UNL     1       4.891   3.549  13.984  0.00  0.00    +0.000 NA
ENDROOT
BRANCH   6   9
ATOM      9  C   UNL     1       7.522   5.158  16.138  0.00  0.00    +0.000 C 
ATOM     10  N   UNL     1       7.580   6.521  16.320  0.00  0.00    +0.000 N 
ATOM     11  O   UNL     1       8.116   4.417  16.911  0.00  0.00    +0.000 OA
ATOM     12  H   UNL     1       7.488   7.143  15.528  0.00  0.00    +0.000 HD
ATOM     13  H   UNL     1       8.221   6.812  17.053  0.00  0.00    +0.000 HD
ENDBRANCH   6   9
BRANCH   7  14
ATOM     14  N   UNL     1       4.998   3.653  16.352  0.00  0.00    +0.000 N 
ATOM     15  H   UNL     1       5.626   3.113  16.930  0.00  0.00    +0.000 HD
BRANCH  14  16
ATOM     16  C   UNL     1       4.058   4.445  17.077  0.00  0.00    +0.000 A 
ATOM     17  C   UNL     1       4.242   5.840  17.126  0.00  0.00    +0.000 A 
ATOM     18  C   UNL     1       3.482   6.651  17.961  0.00  0.00    +0.000 A 
ATOM     19  C   UNL     1       2.501   6.082  18.760  0.00  0.00    +0.000 A 
ATOM     20  C   UNL     1       2.245   4.706  18.709  0.00  0.00    +0.000 A 
ATOM     21  C   UNL     1       1.234   4.173  19.524  0.00  0.00    +0.000 A 
ATOM     22  C   UNL     1       0.936   2.815  19.501  0.00  0.00    +0.000 A 
ATOM     23  C   UNL     1       1.645   1.972  18.656  0.00  0.00    +0.000 A 
ATOM     24  C   UNL     1       2.668   2.484  17.849  0.00  0.00    +0.000 A 
ATOM     25  C   UNL     1       3.008   3.861  17.853  0.00  0.00    +0.000 A 
ENDBRANCH  14  16
ENDBRANCH   7  14
TORSDOF 3
ENDMDL
MODEL 4
REMARK VINA RESULT:      -8.2      2.245      6.515
REMARK  Name = 
REMARK  5 active torsions:
REMARK  status: ('A' for Active; 'I' for Inactive)
REMARK    1  A    between atoms: C_1  and  C_2
REMARK    2  A    between atoms: C_4  and  C_5
REMARK    3  A    between atoms: C_6  and  C_7
REMARK    4  A    between atoms: C_10  and  N_11
REMARK    5  A    between atoms: N_11  and  C_12
REMARK                            x       y       z     vdW  Elec       q    Type
REMARK                         _______ _______ _______ _____ _____    ______ ____
ROOT
ATOM      1  C   UNL     1       1.560   7.635  20.676  0.00  0.00    +0.000 C 
ATOM      2  C   UNL     1       1.852   6.224  20.270  0.00  0.00    +0.000 A 
ATOM      3  C   UNL     1       1.610   5.157  21.113  0.00  0.00    +0.000 A 
ATOM      4  C   UNL     1       1.956   3.867  20.693  0.00  0.00    +0.000 A 
ATOM      5  C   UNL     1       1.635   2.719  21.614  0.00  0.00    +0.000 C 
ATOM      6  C   UNL     1       2.562   3.697  19.425  0.00  0.00    +0.000 A 
ATOM      7  C   UNL     1       2.782   4.830  18.619  0.00  0.00    +0.000 A 
ATOM      8  N   UNL     1       2.399   6.059  19.051  0.00  0.00    +0.000 NA
ENDROOT
BRANCH   6   9
ATOM      9  C   UNL     1       2.956   2.339  18.972  0.00  0.00    +0.000 C 
ATOM     10  N   UNL     1       2.036   1.627  18.238  0.00  0.00    +0.000 N 
ATOM     11  O   UNL     1       4.025   1.823  19.271  0.00  0.00    +0.000 OA
ATOM     12  H   UNL     1       1.049   1.821  18.334  0.00  0.00    +0.000 HD
ATOM     13  H   UNL     1       2.294   0.655  18.085  0.00  0.00    +0.000 HD
ENDBRANCH   6   9
BRANCH   7  14
ATOM     14  N   UNL     1       3.470   4.762  17.377  0.00  0.00    +0.000 N 
ATOM     15  H   UNL     1       2.885   4.995  16.588  0.00  0.00    +0.000 HD
BRANCH  14  16
ATOM     16  C   UNL     1       4.859   5.027  17.183  0.00  0.00    +0.000 A 
ATOM     17  C   UNL     1       5.579   5.662  18.213  0.00  0.00    +0.000 A 
ATOM     18  C   UNL     1       6.879   6.117  18.026  0.00  0.00    +0.000 A 
ATOM     19  C   UNL     1       7.500   5.932  16.800  0.00  0.00    +0.000 A 
ATOM     20  C   UNL     1       6.844   5.260  15.760  0.00  0.00    +0.000 A 
ATOM     21  C   UNL     1       7.513   5.082  14.539  0.00  0.00    +0.000 A 
ATOM     22  C   UNL     1       6.909   4.413  13.481  0.00  0.00    +0.000 A 
ATOM     23  C   UNL     1       5.624   3.908  13.634  0.00  0.00    +0.000 A 
ATOM     24  C   UNL     1       4.936   4.092  14.839  0.00  0.00    +0.000 A 
ATOM     25  C   UNL     1       5.516   4.778  15.937  0.00  0.00    +0.000 A 
ENDBRANCH  14  16
ENDBRANCH   7  14
TORSDOF 3
ENDMDL
MODEL 5
REMARK VINA RESULT:      -8.2      1.696      2.830
REMARK  Name = 
REMARK  5 active torsions:
REMARK  status: ('A' for Active; 'I' for Inactive)
REMARK    1  A    between atoms: C_1  and  C_2
REMARK    2  A    between atoms: C_4  and  C_5
REMARK    3  A    between atoms: C_6  and  C_7
REMARK    4  A    between atoms: C_10  and  N_11
REMARK    5  A    between atoms: N_11  and  C_12
REMARK                            x       y       z     vdW  Elec       q    Type
REMARK                         _______ _______ _______ _____ _____    ______ ____
ROOT
ATOM      1  C   UNL     1       0.689   2.532  18.709  0.00  0.00    +0.000 C 
ATOM      2  C   UNL     1       1.831   3.457  18.419  0.00  0.00    +0.000 A 
ATOM      3  C   UNL     1       2.879   3.085  17.600  0.00  0.00    +0.000 A 
ATOM      4  C   UNL     1       3.943   3.976  17.411  0.00  0.00    +0.000 A 
ATOM      5  C   UNL     1       5.047   3.564  16.474  0.00  0.00    +0.000 C 
ATOM      6  C   UNL     1       3.920   5.223  18.081  0.00  0.00    +0.000 A 
ATOM      7  C   UNL     1       2.820   5.535  18.903  0.00  0.00    +0.000 A 
ATOM      8  N   UNL     1       1.794   4.655  19.031  0.00  0.00    +0.000 NA
ENDROOT
BRANCH   6   9
ATOM      9  C   UNL     1       5.050   6.172  17.912  0.00  0.00    +0.000 C 
ATOM     10  N   UNL     1       6.167   5.969  18.689  0.00  0.00    +0.000 N 
ATOM     11  O   UNL     1       4.999   7.139  17.162  0.00  0.00    +0.000 OA
ATOM     12  H   UNL     1       6.089   5.484  19.573  0.00  0.00    +0.000 HD
ATOM     13  H   UNL     1       6.842   6.727  18.646  0.00  0.00    +0.000 HD
ENDBRANCH   6   9
BRANCH   7  14
ATOM     14  N   UNL     1       2.763   6.719  19.687  0.00  0.00    +0.000 N 
ATOM     15  H   UNL     1       3.607   6.883  20.217  0.00  0.00    +0.000 HD
BRANCH  14  16
ATOM     16  C   UNL     1       2.034   7.900  19.354  0.00  0.00    +0.000 A 
ATOM     17  C   UNL     1       2.114   8.399  18.040  0.00  0.00    +0.000 A 
ATOM     18  C   UNL     1       1.588   9.638  17.693  0.00  0.00    +0.000 A 
ATOM     19  C   UNL     1       0.948  10.404  18.656  0.00  0.00    +0.000 A 
ATOM     20  C   UNL     1       0.798   9.929  19.965  0.00  0.00    +0.000 A 
ATOM     21  C   UNL     1       0.132  10.731  20.906  0.00  0.00    +0.000 A 
ATOM     22  C   UNL     1      -0.052  10.299  22.214  0.00  0.00    +0.000 A 
ATOM     23  C   UNL     1       0.426   9.052  22.598  0.00  0.00    +0.000 A 
ATOM     24  C   UNL     1       1.106   8.248  21.676  0.00  0.00    +0.000 A 
ATOM     25  C   UNL     1       1.323   8.658  20.336  0.00  0.00    +0.000 A 
ENDBRANCH  14  16
ENDBRANCH   7  14
TORSDOF 3
ENDMDL
MODEL 6
REMARK VINA RESULT:      -8.1      4.506      5.685
REMARK  Name = 
REMARK  5 active torsions:
REMARK  status: ('A' for Active; 'I' for Inactive)
REMARK    1  A    between atoms: C_1  and  C_2
REMARK    2  A    between atoms: C_4  and  C_5
REMARK    3  A    between atoms: C_6  and  C_7
REMARK    4  A    between atoms: C_10  and  N_11
REMARK    5  A    between atoms: N_11  and  C_12
REMARK                            x       y       z     vdW  Elec       q    Type
REMARK                         _______ _______ _______ _____ _____    ______ ____
ROOT
ATOM      1  C   UNL     1       6.921   4.330  13.472  0.00  0.00    +0.000 C 
ATOM      2  C   UNL     1       6.659   4.685  14.903  0.00  0.00    +0.000 A 
ATOM      3  C   UNL     1       7.249   5.781  15.501  0.00  0.00    +0.000 A 
ATOM      4  C   UNL     1       7.006   6.028  16.858  0.00  0.00    +0.000 A 
ATOM      5  C   UNL     1       7.623   7.258  17.470  0.00  0.00    +0.000 C 
ATOM      6  C   UNL     1       6.177   5.136  17.580  0.00  0.00    +0.000 A 
ATOM      7  C   UNL     1       5.611   4.037  16.906  0.00  0.00    +0.000 A 
ATOM      8  N   UNL     1       5.846   3.854  15.581  0.00  0.00    +0.000 NA
ENDROOT
BRANCH   6   9
ATOM      9  C   UNL     1       5.926   5.369  19.024  0.00  0.00    +0.000 C 
ATOM     10  N   UNL     1       4.748   5.993  19.368  0.00  0.00    +0.000 N 
ATOM     11  O   UNL     1       6.737   5.083  19.895  0.00  0.00    +0.000 OA
ATOM     12  H   UNL     1       4.283   6.600  18.706  0.00  0.00    +0.000 HD
ATOM     13  H   UNL     1       4.695   6.264  20.346  0.00  0.00    +0.000 HD
ENDBRANCH   6   9
BRANCH   7  14
ATOM     14  N   UNL     1       4.849   3.041  17.575  0.00  0.00    +0.000 N 
ATOM     15  H   UNL     1       5.402   2.476  18.204  0.00  0.00    +0.000 HD
BRANCH  14  16
ATOM     16  C   UNL     1       3.472   3.151  17.934  0.00  0.00    +0.000 A 
ATOM     17  C   UNL     1       2.560   3.642  16.980  0.00  0.00    +0.000 A 
ATOM     18  C   UNL     1       1.246   3.952  17.313  0.00  0.00    +0.000 A 
ATOM     19  C   UNL     1       0.807   3.761  18.615  0.00  0.00    +0.000 A 
ATOM     20  C   UNL     1       1.661   3.228  19.588  0.00  0.00    +0.000 A 
ATOM     21  C   UNL     1       1.173   3.038  20.890  0.00  0.00    +0.000 A 
ATOM     22  C   UNL     1       1.979   2.502  21.887  0.00  0.00    +0.000 A 
ATOM     23  C   UNL     1       3.288   2.143  21.592  0.00  0.00    +0.000 A 
ATOM     24  C   UNL     1       3.796   2.341  20.303  0.00  0.00    +0.000 A 
ATOM     25  C   UNL     1       3.008   2.895  19.262  0.00  0.00    +0.000 A 
ENDBRANCH  14  16
ENDBRANCH   7  14
TORSDOF 3
ENDMDL
MODEL 7
REMARK VINA RESULT:      -8.1      2.567      6.281
REMARK  Name = 
REMARK  5 active torsions:
REMARK  status: ('A' for Active; 'I' for Inactive)
REMARK    1  A    between atoms: C_1  and  C_2
REMARK    2  A    between atoms: C_4  and  C_5
REMARK    3  A    between atoms: C_6  and  C_7
REMARK    4  A    between atoms: C_10  and  N_11
REMARK    5  A    between atoms: N_11  and  C_12
REMARK                            x       y       z     vdW  Elec       q    Type
REMARK                         _______ _______ _______ _____ _____    ______ ____
ROOT
ATOM      1  C   UNL     1       1.965   7.298  20.080  0.00  0.00    +0.000 C 
ATOM      2  C   UNL     1       2.483   5.899  19.953  0.00  0.00    +0.000 A 
ATOM      3  C   UNL     1       1.676   4.801  20.179  0.00  0.00    +0.000 A 
ATOM      4  C   UNL     1       2.235   3.519  20.097  0.00  0.00    +0.000 A 
ATOM      5  C   UNL     1       1.320   2.340  20.300  0.00  0.00    +0.000 C 
ATOM      6  C   UNL     1       3.613   3.389  19.803  0.00  0.00    +0.000 A 
ATOM      7  C   UNL     1       4.376   4.552  19.586  0.00  0.00    +0.000 A 
ATOM      8  N   UNL     1       3.786   5.774  19.642  0.00  0.00    +0.000 NA
ENDROOT
BRANCH   6   9
ATOM      9  C   UNL     1       4.228   2.039  19.733  0.00  0.00    +0.000 C 
ATOM     10  N   UNL     1       3.921   1.261  18.641  0.00  0.00    +0.000 N 
ATOM     11  O   UNL     1       4.936   1.585  20.623  0.00  0.00    +0.000 OA
ATOM     12  H   UNL     1       3.057   1.410  18.138  0.00  0.00    +0.000 HD
ATOM     13  H   UNL     1       4.241   0.299  18.716  0.00  0.00    +0.000 HD
ENDBRANCH   6   9
BRANCH   7  14
ATOM     14  N   UNL     1       5.782   4.517  19.383  0.00  0.00    +0.000 N 
ATOM     15  H   UNL     1       6.196   3.633  19.642  0.00  0.00    +0.000 HD
BRANCH  14  16
ATOM     16  C   UNL     1       6.492   5.232  18.372  0.00  0.00    +0.000 A 
ATOM     17  C   UNL     1       7.216   6.383  18.736  0.00  0.00    +0.000 A 
ATOM     18  C   UNL     1       7.773   7.230  17.785  0.00  0.00    +0.000 A 
ATOM     19  C   UNL     1       7.632   6.934  16.437  0.00  0.00    +0.000 A 
ATOM     20  C   UNL     1       6.965   5.773  16.025  0.00  0.00    +0.000 A 
ATOM     21  C   UNL     1       6.856   5.504  14.652  0.00  0.00    +0.000 A 
ATOM     22  C   UNL     1       6.213   4.360  14.195  0.00  0.00    +0.000 A 
ATOM     23  C   UNL     1       5.671   3.465  15.109  0.00  0.00    +0.000 A 
ATOM     24  C   UNL     1       5.757   3.728  16.482  0.00  0.00    +0.000 A 
ATOM     25  C   UNL     1       6.396   4.889  16.986  0.00  0.00    +0.000 A 
ENDBRANCH  14  16
ENDBRANCH   7  14
TORSDOF 3
ENDMDL
MODEL 8
REMARK VINA RESULT:      -8.0      2.018      6.822
REMARK  Name = 
REMARK  5 active torsions:
REMARK  status: ('A' for Active; 'I' for Inactive)
REMARK    1  A    between atoms: C_1  and  C_2
REMARK    2  A    between atoms: C_4  and  C_5
REMARK    3  A    between atoms: C_6  and  C_7
REMARK    4  A    between atoms: C_10  and  N_11
REMARK    5  A    between atoms: N_11  and  C_12
REMARK                            x       y       z     vdW  Elec       q    Type
REMARK                         _______ _______ _______ _____ _____    ______ ____
ROOT
ATOM      1  C   UNL     1      -0.391   9.329  23.522  0.00  0.00    +0.000 C 
ATOM      2  C   UNL     1       0.107   9.426  22.114  0.00  0.00    +0.000 A 
ATOM      3  C   UNL     1      -0.445  10.308  21.205  0.00  0.00    +0.000 A 
ATOM      4  C   UNL     1       0.030  10.312  19.888  0.00  0.00    +0.000 A 
ATOM      5  C   UNL     1      -0.556  11.319  18.933  0.00  0.00    +0.000 C 
ATOM      6  C   UNL     1       1.047   9.398  19.522  0.00  0.00    +0.000 A 
ATOM      7  C   UNL     1       1.561   8.525  20.500  0.00  0.00    +0.000 A 
ATOM      8  N   UNL     1       1.096   8.578  21.774  0.00  0.00    +0.000 NA
ENDROOT
BRANCH   6   9
ATOM      9  C   UNL     1       1.547   9.372  18.124  0.00  0.00    +0.000 C 
ATOM     10  N   UNL     1       2.213  10.487  17.671  0.00  0.00    +0.000 N 
ATOM     11  O   UNL     1       1.341   8.436  17.362  0.00  0.00    +0.000 OA
ATOM     12  H   UNL     1       2.035  11.390  18.089  0.00  0.00    +0.000 HD
ATOM     13  H   UNL     1       2.398  10.479  16.672  0.00  0.00    +0.000 HD
ENDBRANCH   6   9
BRANCH   7  14
ATOM     14  N   UNL     1       2.511   7.512  20.196  0.00  0.00    +0.000 N 
ATOM     15  H   UNL     1       3.374   7.614  20.710  0.00  0.00    +0.000 HD
BRANCH  14  16
ATOM     16  C   UNL     1       2.202   6.172  19.816  0.00  0.00    +0.000 A 
ATOM     17  C   UNL     1       1.266   5.449  20.578  0.00  0.00    +0.000 A 
ATOM     18  C   UNL     1       1.055   4.089  20.384  0.00  0.00    +0.000 A 
ATOM     19  C   UNL     1       1.770   3.418  19.403  0.00  0.00    +0.000 A 
ATOM     20  C   UNL     1       2.677   4.103  18.583  0.00  0.00    +0.000 A 
ATOM     21  C   UNL     1       3.371   3.390  17.594  0.00  0.00    +0.000 A 
ATOM     22  C   UNL     1       4.272   4.027  16.749  0.00  0.00    +0.000 A 
ATOM     23  C   UNL     1       4.488   5.393  16.882  0.00  0.00    +0.000 A 
ATOM     24  C   UNL     1       3.817   6.116  17.875  0.00  0.00    +0.000 A 
ATOM     25  C   UNL     1       2.898   5.499  18.762  0.00  0.00    +0.000 A 
ENDBRANCH  14  16
ENDBRANCH   7  14
TORSDOF 3
ENDMDL
MODEL 9
REMARK VINA RESULT:      -7.9      1.589      2.897
REMARK  Name = 
REMARK  5 active torsions:
REMARK  status: ('A' for Active; 'I' for Inactive)
REMARK    1  A    between atoms: C_1  and  C_2
REMARK    2  A    between atoms: C_4  and  C_5
REMARK    3  A    between atoms: C_6  and  C_7
REMARK    4  A    between atoms: C_10  and  N_11
REMARK    5  A    between atoms: N_11  and  C_12
REMARK                            x       y       z     vdW  Elec       q    Type
REMARK                         _______ _______ _______ _____ _____    ______ ____
ROOT
ATOM      1  C   UNL     1       1.107   2.929  21.210  0.00  0.00    +0.000 C 
ATOM      2  C   UNL     1       1.942   3.722  20.253  0.00  0.00    +0.000 A 
ATOM      3  C   UNL     1       2.696   3.115  19.268  0.00  0.00    +0.000 A 
ATOM      4  C   UNL     1       3.498   3.910  18.439  0.00  0.00    +0.000 A 
ATOM      5  C   UNL     1       4.270   3.225  17.343  0.00  0.00    +0.000 C 
ATOM      6  C   UNL     1       3.526   5.310  18.649  0.00  0.00    +0.000 A 
ATOM      7  C   UNL     1       2.733   5.860  19.675  0.00  0.00    +0.000 A 
ATOM      8  N   UNL     1       1.944   5.056  20.433  0.00  0.00    +0.000 NA
ENDROOT
BRANCH   6   9
ATOM      9  C   UNL     1       4.387   6.166  17.796  0.00  0.00    +0.000 C 
ATOM     10  N   UNL     1       5.733   6.191  18.080  0.00  0.00    +0.000 N 
ATOM     11  O   UNL     1       3.941   6.879  16.905  0.00  0.00    +0.000 OA
ATOM     12  H   UNL     1       6.059   5.979  19.013  0.00  0.00    +0.000 HD
ATOM     13  H   UNL     1       6.249   6.903  17.570  0.00  0.00    +0.000 HD
ENDBRANCH   6   9
BRANCH   7  14
ATOM     14  N   UNL     1       2.776   7.239  20.017  0.00  0.00    +0.000 N 
ATOM     15  H   UNL     1       3.717   7.600  20.087  0.00  0.00    +0.000 HD
BRANCH  14  16
ATOM     16  C   UNL     1       1.793   8.212  19.664  0.00  0.00    +0.000 A 
ATOM     17  C   UNL     1       1.650   8.574  18.311  0.00  0.00    +0.000 A 
ATOM     18  C   UNL     1       0.852   9.641  17.917  0.00  0.00    +0.000 A 
ATOM     19  C   UNL     1       0.159  10.367  18.874  0.00  0.00    +0.000 A 
ATOM     20  C   UNL     1       0.228  10.015  20.229  0.00  0.00    +0.000 A 
ATOM     21  C   UNL     1      -0.500  10.769  21.163  0.00  0.00    +0.000 A 
ATOM     22  C   UNL     1      -0.473  10.452  22.516  0.00  0.00    +0.000 A 
ATOM     23  C   UNL     1       0.283   9.371  22.953  0.00  0.00    +0.000 A 
ATOM     24  C   UNL     1       1.028   8.620  22.036  0.00  0.00    +0.000 A 
ATOM     25  C   UNL     1       1.033   8.919  20.649  0.00  0.00    +0.000 A 
ENDBRANCH  14  16
ENDBRANCH   7  14
TORSDOF 3
ENDMDL
