MODEL 1
REMARK VINA RESULT:      -8.1      0.000      0.000
REMARK  Name = 
REMARK  13 active torsions:
REMARK  status: ('A' for Active; 'I' for Inactive)
REMARK    1  A    between atoms: C_1  and  C_2
REMARK    2  A    between atoms: C_2  and  N_3
REMARK    3  A    between atoms: C_5  and  N_6
REMARK    4  A    between atoms: C_7  and  C_9
REMARK    5  A    between atoms: C_12  and  C_13
REMARK    6  A    between atoms: C_13  and  O_14
REMARK    7  A    between atoms: O_14  and  C_15
REMARK    8  A    between atoms: C_15  and  C_16
REMARK    9  A    between atoms: C_22  and  C_23
REMARK   10  A    between atoms: N_25  and  C_26
REMARK   11  A    between atoms: C_26  and  C_27
REMARK   12  A    between atoms: C_27  and  C_28
REMARK   13  A    between atoms: C_27  and  C_29
REMARK                            x       y       z     vdW  Elec       q    Type
REMARK                         _______ _______ _______ _____ _____    ______ ____
ROOT
ATOM      1  N   UNL     1       4.059   6.815  17.642  0.00  0.00    +0.000 N 
ATOM      2  C   UNL     1       2.730   6.631  17.963  0.00  0.00    +0.000 C 
ATOM      3  O   UNL     1       2.034   5.667  17.670  0.00  0.00    +0.000 OA
ATOM      4  H   UNL     1       4.548   7.666  17.897  0.00  0.00    +0.000 HD
ENDROOT
BRANCH   2   5
ATOM      5  C   UNL     1       2.103   7.751  18.711  0.00  0.00    +0.000 A 
ATOM      6  C   UNL     1       1.906   7.603  20.089  0.00  0.00    +0.000 A 
ATOM      7  C   UNL     1       1.333   8.635  20.829  0.00  0.00    +0.000 A 
ATOM      8  C   UNL     1       0.966   9.838  20.208  0.00  0.00    +0.000 A 
ATOM      9  C   UNL     1       1.149   9.969  18.821  0.00  0.00    +0.000 A 
ATOM     10  C   UNL     1       1.714   8.935  18.078  0.00  0.00    +0.000 A 
BRANCH   8  11
ATOM     11  C   UNL     1       0.379  10.959  21.026  0.00  0.00    +0.000 C 
BRANCH  11  12
ATOM     12  O   UNL     1      -1.037  10.826  21.036  0.00  0.00    +0.000 OA
BRANCH  12  13
ATOM     13  C   UNL     1      -1.703  12.018  21.480  0.00  0.00    +0.000 C 
BRANCH  13  14
ATOM     14  C   UNL     1      -1.946  11.999  22.990  0.00  0.00    +0.000 C 
ATOM     15  F   UNL     1      -3.222  12.304  23.315  0.00  0.00    +0.000 F 
ATOM     16  F   UNL     1      -1.674  10.781  23.513  0.00  0.00    +0.000 F 
ATOM     17  F   UNL     1      -1.146  12.894  23.617  0.00  0.00    +0.000 F 
ENDBRANCH  13  14
ENDBRANCH  12  13
ENDBRANCH  11  12
ENDBRANCH   8  11
ENDBRANCH   2   5
BRANCH   1  20
ATOM     18  N   UNL     1       6.015   4.900  15.401  0.00  0.00    +0.000 N 
ATOM     19  C   UNL     1       5.350   6.055  15.686  0.00  0.00    +0.000 A 
ATOM     20  C   UNL     1       4.821   5.903  16.931  0.00  0.00    +0.000 A 
ATOM     21  C   UNL     1       5.221   4.593  17.344  0.00  0.00    +0.000 A 
ATOM     22  N   UNL     1       5.957   3.979  16.389  0.00  0.00    +0.000 NA
BRANCH  21  23
ATOM     23  C   UNL     1       4.889   3.958  18.637  0.00  0.00    +0.000 C 
ATOM     24  O   UNL     1       5.671   4.008  19.591  0.00  0.00    +0.000 OA
ATOM     25  N   UNL     1       3.674   3.315  18.697  0.00  0.00    +0.000 N 
ATOM     26  H   UNL     1       3.116   3.320  17.850  0.00  0.00    +0.000 HD
BRANCH  25  27
ATOM     27  C   UNL     1       3.230   2.623  19.894  0.00  0.00    +0.000 C 
BRANCH  27  28
ATOM     28  C   UNL     1       1.707   2.687  20.114  0.00  0.00    +0.000 C 
ATOM     29  C   UNL     1       1.268   4.043  20.669  0.00  0.00    +0.000 C 
ATOM     30  C   UNL     1       0.979   2.417  18.793  0.00  0.00    +0.000 C 
ENDBRANCH  27  28
ENDBRANCH  25  27
ENDBRANCH  21  23
BRANCH  18  32
ATOM     31  C   UNL     1       6.014   3.663  13.273  0.00  0.00    +0.000 C 
ATOM     32  C   UNL     1       6.742   4.643  14.174  0.00  0.00    +0.000 C 
ENDBRANCH  18  32
ENDBRANCH   1  20
TORSDOF 10
ENDMDL
MODEL 2
REMARK VINA RESULT:      -8.1      2.088      2.335
REMARK  Name = 
REMARK  13 active torsions:
REMARK  status: ('A' for Active; 'I' for Inactive)
REMARK    1  A    between atoms: C_1  and  C_2
REMARK    2  A    between atoms: C_2  and  N_3
REMARK    3  A    between atoms: C_5  and  N_6
REMARK    4  A    between atoms: C_7  and  C_9
REMARK    5  A    between atoms: C_12  and  C_13
REMARK    6  A    between atoms: C_13  and  O_14
REMARK    7  A    between atoms: O_14  and  C_15
REMARK    8  A    between atoms: C_15  and  C_16
REMARK    9  A    between atoms: C_22  and  C_23
REMARK   10  A    between atoms: N_25  and  C_26
REMARK   11  A    between atoms: C_26  and  C_27
REMARK   12  A    between atoms: C_27  and  C_28
REMARK   13  A    between atoms: C_27  and  C_29
REMARK                            x       y       z     vdW  Elec       q    Type
REMARK                         _______ _______ _______ _____ _____    ______ ____
ROOT
ATOM      1  N   UNL     1       4.071   6.803  17.605  0.00  0.00    +0.000 N 
ATOM      2  C   UNL     1       2.760   6.585  17.972  0.00  0.00    +0.000 C 
ATOM      3  O   UNL     1       2.090   5.589  17.729  0.00  0.00    +0.000 OA
ATOM      4  H   UNL     1       4.539   7.677  17.821  0.00  0.00    +0.000 HD
ENDROOT
BRANCH   2   5
ATOM      5  C   UNL     1       2.117   7.704  18.707  0.00  0.00    +0.000 A 
ATOM      6  C   UNL     1       1.906   7.563  20.083  0.00  0.00    +0.000 A 
ATOM      7  C   UNL     1       1.318   8.596  20.811  0.00  0.00    +0.000 A 
ATOM      8  C   UNL     1       0.951   9.793  20.179  0.00  0.00    +0.000 A 
ATOM      9  C   UNL     1       1.148   9.917  18.793  0.00  0.00    +0.000 A 
ATOM     10  C   UNL     1       1.729   8.883  18.063  0.00  0.00    +0.000 A 
BRANCH   8  11
ATOM     11  C   UNL     1       0.347  10.915  20.983  0.00  0.00    +0.000 C 
BRANCH  11  12
ATOM     12  O   UNL     1       1.355  11.885  21.245  0.00  0.00    +0.000 OA
BRANCH  12  13
ATOM     13  C   UNL     1       0.977  13.204  20.825  0.00  0.00    +0.000 C 
BRANCH  13  14
ATOM     14  C   UNL     1       1.544  13.541  19.444  0.00  0.00    +0.000 C 
ATOM     15  F   UNL     1       0.704  13.203  18.441  0.00  0.00    +0.000 F 
ATOM     16  F   UNL     1       1.799  14.865  19.332  0.00  0.00    +0.000 F 
ATOM     17  F   UNL     1       2.710  12.886  19.231  0.00  0.00    +0.000 F 
ENDBRANCH  13  14
ENDBRANCH  12  13
ENDBRANCH  11  12
ENDBRANCH   8  11
ENDBRANCH   2   5
BRANCH   1  20
ATOM     18  N   UNL     1       6.043   4.898  15.369  0.00  0.00    +0.000 N 
ATOM     19  C   UNL     1       5.363   6.045  15.649  0.00  0.00    +0.000 A 
ATOM     20  C   UNL     1       4.843   5.896  16.898  0.00  0.00    +0.000 A 
ATOM     21  C   UNL     1       5.264   4.596  17.320  0.00  0.00    +0.000 A 
ATOM     22  N   UNL     1       6.004   3.984  16.365  0.00  0.00    +0.000 NA
BRANCH  21  23
ATOM     23  C   UNL     1       4.948   3.967  18.619  0.00  0.00    +0.000 C 
ATOM     24  O   UNL     1       5.702   4.096  19.590  0.00  0.00    +0.000 OA
ATOM     25  N   UNL     1       3.783   3.238  18.668  0.00  0.00    +0.000 N 
ATOM     26  H   UNL     1       3.246   3.184  17.809  0.00  0.00    +0.000 HD
BRANCH  25  27
ATOM     27  C   UNL     1       3.362   2.542  19.871  0.00  0.00    +0.000 C 
BRANCH  27  28
ATOM     28  C   UNL     1       1.839   2.573  20.100  0.00  0.00    +0.000 C 
ATOM     29  C   UNL     1       1.385   3.888  20.734  0.00  0.00    +0.000 C 
ATOM     30  C   UNL     1       1.108   2.370  18.769  0.00  0.00    +0.000 C 
ENDBRANCH  27  28
ENDBRANCH  25  27
ENDBRANCH  21  23
BRANCH  18  32
ATOM     31  C   UNL     1       6.014   3.699  13.220  0.00  0.00    +0.000 C 
ATOM     32  C   UNL     1       6.767   4.641  14.140  0.00  0.00    +0.000 C 
ENDBRANCH  18  32
ENDBRANCH   1  20
TORSDOF 10
ENDMDL
MODEL 3
REMARK VINA RESULT:      -8.1      2.048      2.207
REMARK  Name = 
REMARK  13 active torsions:
REMARK  status: ('A' for Active; 'I' for Inactive)
REMARK    1  A    between atoms: C_1  and  C_2
REMARK    2  A    between atoms: C_2  and  N_3
REMARK    3  A    between atoms: C_5  and  N_6
REMARK    4  A    between atoms: C_7  and  C_9
REMARK    5  A    between atoms: C_12  and  C_13
REMARK    6  A    between atoms: C_13  and  O_14
REMARK    7  A    between atoms: O_14  and  C_15
REMARK    8  A    between atoms: C_15  and  C_16
REMARK    9  A    between atoms: C_22  and  C_23
REMARK   10  A    between atoms: N_25  and  C_26
REMARK   11  A    between atoms: C_26  and  C_27
REMARK   12  A    between atoms: C_27  and  C_28
REMARK   13  A    between atoms: C_27  and  C_29
REMARK                            x       y       z     vdW  Elec       q    Type
REMARK                         _______ _______ _______ _____ _____    ______ ____
ROOT
ATOM      1  N   UNL     1       4.093   6.832  17.522  0.00  0.00    +0.000 N 
ATOM      2  C   UNL     1       2.806   6.578  17.948  0.00  0.00    +0.000 C 
ATOM      3  O   UNL     1       2.173   5.542  17.783  0.00  0.00    +0.000 OA
ATOM      4  H   UNL     1       4.528   7.736  17.674  0.00  0.00    +0.000 HD
ENDROOT
BRANCH   2   5
ATOM      5  C   UNL     1       2.138   7.708  18.643  0.00  0.00    +0.000 A 
ATOM      6  C   UNL     1       1.897   7.595  20.017  0.00  0.00    +0.000 A 
ATOM      7  C   UNL     1       1.284   8.639  20.709  0.00  0.00    +0.000 A 
ATOM      8  C   UNL     1       0.923   9.819  20.042  0.00  0.00    +0.000 A 
ATOM      9  C   UNL     1       1.152   9.915  18.660  0.00  0.00    +0.000 A 
ATOM     10  C   UNL     1       1.757   8.870  17.965  0.00  0.00    +0.000 A 
BRANCH   8  11
ATOM     11  C   UNL     1       0.294  10.953  20.809  0.00  0.00    +0.000 C 
BRANCH  11  12
ATOM     12  O   UNL     1      -0.750  11.514  20.022  0.00  0.00    +0.000 OA
BRANCH  12  13
ATOM     13  C   UNL     1      -0.686  12.946  19.956  0.00  0.00    +0.000 C 
BRANCH  13  14
ATOM     14  C   UNL     1      -0.278  13.430  18.563  0.00  0.00    +0.000 C 
ATOM     15  F   UNL     1       1.020  13.180  18.285  0.00  0.00    +0.000 F 
ATOM     16  F   UNL     1      -1.021  12.833  17.603  0.00  0.00    +0.000 F 
ATOM     17  F   UNL     1      -0.467  14.766  18.445  0.00  0.00    +0.000 F 
ENDBRANCH  13  14
ENDBRANCH  12  13
ENDBRANCH  11  12
ENDBRANCH   8  11
ENDBRANCH   2   5
BRANCH   1  20
ATOM     18  N   UNL     1       6.071   4.890  15.323  0.00  0.00    +0.000 N 
ATOM     19  C   UNL     1       5.349   6.020  15.564  0.00  0.00    +0.000 A 
ATOM     20  C   UNL     1       4.881   5.921  16.839  0.00  0.00    +0.000 A 
ATOM     21  C   UNL     1       5.376   4.667  17.316  0.00  0.00    +0.000 A 
ATOM     22  N   UNL     1       6.110   4.035  16.370  0.00  0.00    +0.000 NA
BRANCH  21  23
ATOM     23  C   UNL     1       5.137   4.100  18.659  0.00  0.00    +0.000 C 
ATOM     24  O   UNL     1       5.924   4.306  19.588  0.00  0.00    +0.000 OA
ATOM     25  N   UNL     1       4.000   3.338  18.797  0.00  0.00    +0.000 N 
ATOM     26  H   UNL     1       3.430   3.220  17.966  0.00  0.00    +0.000 HD
BRANCH  25  27
ATOM     27  C   UNL     1       3.653   2.696  20.053  0.00  0.00    +0.000 C 
BRANCH  27  28
ATOM     28  C   UNL     1       2.137   2.642  20.320  0.00  0.00    +0.000 C 
ATOM     29  C   UNL     1       1.607   3.968  20.866  0.00  0.00    +0.000 C 
ATOM     30  C   UNL     1       1.393   2.290  19.027  0.00  0.00    +0.000 C 
ENDBRANCH  27  28
ENDBRANCH  25  27
ENDBRANCH  21  23
BRANCH  18  32
ATOM     31  C   UNL     1       5.953   3.684  13.182  0.00  0.00    +0.000 C 
ATOM     32  C   UNL     1       6.762   4.596  14.084  0.00  0.00    +0.000 C 
ENDBRANCH  18  32
ENDBRANCH   1  20
TORSDOF 10
ENDMDL
MODEL 4
REMARK VINA RESULT:      -7.9      0.602      1.064
REMARK  Name = 
REMARK  13 active torsions:
REMARK  status: ('A' for Active; 'I' for Inactive)
REMARK    1  A    between atoms: C_1  and  C_2
REMARK    2  A    between atoms: C_2  and  N_3
REMARK    3  A    between atoms: C_5  and  N_6
REMARK    4  A    between atoms: C_7  and  C_9
REMARK    5  A    between atoms: C_12  and  C_13
REMARK    6  A    between atoms: C_13  and  O_14
REMARK    7  A    between atoms: O_14  and  C_15
REMARK    8  A    between atoms: C_15  and  C_16
REMARK    9  A    between atoms: C_22  and  C_23
REMARK   10  A    between atoms: N_25  and  C_26
REMARK   11  A    between atoms: C_26  and  C_27
REMARK   12  A    between atoms: C_27  and  C_28
REMARK   13  A    between atoms: C_27  and  C_29
REMARK                            x       y       z     vdW  Elec       q    Type
REMARK                         _______ _______ _______ _____ _____    ______ ____
ROOT
ATOM      1  N   UNL     1       4.114   6.869  17.449  0.00  0.00    +0.000 N 
ATOM      2  C   UNL     1       2.839   6.644  17.926  0.00  0.00    +0.000 C 
ATOM      3  O   UNL     1       2.204   5.599  17.849  0.00  0.00    +0.000 OA
ATOM      4  H   UNL     1       4.551   7.781  17.528  0.00  0.00    +0.000 HD
ENDROOT
BRANCH   2   5
ATOM      5  C   UNL     1       2.189   7.818  18.563  0.00  0.00    +0.000 A 
ATOM      6  C   UNL     1       1.950   8.952  17.780  0.00  0.00    +0.000 A 
ATOM      7  C   UNL     1       1.330  10.070  18.336  0.00  0.00    +0.000 A 
ATOM      8  C   UNL     1       0.921  10.062  19.678  0.00  0.00    +0.000 A 
ATOM      9  C   UNL     1       1.184   8.926  20.461  0.00  0.00    +0.000 A 
ATOM     10  C   UNL     1       1.811   7.812  19.909  0.00  0.00    +0.000 A 
BRANCH   8  11
ATOM     11  C   UNL     1       0.221  11.264  20.259  0.00  0.00    +0.000 C 
BRANCH  11  12
ATOM     12  O   UNL     1       0.259  11.175  21.678  0.00  0.00    +0.000 OA
BRANCH  12  13
ATOM     13  C   UNL     1      -0.379  12.289  22.319  0.00  0.00    +0.000 C 
BRANCH  13  14
ATOM     14  C   UNL     1      -1.725  11.895  22.930  0.00  0.00    +0.000 C 
ATOM     15  F   UNL     1      -2.724  11.879  22.021  0.00  0.00    +0.000 F 
ATOM     16  F   UNL     1      -1.665  10.664  23.489  0.00  0.00    +0.000 F 
ATOM     17  F   UNL     1      -2.082  12.763  23.907  0.00  0.00    +0.000 F 
ENDBRANCH  13  14
ENDBRANCH  12  13
ENDBRANCH  11  12
ENDBRANCH   8  11
ENDBRANCH   2   5
BRANCH   1  20
ATOM     18  N   UNL     1       6.066   4.804  15.342  0.00  0.00    +0.000 N 
ATOM     19  C   UNL     1       5.374   5.961  15.537  0.00  0.00    +0.000 A 
ATOM     20  C   UNL     1       4.884   5.915  16.806  0.00  0.00    +0.000 A 
ATOM     21  C   UNL     1       5.335   4.662  17.329  0.00  0.00    +0.000 A 
ATOM     22  N   UNL     1       6.063   3.980  16.414  0.00  0.00    +0.000 NA
BRANCH  21  23
ATOM     23  C   UNL     1       5.057   4.144  18.685  0.00  0.00    +0.000 C 
ATOM     24  O   UNL     1       5.815   4.389  19.629  0.00  0.00    +0.000 OA
ATOM     25  N   UNL     1       3.920   3.379  18.817  0.00  0.00    +0.000 N 
ATOM     26  H   UNL     1       3.377   3.227  17.974  0.00  0.00    +0.000 HD
BRANCH  25  27
ATOM     27  C   UNL     1       3.539   2.782  20.084  0.00  0.00    +0.000 C 
BRANCH  27  28
ATOM     28  C   UNL     1       2.017   2.622  20.257  0.00  0.00    +0.000 C 
ATOM     29  C   UNL     1       1.372   3.887  20.824  0.00  0.00    +0.000 C 
ATOM     30  C   UNL     1       1.373   2.282  18.909  0.00  0.00    +0.000 C 
ENDBRANCH  27  28
ENDBRANCH  25  27
ENDBRANCH  21  23
BRANCH  18  32
ATOM     31  C   UNL     1       5.875   3.710  13.146  0.00  0.00    +0.000 C 
ATOM     32  C   UNL     1       6.767   4.451  14.124  0.00  0.00    +0.000 C 
ENDBRANCH  18  32
ENDBRANCH   1  20
TORSDOF 10
ENDMDL
MODEL 5
REMARK VINA RESULT:      -7.8      2.222      2.531
REMARK  Name = 
REMARK  13 active torsions:
REMARK  status: ('A' for Active; 'I' for Inactive)
REMARK    1  A    between atoms: C_1  and  C_2
REMARK    2  A    between atoms: C_2  and  N_3
REMARK    3  A    between atoms: C_5  and  N_6
REMARK    4  A    between atoms: C_7  and  C_9
REMARK    5  A    between atoms: C_12  and  C_13
REMARK    6  A    between atoms: C_13  and  O_14
REMARK    7  A    between atoms: O_14  and  C_15
REMARK    8  A    between atoms: C_15  and  C_16
REMARK    9  A    between atoms: C_22  and  C_23
REMARK   10  A    between atoms: N_25  and  C_26
REMARK   11  A    between atoms: C_26  and  C_27
REMARK   12  A    between atoms: C_27  and  C_28
REMARK   13  A    between atoms: C_27  and  C_29
REMARK                            x       y       z     vdW  Elec       q    Type
REMARK                         _______ _______ _______ _____ _____    ______ ____
ROOT
ATOM      1  N   UNL     1       4.104   6.830  17.587  0.00  0.00    +0.000 N 
ATOM      2  C   UNL     1       2.799   6.590  17.965  0.00  0.00    +0.000 C 
ATOM      3  O   UNL     1       2.142   5.585  17.723  0.00  0.00    +0.000 OA
ATOM      4  H   UNL     1       4.559   7.710  17.803  0.00  0.00    +0.000 HD
ENDROOT
BRANCH   2   5
ATOM      5  C   UNL     1       2.145   7.696  18.709  0.00  0.00    +0.000 A 
ATOM      6  C   UNL     1       1.915   7.532  20.080  0.00  0.00    +0.000 A 
ATOM      7  C   UNL     1       1.316   8.552  20.817  0.00  0.00    +0.000 A 
ATOM      8  C   UNL     1       0.957   9.759  20.200  0.00  0.00    +0.000 A 
ATOM      9  C   UNL     1       1.174   9.907  18.820  0.00  0.00    +0.000 A 
ATOM     10  C   UNL     1       1.765   8.886  18.081  0.00  0.00    +0.000 A 
BRANCH   8  11
ATOM     11  C   UNL     1       0.342  10.867  21.016  0.00  0.00    +0.000 C 
BRANCH  11  12
ATOM     12  O   UNL     1       1.330  11.861  21.257  0.00  0.00    +0.000 OA
BRANCH  12  13
ATOM     13  C   UNL     1       1.099  13.065  20.510  0.00  0.00    +0.000 C 
BRANCH  13  14
ATOM     14  C   UNL     1       2.392  13.606  19.897  0.00  0.00    +0.000 C 
ATOM     15  F   UNL     1       3.433  13.564  20.757  0.00  0.00    +0.000 F 
ATOM     16  F   UNL     1       2.745  12.897  18.799  0.00  0.00    +0.000 F 
ATOM     17  F   UNL     1       2.238  14.895  19.512  0.00  0.00    +0.000 F 
ENDBRANCH  13  14
ENDBRANCH  12  13
ENDBRANCH  11  12
ENDBRANCH   8  11
ENDBRANCH   2   5
BRANCH   1  20
ATOM     18  N   UNL     1       6.099   4.971  15.334  0.00  0.00    +0.000 N 
ATOM     19  C   UNL     1       5.415   6.112  15.629  0.00  0.00    +0.000 A 
ATOM     20  C   UNL     1       4.883   5.938  16.870  0.00  0.00    +0.000 A 
ATOM     21  C   UNL     1       5.301   4.630  17.270  0.00  0.00    +0.000 A 
ATOM     22  N   UNL     1       6.051   4.038  16.311  0.00  0.00    +0.000 NA
BRANCH  21  23
ATOM     23  C   UNL     1       4.973   3.974  18.553  0.00  0.00    +0.000 C 
ATOM     24  O   UNL     1       5.734   4.054  19.523  0.00  0.00    +0.000 OA
ATOM     25  N   UNL     1       3.786   3.278  18.588  0.00  0.00    +0.000 N 
ATOM     26  H   UNL     1       3.244   3.264  17.730  0.00  0.00    +0.000 HD
BRANCH  25  27
ATOM     27  C   UNL     1       3.350   2.562  19.773  0.00  0.00    +0.000 C 
BRANCH  27  28
ATOM     28  C   UNL     1       2.113   3.183  20.448  0.00  0.00    +0.000 C 
ATOM     29  C   UNL     1       0.839   2.937  19.639  0.00  0.00    +0.000 C 
ATOM     30  C   UNL     1       1.942   2.603  21.856  0.00  0.00    +0.000 C 
ENDBRANCH  27  28
ENDBRANCH  25  27
ENDBRANCH  21  23
BRANCH  18  32
ATOM     31  C   UNL     1       6.141   3.738  13.204  0.00  0.00    +0.000 C 
ATOM     32  C   UNL     1       6.836   4.740  14.107  0.00  0.00    +0.000 C 
ENDBRANCH  18  32
ENDBRANCH   1  20
TORSDOF 10
ENDMDL
MODEL 6
REMARK VINA RESULT:      -7.8      2.333      2.810
REMARK  Name = 
REMARK  13 active torsions:
REMARK  status: ('A' for Active; 'I' for Inactive)
REMARK    1  A    between atoms: C_1  and  C_2
REMARK    2  A    between atoms: C_2  and  N_3
REMARK    3  A    between atoms: C_5  and  N_6
REMARK    4  A    between atoms: C_7  and  C_9
REMARK    5  A    between atoms: C_12  and  C_13
REMARK    6  A    between atoms: C_13  and  O_14
REMARK    7  A    between atoms: O_14  and  C_15
REMARK    8  A    between atoms: C_15  and  C_16
REMARK    9  A    between atoms: C_22  and  C_23
REMARK   10  A    between atoms: N_25  and  C_26
REMARK   11  A    between atoms: C_26  and  C_27
REMARK   12  A    between atoms: C_27  and  C_28
REMARK   13  A    between atoms: C_27  and  C_29
REMARK                            x       y       z     vdW  Elec       q    Type
REMARK                         _______ _______ _______ _____ _____    ______ ____
ROOT
ATOM      1  N   UNL     1       4.102   6.773  17.506  0.00  0.00    +0.000 N 
ATOM      2  C   UNL     1       2.807   6.540  17.919  0.00  0.00    +0.000 C 
ATOM      3  O   UNL     1       2.151   5.523  17.730  0.00  0.00    +0.000 OA
ATOM      4  H   UNL     1       4.557   7.663  17.678  0.00  0.00    +0.000 HD
ENDROOT
BRANCH   2   5
ATOM      5  C   UNL     1       2.161   7.671  18.633  0.00  0.00    +0.000 A 
ATOM      6  C   UNL     1       1.780   8.796  17.893  0.00  0.00    +0.000 A 
ATOM      7  C   UNL     1       1.160   9.873  18.524  0.00  0.00    +0.000 A 
ATOM      8  C   UNL     1       0.892   9.833  19.901  0.00  0.00    +0.000 A 
ATOM      9  C   UNL     1       1.297   8.708  20.638  0.00  0.00    +0.000 A 
ATOM     10  C   UNL     1       1.924   7.634  20.011  0.00  0.00    +0.000 A 
BRANCH   8  11
ATOM     11  C   UNL     1       0.190  10.989  20.565  0.00  0.00    +0.000 C 
BRANCH  11  12
ATOM     12  O   UNL     1       0.499  12.182  19.854  0.00  0.00    +0.000 OA
BRANCH  12  13
ATOM     13  C   UNL     1       1.581  12.916  20.447  0.00  0.00    +0.000 C 
BRANCH  13  14
ATOM     14  C   UNL     1       2.480  13.552  19.385  0.00  0.00    +0.000 C 
ATOM     15  F   UNL     1       1.879  14.578  18.743  0.00  0.00    +0.000 F 
ATOM     16  F   UNL     1       3.620  14.031  19.935  0.00  0.00    +0.000 F 
ATOM     17  F   UNL     1       2.835  12.642  18.448  0.00  0.00    +0.000 F 
ENDBRANCH  13  14
ENDBRANCH  12  13
ENDBRANCH  11  12
ENDBRANCH   8  11
ENDBRANCH   2   5
BRANCH   1  20
ATOM     18  N   UNL     1       6.069   4.842  15.288  0.00  0.00    +0.000 N 
ATOM     19  C   UNL     1       5.388   5.992  15.555  0.00  0.00    +0.000 A 
ATOM     20  C   UNL     1       4.873   5.858  16.808  0.00  0.00    +0.000 A 
ATOM     21  C   UNL     1       5.297   4.564  17.245  0.00  0.00    +0.000 A 
ATOM     22  N   UNL     1       6.035   3.941  16.295  0.00  0.00    +0.000 NA
BRANCH  21  23
ATOM     23  C   UNL     1       4.987   3.951  18.553  0.00  0.00    +0.000 C 
ATOM     24  O   UNL     1       5.777   4.033  19.499  0.00  0.00    +0.000 OA
ATOM     25  N   UNL     1       3.783   3.291  18.639  0.00  0.00    +0.000 N 
ATOM     26  H   UNL     1       3.216   3.271  17.797  0.00  0.00    +0.000 HD
BRANCH  25  27
ATOM     27  C   UNL     1       3.361   2.618  19.854  0.00  0.00    +0.000 C 
BRANCH  27  28
ATOM     28  C   UNL     1       2.049   3.172  20.442  0.00  0.00    +0.000 C 
ATOM     29  C   UNL     1       0.848   2.858  19.550  0.00  0.00    +0.000 C 
ATOM     30  C   UNL     1       1.814   2.585  21.837  0.00  0.00    +0.000 C 
ENDBRANCH  27  28
ENDBRANCH  25  27
ENDBRANCH  21  23
BRANCH  18  32
ATOM     31  C   UNL     1       5.999   3.681  13.119  0.00  0.00    +0.000 C 
ATOM     32  C   UNL     1       6.789   4.571  14.060  0.00  0.00    +0.000 C 
ENDBRANCH  18  32
ENDBRANCH   1  20
TORSDOF 10
ENDMDL
MODEL 7
REMARK VINA RESULT:      -7.8      2.526      3.029
REMARK  Name = 
REMARK  13 active torsions:
REMARK  status: ('A' for Active; 'I' for Inactive)
REMARK    1  A    between atoms: C_1  and  C_2
REMARK    2  A    between atoms: C_2  and  N_3
REMARK    3  A    between atoms: C_5  and  N_6
REMARK    4  A    between atoms: C_7  and  C_9
REMARK    5  A    between atoms: C_12  and  C_13
REMARK    6  A    between atoms: C_13  and  O_14
REMARK    7  A    between atoms: O_14  and  C_15
REMARK    8  A    between atoms: C_15  and  C_16
REMARK    9  A    between atoms: C_22  and  C_23
REMARK   10  A    between atoms: N_25  and  C_26
REMARK   11  A    between atoms: C_26  and  C_27
REMARK   12  A    between atoms: C_27  and  C_28
REMARK   13  A    between atoms: C_27  and  C_29
REMARK                            x       y       z     vdW  Elec       q    Type
REMARK                         _______ _______ _______ _____ _____    ______ ____
ROOT
ATOM      1  N   UNL     1       3.279   6.727  17.575  0.00  0.00    +0.000 N 
ATOM      2  C   UNL     1       2.913   6.883  18.896  0.00  0.00    +0.000 C 
ATOM      3  O   UNL     1       3.268   6.188  19.839  0.00  0.00    +0.000 OA
ATOM      4  H   UNL     1       2.906   7.332  16.851  0.00  0.00    +0.000 HD
ENDROOT
BRANCH   2   5
ATOM      5  C   UNL     1       1.966   7.996  19.159  0.00  0.00    +0.000 A 
ATOM      6  C   UNL     1       1.606   8.830  18.094  0.00  0.00    +0.000 A 
ATOM      7  C   UNL     1       0.710   9.879  18.297  0.00  0.00    +0.000 A 
ATOM      8  C   UNL     1       0.145  10.096  19.562  0.00  0.00    +0.000 A 
ATOM      9  C   UNL     1       0.527   9.266  20.629  0.00  0.00    +0.000 A 
ATOM     10  C   UNL     1       1.428   8.223  20.429  0.00  0.00    +0.000 A 
BRANCH   8  11
ATOM     11  C   UNL     1      -0.849  11.212  19.760  0.00  0.00    +0.000 C 
BRANCH  11  12
ATOM     12  O   UNL     1      -1.554  11.419  18.542  0.00  0.00    +0.000 OA
BRANCH  12  13
ATOM     13  C   UNL     1      -2.959  11.632  18.744  0.00  0.00    +0.000 C 
BRANCH  13  14
ATOM     14  C   UNL     1      -3.800  10.842  17.740  0.00  0.00    +0.000 C 
ATOM     15  F   UNL     1      -3.857  11.436  16.528  0.00  0.00    +0.000 F 
ATOM     16  F   UNL     1      -3.301   9.597  17.558  0.00  0.00    +0.000 F 
ATOM     17  F   UNL     1      -5.073  10.705  18.182  0.00  0.00    +0.000 F 
ENDBRANCH  13  14
ENDBRANCH  12  13
ENDBRANCH  11  12
ENDBRANCH   8  11
ENDBRANCH   2   5
BRANCH   1  20
ATOM     18  N   UNL     1       5.828   4.654  16.262  0.00  0.00    +0.000 N 
ATOM     19  C   UNL     1       5.368   5.901  16.563  0.00  0.00    +0.000 A 
ATOM     20  C   UNL     1       4.134   5.739  17.116  0.00  0.00    +0.000 A 
ATOM     21  C   UNL     1       3.913   4.326  17.115  0.00  0.00    +0.000 A 
ATOM     22  N   UNL     1       4.966   3.663  16.582  0.00  0.00    +0.000 NA
BRANCH  21  23
ATOM     23  C   UNL     1       2.703   3.643  17.619  0.00  0.00    +0.000 C 
ATOM     24  O   UNL     1       1.597   3.846  17.108  0.00  0.00    +0.000 OA
ATOM     25  N   UNL     1       2.893   2.786  18.678  0.00  0.00    +0.000 N 
ATOM     26  H   UNL     1       3.840   2.704  19.031  0.00  0.00    +0.000 HD
BRANCH  25  27
ATOM     27  C   UNL     1       1.789   2.069  19.293  0.00  0.00    +0.000 C 
BRANCH  27  28
ATOM     28  C   UNL     1       1.348   2.658  20.646  0.00  0.00    +0.000 C 
ATOM     29  C   UNL     1       2.511   2.744  21.635  0.00  0.00    +0.000 C 
ATOM     30  C   UNL     1       0.754   4.055  20.437  0.00  0.00    +0.000 C 
ENDBRANCH  27  28
ENDBRANCH  25  27
ENDBRANCH  21  23
BRANCH  18  32
ATOM     31  C   UNL     1       7.187   4.798  14.216  0.00  0.00    +0.000 C 
ATOM     32  C   UNL     1       7.118   4.367  15.669  0.00  0.00    +0.000 C 
ENDBRANCH  18  32
ENDBRANCH   1  20
TORSDOF 10
ENDMDL
MODEL 8
REMARK VINA RESULT:      -7.8      2.666      3.108
REMARK  Name = 
REMARK  13 active torsions:
REMARK  status: ('A' for Active; 'I' for Inactive)
REMARK    1  A    between atoms: C_1  and  C_2
REMARK    2  A    between atoms: C_2  and  N_3
REMARK    3  A    between atoms: C_5  and  N_6
REMARK    4  A    between atoms: C_7  and  C_9
REMARK    5  A    between atoms: C_12  and  C_13
REMARK    6  A    between atoms: C_13  and  O_14
REMARK    7  A    between atoms: O_14  and  C_15
REMARK    8  A    between atoms: C_15  and  C_16
REMARK    9  A    between atoms: C_22  and  C_23
REMARK   10  A    between atoms: N_25  and  C_26
REMARK   11  A    between atoms: C_26  and  C_27
REMARK   12  A    between atoms: C_27  and  C_28
REMARK   13  A    between atoms: C_27  and  C_29
REMARK                            x       y       z     vdW  Elec       q    Type
REMARK                         _______ _______ _______ _____ _____    ______ ____
ROOT
ATOM      1  N   UNL     1       3.489   6.680  17.241  0.00  0.00    +0.000 N 
ATOM      2  C   UNL     1       3.251   6.817  18.593  0.00  0.00    +0.000 C 
ATOM      3  O   UNL     1       3.742   6.146  19.492  0.00  0.00    +0.000 OA
ATOM      4  H   UNL     1       3.009   7.261  16.562  0.00  0.00    +0.000 HD
ENDROOT
BRANCH   2   5
ATOM      5  C   UNL     1       2.272   7.874  18.956  0.00  0.00    +0.000 A 
ATOM      6  C   UNL     1       1.834   8.747  17.954  0.00  0.00    +0.000 A 
ATOM      7  C   UNL     1       0.906   9.744  18.251  0.00  0.00    +0.000 A 
ATOM      8  C   UNL     1       0.387   9.869  19.548  0.00  0.00    +0.000 A 
ATOM      9  C   UNL     1       0.848   9.000  20.551  0.00  0.00    +0.000 A 
ATOM     10  C   UNL     1       1.781   8.009  20.257  0.00  0.00    +0.000 A 
BRANCH   8  11
ATOM     11  C   UNL     1      -0.642  10.929  19.848  0.00  0.00    +0.000 C 
BRANCH  11  12
ATOM     12  O   UNL     1      -1.875  10.554  19.246  0.00  0.00    +0.000 OA
BRANCH  12  13
ATOM     13  C   UNL     1      -2.237  11.404  18.148  0.00  0.00    +0.000 C 
BRANCH  13  14
ATOM     14  C   UNL     1      -2.883  10.613  17.010  0.00  0.00    +0.000 C 
ATOM     15  F   UNL     1      -1.996  10.256  16.055  0.00  0.00    +0.000 F 
ATOM     16  F   UNL     1      -3.461   9.479  17.471  0.00  0.00    +0.000 F 
ATOM     17  F   UNL     1      -3.853  11.342  16.407  0.00  0.00    +0.000 F 
ENDBRANCH  13  14
ENDBRANCH  12  13
ENDBRANCH  11  12
ENDBRANCH   8  11
ENDBRANCH   2   5
BRANCH   1  20
ATOM     18  N   UNL     1       5.976   4.758  15.617  0.00  0.00    +0.000 N 
ATOM     19  C   UNL     1       5.450   5.976  15.927  0.00  0.00    +0.000 A 
ATOM     20  C   UNL     1       4.350   5.743  16.693  0.00  0.00    +0.000 A 
ATOM     21  C   UNL     1       4.273   4.319  16.805  0.00  0.00    +0.000 A 
ATOM     22  N   UNL     1       5.283   3.718  16.133  0.00  0.00    +0.000 NA
BRANCH  21  23
ATOM     23  C   UNL     1       3.239   3.567  17.546  0.00  0.00    +0.000 C 
ATOM     24  O   UNL     1       2.150   3.303  17.028  0.00  0.00    +0.000 OA
ATOM     25  N   UNL     1       3.568   3.195  18.829  0.00  0.00    +0.000 N 
ATOM     26  H   UNL     1       4.484   3.477  19.162  0.00  0.00    +0.000 HD
BRANCH  25  27
ATOM     27  C   UNL     1       2.638   2.476  19.682  0.00  0.00    +0.000 C 
BRANCH  27  28
ATOM     28  C   UNL     1       2.034   3.343  20.803  0.00  0.00    +0.000 C 
ATOM     29  C   UNL     1       0.890   4.219  20.292  0.00  0.00    +0.000 C 
ATOM     30  C   UNL     1       1.523   2.447  21.936  0.00  0.00    +0.000 C 
ENDBRANCH  27  28
ENDBRANCH  25  27
ENDBRANCH  21  23
BRANCH  18  32
ATOM     31  C   UNL     1       6.847   4.202  13.384  0.00  0.00    +0.000 C 
ATOM     32  C   UNL     1       7.171   4.547  14.825  0.00  0.00    +0.000 C 
ENDBRANCH  18  32
ENDBRANCH   1  20
TORSDOF 10
ENDMDL
MODEL 9
REMARK VINA RESULT:      -7.7      1.190      1.666
REMARK  Name = 
REMARK  13 active torsions:
REMARK  status: ('A' for Active; 'I' for Inactive)
REMARK    1  A    between atoms: C_1  and  C_2
REMARK    2  A    between atoms: C_2  and  N_3
REMARK    3  A    between atoms: C_5  and  N_6
REMARK    4  A    between atoms: C_7  and  C_9
REMARK    5  A    between atoms: C_12  and  C_13
REMARK    6  A    between atoms: C_13  and  O_14
REMARK    7  A    between atoms: O_14  and  C_15
REMARK    8  A    between atoms: C_15  and  C_16
REMARK    9  A    between atoms: C_22  and  C_23
REMARK   10  A    between atoms: N_25  and  C_26
REMARK   11  A    between atoms: C_26  and  C_27
REMARK   12  A    between atoms: C_27  and  C_28
REMARK   13  A    between atoms: C_27  and  C_29
REMARK                            x       y       z     vdW  Elec       q    Type
REMARK                         _______ _______ _______ _____ _____    ______ ____
ROOT
ATOM      1  N   UNL     1       4.202   6.814  17.463  0.00  0.00    +0.000 N 
ATOM      2  C   UNL     1       2.948   6.502  17.946  0.00  0.00    +0.000 C 
ATOM      3  O   UNL     1       2.367   5.430  17.833  0.00  0.00    +0.000 OA
ATOM      4  H   UNL     1       4.592   7.744  17.576  0.00  0.00    +0.000 HD
ENDROOT
BRANCH   2   5
ATOM      5  C   UNL     1       2.248   7.612  18.641  0.00  0.00    +0.000 A 
ATOM      6  C   UNL     1       1.875   8.736  17.895  0.00  0.00    +0.000 A 
ATOM      7  C   UNL     1       1.204   9.793  18.507  0.00  0.00    +0.000 A 
ATOM      8  C   UNL     1       0.878   9.735  19.870  0.00  0.00    +0.000 A 
ATOM      9  C   UNL     1       1.274   8.612  20.615  0.00  0.00    +0.000 A 
ATOM     10  C   UNL     1       1.951   7.558  20.007  0.00  0.00    +0.000 A 
BRANCH   8  11
ATOM     11  C   UNL     1       0.122  10.869  20.512  0.00  0.00    +0.000 C 
BRANCH  11  12
ATOM     12  O   UNL     1      -1.051  11.128  19.750  0.00  0.00    +0.000 OA
BRANCH  12  13
ATOM     13  C   UNL     1      -1.407  12.518  19.735  0.00  0.00    +0.000 C 
BRANCH  13  14
ATOM     14  C   UNL     1      -2.767  12.760  20.392  0.00  0.00    +0.000 C 
ATOM     15  F   UNL     1      -3.062  14.073  20.509  0.00  0.00    +0.000 F 
ATOM     16  F   UNL     1      -3.763  12.183  19.680  0.00  0.00    +0.000 F 
ATOM     17  F   UNL     1      -2.801  12.226  21.637  0.00  0.00    +0.000 F 
ENDBRANCH  13  14
ENDBRANCH  12  13
ENDBRANCH  11  12
ENDBRANCH   8  11
ENDBRANCH   2   5
BRANCH   1  20
ATOM     18  N   UNL     1       6.200   4.928  15.234  0.00  0.00    +0.000 N 
ATOM     19  C   UNL     1       5.429   6.026  15.478  0.00  0.00    +0.000 A 
ATOM     20  C   UNL     1       5.011   5.929  16.770  0.00  0.00    +0.000 A 
ATOM     21  C   UNL     1       5.585   4.712  17.253  0.00  0.00    +0.000 A 
ATOM     22  N   UNL     1       6.317   4.098  16.294  0.00  0.00    +0.000 NA
BRANCH  21  23
ATOM     23  C   UNL     1       5.420   4.162  18.615  0.00  0.00    +0.000 C 
ATOM     24  O   UNL     1       6.116   4.564  19.553  0.00  0.00    +0.000 OA
ATOM     25  N   UNL     1       4.460   3.187  18.758  0.00  0.00    +0.000 N 
ATOM     26  H   UNL     1       3.957   2.920  17.919  0.00  0.00    +0.000 HD
BRANCH  25  27
ATOM     27  C   UNL     1       4.209   2.538  20.033  0.00  0.00    +0.000 C 
BRANCH  27  28
ATOM     28  C   UNL     1       2.739   2.616  20.485  0.00  0.00    +0.000 C 
ATOM     29  C   UNL     1       2.382   4.001  21.026  0.00  0.00    +0.000 C 
ATOM     30  C   UNL     1       1.815   2.273  19.313  0.00  0.00    +0.000 C 
ENDBRANCH  27  28
ENDBRANCH  25  27
ENDBRANCH  21  23
BRANCH  18  32
ATOM     31  C   UNL     1       6.060   3.688  13.113  0.00  0.00    +0.000 C 
ATOM     32  C   UNL     1       6.862   4.643  13.977  0.00  0.00    +0.000 C 
ENDBRANCH  18  32
ENDBRANCH   1  20
TORSDOF 10
ENDMDL
