MODEL 1
REMARK VINA RESULT:      -8.0      0.000      0.000
REMARK  Name = 
REMARK  2 active torsions:
REMARK  status: ('A' for Active; 'I' for Inactive)
REMARK    1  A    between atoms: C_1  and  N_2
REMARK    2  A    between atoms: C_11  and  C_12
REMARK                            x       y       z     vdW  Elec       q    Type
REMARK                         _______ _______ _______ _____ _____    ______ ____
ROOT
ATOM      1  C   UNL     1      -0.087  12.066  21.808  0.00  0.00    +0.000 C 
ATOM      2  N   UNL     1      -0.058  10.820  21.049  0.00  0.00    +0.000 NA
ATOM      3  C   UNL     1       0.511   9.731  21.868  0.00  0.00    +0.000 C 
ATOM      4  C   UNL     1       0.585   8.397  21.099  0.00  0.00    +0.000 C 
ATOM      5  N   UNL     1       1.342   8.564  19.853  0.00  0.00    +0.000 N 
ATOM      6  C   UNL     1       2.162   7.574  19.320  0.00  0.00    +0.000 A 
ATOM      7  N   UNL     1       2.858   7.860  18.241  0.00  0.00    +0.000 NA
ATOM      8  C   UNL     1       3.744   6.922  17.689  0.00  0.00    +0.000 A 
ATOM      9  N   UNL     1       4.435   7.363  16.621  0.00  0.00    +0.000 NA
ATOM     10  C   UNL     1       5.330   6.516  16.062  0.00  0.00    +0.000 A 
ATOM     11  C   UNL     1       5.570   5.223  16.514  0.00  0.00    +0.000 A 
ATOM     12  C   UNL     1       4.842   4.769  17.620  0.00  0.00    +0.000 A 
ATOM     13  C   UNL     1       3.933   5.642  18.203  0.00  0.00    +0.000 A 
ATOM     14  N   UNL     1       3.172   5.334  19.324  0.00  0.00    +0.000 N 
ATOM     15  C   UNL     1       3.072   4.211  20.086  0.00  0.00    +0.000 A 
ATOM     16  N   UNL     1       2.208   4.413  21.055  0.00  0.00    +0.000 NA
ATOM     17  N   UNL     1       1.725   5.699  20.919  0.00  0.00    +0.000 NA
ATOM     18  C   UNL     1       2.323   6.243  19.879  0.00  0.00    +0.000 A 
ATOM     19  C   UNL     1       0.838   9.661  19.010  0.00  0.00    +0.000 C 
ATOM     20  C   UNL     1       0.751  10.971  19.820  0.00  0.00    +0.000 C 
ENDROOT
BRANCH  11  21
ATOM     21  C   UNL     1       6.588   4.356  15.839  0.00  0.00    +0.000 C 
ATOM     22  F   UNL     1       7.682   4.091  16.602  0.00  0.00    +0.000 F 
ATOM     23  F   UNL     1       6.074   3.147  15.482  0.00  0.00    +0.000 F 
ATOM     24  F   UNL     1       7.056   4.913  14.689  0.00  0.00    +0.000 F 
ENDBRANCH  11  21
TORSDOF 1
ENDMDL
MODEL 2
REMARK VINA RESULT:      -7.9      2.208      3.825
REMARK  Name = 
REMARK  2 active torsions:
REMARK  status: ('A' for Active; 'I' for Inactive)
REMARK    1  A    between atoms: C_1  and  N_2
REMARK    2  A    between atoms: C_11  and  C_12
REMARK                            x       y       z     vdW  Elec       q    Type
REMARK                         _______ _______ _______ _____ _____    ______ ____
ROOT
ATOM      1  C   UNL     1      -1.943  11.815  23.326  0.00  0.00    +0.000 C 
ATOM      2  N   UNL     1      -0.694  11.255  22.821  0.00  0.00    +0.000 NA
ATOM      3  C   UNL     1      -0.681  11.272  21.345  0.00  0.00    +0.000 C 
ATOM      4  C   UNL     1       0.612  10.666  20.763  0.00  0.00    +0.000 C 
ATOM      5  N   UNL     1       0.814   9.304  21.272  0.00  0.00    +0.000 N 
ATOM      6  C   UNL     1       1.381   8.283  20.515  0.00  0.00    +0.000 A 
ATOM      7  N   UNL     1       1.441   7.080  21.043  0.00  0.00    +0.000 NA
ATOM      8  C   UNL     1       1.950   5.998  20.308  0.00  0.00    +0.000 A 
ATOM      9  N   UNL     1       1.901   4.813  20.945  0.00  0.00    +0.000 NA
ATOM     10  C   UNL     1       2.348   3.725  20.277  0.00  0.00    +0.000 A 
ATOM     11  C   UNL     1       2.861   3.758  18.986  0.00  0.00    +0.000 A 
ATOM     12  C   UNL     1       2.916   4.994  18.332  0.00  0.00    +0.000 A 
ATOM     13  C   UNL     1       2.445   6.110  19.011  0.00  0.00    +0.000 A 
ATOM     14  N   UNL     1       2.409   7.389  18.470  0.00  0.00    +0.000 N 
ATOM     15  C   UNL     1       2.802   7.889  17.268  0.00  0.00    +0.000 A 
ATOM     16  N   UNL     1       2.553   9.178  17.224  0.00  0.00    +0.000 NA
ATOM     17  N   UNL     1       1.989   9.533  18.433  0.00  0.00    +0.000 NA
ATOM     18  C   UNL     1       1.899   8.443  19.167  0.00  0.00    +0.000 A 
ATOM     19  C   UNL     1       0.777   9.222  22.742  0.00  0.00    +0.000 C 
ATOM     20  C   UNL     1      -0.515   9.863  23.288  0.00  0.00    +0.000 C 
ENDROOT
BRANCH  11  21
ATOM     21  C   UNL     1       3.326   2.499  18.317  0.00  0.00    +0.000 C 
ATOM     22  F   UNL     1       4.287   2.696  17.375  0.00  0.00    +0.000 F 
ATOM     23  F   UNL     1       3.845   1.610  19.207  0.00  0.00    +0.000 F 
ATOM     24  F   UNL     1       2.311   1.845  17.691  0.00  0.00    +0.000 F 
ENDBRANCH  11  21
TORSDOF 1
ENDMDL
MODEL 3
REMARK VINA RESULT:      -7.4      4.168      7.287
REMARK  Name = 
REMARK  2 active torsions:
REMARK  status: ('A' for Active; 'I' for Inactive)
REMARK    1  A    between atoms: C_1  and  N_2
REMARK    2  A    between atoms: C_11  and  C_12
REMARK                            x       y       z     vdW  Elec       q    Type
REMARK                         _______ _______ _______ _____ _____    ______ ____
ROOT
ATOM      1  C   UNL     1       6.333   3.732  13.133  0.00  0.00    +0.000 C 
ATOM      2  N   UNL     1       6.287   4.179  14.521  0.00  0.00    +0.000 NA
ATOM      3  C   UNL     1       5.443   3.274  15.327  0.00  0.00    +0.000 C 
ATOM      4  C   UNL     1       5.345   3.720  16.799  0.00  0.00    +0.000 C 
ATOM      5  N   UNL     1       4.859   5.103  16.885  0.00  0.00    +0.000 N 
ATOM      6  C   UNL     1       4.034   5.559  17.908  0.00  0.00    +0.000 A 
ATOM      7  N   UNL     1       3.592   6.796  17.843  0.00  0.00    +0.000 NA
ATOM      8  C   UNL     1       2.712   7.296  18.816  0.00  0.00    +0.000 A 
ATOM      9  N   UNL     1       2.292   8.556  18.598  0.00  0.00    +0.000 NA
ATOM     10  C   UNL     1       1.416   9.085  19.484  0.00  0.00    +0.000 A 
ATOM     11  C   UNL     1       0.935   8.414  20.602  0.00  0.00    +0.000 A 
ATOM     12  C   UNL     1       1.382   7.107  20.826  0.00  0.00    +0.000 A 
ATOM     13  C   UNL     1       2.270   6.557  19.910  0.00  0.00    +0.000 A 
ATOM     14  N   UNL     1       2.765   5.262  19.992  0.00  0.00    +0.000 N 
ATOM     15  C   UNL     1       2.580   4.263  20.897  0.00  0.00    +0.000 A 
ATOM     16  N   UNL     1       3.268   3.205  20.531  0.00  0.00    +0.000 NA
ATOM     17  N   UNL     1       3.927   3.523  19.360  0.00  0.00    +0.000 NA
ATOM     18  C   UNL     1       3.605   4.760  19.044  0.00  0.00    +0.000 A 
ATOM     19  C   UNL     1       5.645   6.045  16.072  0.00  0.00    +0.000 C 
ATOM     20  C   UNL     1       5.746   5.552  14.614  0.00  0.00    +0.000 C 
ENDROOT
BRANCH  11  21
ATOM     21  C   UNL     1      -0.042   9.075  21.526  0.00  0.00    +0.000 C 
ATOM     22  F   UNL     1       0.522   9.586  22.653  0.00  0.00    +0.000 F 
ATOM     23  F   UNL     1      -0.693  10.109  20.927  0.00  0.00    +0.000 F 
ATOM     24  F   UNL     1      -1.013   8.219  21.945  0.00  0.00    +0.000 F 
ENDBRANCH  11  21
TORSDOF 1
ENDMDL
MODEL 4
REMARK VINA RESULT:      -7.3      3.160      5.178
REMARK  Name = 
REMARK  2 active torsions:
REMARK  status: ('A' for Active; 'I' for Inactive)
REMARK    1  A    between atoms: C_1  and  N_2
REMARK    2  A    between atoms: C_11  and  C_12
REMARK                            x       y       z     vdW  Elec       q    Type
REMARK                         _______ _______ _______ _____ _____    ______ ____
ROOT
ATOM      1  C   UNL     1      -0.196  17.385  19.940  0.00  0.00    +0.000 C 
ATOM      2  N   UNL     1      -0.645  15.998  19.996  0.00  0.00    +0.000 NA
ATOM      3  C   UNL     1      -0.200  15.361  21.251  0.00  0.00    +0.000 C 
ATOM      4  C   UNL     1      -0.631  13.884  21.345  0.00  0.00    +0.000 C 
ATOM      5  N   UNL     1      -0.150  13.134  20.178  0.00  0.00    +0.000 N 
ATOM      6  C   UNL     1       0.259  11.806  20.241  0.00  0.00    +0.000 A 
ATOM      7  N   UNL     1       0.749  11.256  19.151  0.00  0.00    +0.000 NA
ATOM      8  C   UNL     1       1.230   9.937  19.167  0.00  0.00    +0.000 A 
ATOM      9  N   UNL     1       1.756   9.517  18.001  0.00  0.00    +0.000 NA
ATOM     10  C   UNL     1       2.266   8.264  17.960  0.00  0.00    +0.000 A 
ATOM     11  C   UNL     1       2.270   7.387  19.038  0.00  0.00    +0.000 A 
ATOM     12  C   UNL     1       1.714   7.828  20.245  0.00  0.00    +0.000 A 
ATOM     13  C   UNL     1       1.203   9.118  20.293  0.00  0.00    +0.000 A 
ATOM     14  N   UNL     1       0.656   9.693  21.433  0.00  0.00    +0.000 N 
ATOM     15  C   UNL     1       0.450   9.221  22.691  0.00  0.00    +0.000 A 
ATOM     16  N   UNL     1      -0.102  10.158  23.429  0.00  0.00    +0.000 NA
ATOM     17  N   UNL     1      -0.268  11.271  22.629  0.00  0.00    +0.000 NA
ATOM     18  C   UNL     1       0.203  10.978  21.434  0.00  0.00    +0.000 A 
ATOM     19  C   UNL     1      -0.538  13.744  18.895  0.00  0.00    +0.000 C 
ATOM     20  C   UNL     1      -0.116  15.227  18.850  0.00  0.00    +0.000 C 
ENDROOT
BRANCH  11  21
ATOM     21  C   UNL     1       2.866   6.019  18.906  0.00  0.00    +0.000 C 
ATOM     22  F   UNL     1       2.091   5.026  19.419  0.00  0.00    +0.000 F 
ATOM     23  F   UNL     1       3.095   5.685  17.606  0.00  0.00    +0.000 F 
ATOM     24  F   UNL     1       4.070   5.920  19.532  0.00  0.00    +0.000 F 
ENDBRANCH  11  21
TORSDOF 1
ENDMDL
MODEL 5
REMARK VINA RESULT:      -7.3      4.350      7.313
REMARK  Name = 
REMARK  2 active torsions:
REMARK  status: ('A' for Active; 'I' for Inactive)
REMARK    1  A    between atoms: C_1  and  N_2
REMARK    2  A    between atoms: C_11  and  C_12
REMARK                            x       y       z     vdW  Elec       q    Type
REMARK                         _______ _______ _______ _____ _____    ______ ____
ROOT
ATOM      1  C   UNL     1       6.338   3.641  13.815  0.00  0.00    +0.000 C 
ATOM      2  N   UNL     1       6.187   4.349  15.082  0.00  0.00    +0.000 NA
ATOM      3  C   UNL     1       5.200   3.664  15.942  0.00  0.00    +0.000 C 
ATOM      4  C   UNL     1       4.988   4.390  17.285  0.00  0.00    +0.000 C 
ATOM      5  N   UNL     1       4.602   5.788  17.056  0.00  0.00    +0.000 N 
ATOM      6  C   UNL     1       3.715   6.478  17.877  0.00  0.00    +0.000 A 
ATOM      7  N   UNL     1       3.377   7.702  17.534  0.00  0.00    +0.000 NA
ATOM      8  C   UNL     1       2.444   8.427  18.291  0.00  0.00    +0.000 A 
ATOM      9  N   UNL     1       2.145   9.644  17.797  0.00  0.00    +0.000 NA
ATOM     10  C   UNL     1       1.227  10.381  18.465  0.00  0.00    +0.000 A 
ATOM     11  C   UNL     1       0.587   9.966  19.627  0.00  0.00    +0.000 A 
ATOM     12  C   UNL     1       0.909   8.703  20.138  0.00  0.00    +0.000 A 
ATOM     13  C   UNL     1       1.840   7.939  19.447  0.00  0.00    +0.000 A 
ATOM     14  N   UNL     1       2.225   6.659  19.823  0.00  0.00    +0.000 N 
ATOM     15  C   UNL     1       1.875   5.865  20.870  0.00  0.00    +0.000 A 
ATOM     16  N   UNL     1       2.514   4.720  20.788  0.00  0.00    +0.000 NA
ATOM     17  N   UNL     1       3.309   4.769  19.661  0.00  0.00    +0.000 NA
ATOM     18  C   UNL     1       3.115   5.938  19.086  0.00  0.00    +0.000 A 
ATOM     19  C   UNL     1       5.535   6.512  16.177  0.00  0.00    +0.000 C 
ATOM     20  C   UNL     1       5.744   5.742  14.857  0.00  0.00    +0.000 C 
ENDROOT
BRANCH  11  21
ATOM     21  C   UNL     1      -0.426  10.845  20.295  0.00  0.00    +0.000 C 
ATOM     22  F   UNL     1      -0.035  12.142  20.419  0.00  0.00    +0.000 F 
ATOM     23  F   UNL     1      -1.607  10.869  19.621  0.00  0.00    +0.000 F 
ATOM     24  F   UNL     1      -0.726  10.419  21.552  0.00  0.00    +0.000 F 
ENDBRANCH  11  21
TORSDOF 1
ENDMDL
MODEL 6
REMARK VINA RESULT:      -7.3      5.141      8.233
REMARK  Name = 
REMARK  2 active torsions:
REMARK  status: ('A' for Active; 'I' for Inactive)
REMARK    1  A    between atoms: C_1  and  N_2
REMARK    2  A    between atoms: C_11  and  C_12
REMARK                            x       y       z     vdW  Elec       q    Type
REMARK                         _______ _______ _______ _____ _____    ______ ____
ROOT
ATOM      1  C   UNL     1       4.409   2.259  20.369  0.00  0.00    +0.000 C 
ATOM      2  N   UNL     1       3.382   3.203  19.943  0.00  0.00    +0.000 NA
ATOM      3  C   UNL     1       3.994   4.354  19.249  0.00  0.00    +0.000 C 
ATOM      4  C   UNL     1       2.947   5.393  18.801  0.00  0.00    +0.000 C 
ATOM      5  N   UNL     1       2.145   5.840  19.947  0.00  0.00    +0.000 N 
ATOM      6  C   UNL     1       1.666   7.139  20.082  0.00  0.00    +0.000 A 
ATOM      7  N   UNL     1       1.026   7.452  21.187  0.00  0.00    +0.000 NA
ATOM      8  C   UNL     1       0.569   8.761  21.405  0.00  0.00    +0.000 A 
ATOM      9  N   UNL     1      -0.018   8.959  22.601  0.00  0.00    +0.000 NA
ATOM     10  C   UNL     1      -0.453  10.209  22.886  0.00  0.00    +0.000 A 
ATOM     11  C   UNL     1      -0.340  11.290  22.020  0.00  0.00    +0.000 A 
ATOM     12  C   UNL     1       0.263  11.075  20.776  0.00  0.00    +0.000 A 
ATOM     13  C   UNL     1       0.723   9.796  20.487  0.00  0.00    +0.000 A 
ATOM     14  N   UNL     1       1.370   9.453  19.308  0.00  0.00    +0.000 N 
ATOM     15  C   UNL     1       1.690  10.166  18.195  0.00  0.00    +0.000 A 
ATOM     16  N   UNL     1       2.315   9.389  17.338  0.00  0.00    +0.000 NA
ATOM     17  N   UNL     1       2.399   8.132  17.904  0.00  0.00    +0.000 NA
ATOM     18  C   UNL     1       1.836   8.191  19.093  0.00  0.00    +0.000 A 
ATOM     19  C   UNL     1       1.536   4.729  20.697  0.00  0.00    +0.000 C 
ATOM     20  C   UNL     1       2.608   3.697  21.103  0.00  0.00    +0.000 C 
ENDROOT
BRANCH  11  21
ATOM     21  C   UNL     1      -0.842  12.644  22.422  0.00  0.00    +0.000 C 
ATOM     22  F   UNL     1      -1.321  12.701  23.693  0.00  0.00    +0.000 F 
ATOM     23  F   UNL     1       0.130  13.593  22.342  0.00  0.00    +0.000 F 
ATOM     24  F   UNL     1      -1.850  13.078  21.618  0.00  0.00    +0.000 F 
ENDBRANCH  11  21
TORSDOF 1
ENDMDL
MODEL 7
REMARK VINA RESULT:      -7.1      3.359      5.454
REMARK  Name = 
REMARK  2 active torsions:
REMARK  status: ('A' for Active; 'I' for Inactive)
REMARK    1  A    between atoms: C_1  and  N_2
REMARK    2  A    between atoms: C_11  and  C_12
REMARK                            x       y       z     vdW  Elec       q    Type
REMARK                         _______ _______ _______ _____ _____    ______ ____
ROOT
ATOM      1  C   UNL     1       2.495  16.538  18.869  0.00  0.00    +0.000 C 
ATOM      2  N   UNL     1       1.623  15.377  19.011  0.00  0.00    +0.000 NA
ATOM      3  C   UNL     1       1.557  14.950  20.423  0.00  0.00    +0.000 C 
ATOM      4  C   UNL     1       0.663  13.709  20.619  0.00  0.00    +0.000 C 
ATOM      5  N   UNL     1       1.119  12.609  19.760  0.00  0.00    +0.000 N 
ATOM      6  C   UNL     1       1.055  11.271  20.137  0.00  0.00    +0.000 A 
ATOM      7  N   UNL     1       1.565  10.373  19.323  0.00  0.00    +0.000 NA
ATOM      8  C   UNL     1       1.581   9.014  19.674  0.00  0.00    +0.000 A 
ATOM      9  N   UNL     1       2.183   8.210  18.778  0.00  0.00    +0.000 NA
ATOM     10  C   UNL     1       2.259   6.891  19.072  0.00  0.00    +0.000 A 
ATOM     11  C   UNL     1       1.747   6.319  20.231  0.00  0.00    +0.000 A 
ATOM     12  C   UNL     1       1.115   7.160  21.154  0.00  0.00    +0.000 A 
ATOM     13  C   UNL     1       1.048   8.516  20.860  0.00  0.00    +0.000 A 
ATOM     14  N   UNL     1       0.482   9.464  21.702  0.00  0.00    +0.000 N 
ATOM     15  C   UNL     1      -0.133   9.369  22.911  0.00  0.00    +0.000 A 
ATOM     16  N   UNL     1      -0.499  10.565  23.315  0.00  0.00    +0.000 NA
ATOM     17  N   UNL     1      -0.121  11.465  22.339  0.00  0.00    +0.000 NA
ATOM     18  C   UNL     1       0.478  10.788  21.381  0.00  0.00    +0.000 A 
ATOM     19  C   UNL     1       1.235  12.989  18.343  0.00  0.00    +0.000 C 
ATOM     20  C   UNL     1       2.111  14.249  18.189  0.00  0.00    +0.000 C 
ENDROOT
BRANCH  11  21
ATOM     21  C   UNL     1       1.885   4.848  20.480  0.00  0.00    +0.000 C 
ATOM     22  F   UNL     1       2.674   4.206  19.577  0.00  0.00    +0.000 F 
ATOM     23  F   UNL     1       2.420   4.585  21.704  0.00  0.00    +0.000 F 
ATOM     24  F   UNL     1       0.685   4.208  20.456  0.00  0.00    +0.000 F 
ENDBRANCH  11  21
TORSDOF 1
ENDMDL
MODEL 8
REMARK VINA RESULT:      -7.1      2.928      4.829
REMARK  Name = 
REMARK  2 active torsions:
REMARK  status: ('A' for Active; 'I' for Inactive)
REMARK    1  A    between atoms: C_1  and  N_2
REMARK    2  A    between atoms: C_11  and  C_12
REMARK                            x       y       z     vdW  Elec       q    Type
REMARK                         _______ _______ _______ _____ _____    ______ ____
ROOT
ATOM      1  C   UNL     1      -0.536  16.882  19.647  0.00  0.00    +0.000 C 
ATOM      2  N   UNL     1      -0.901  15.476  19.779  0.00  0.00    +0.000 NA
ATOM      3  C   UNL     1      -0.375  14.922  21.042  0.00  0.00    +0.000 C 
ATOM      4  C   UNL     1      -0.716  13.428  21.215  0.00  0.00    +0.000 C 
ATOM      5  N   UNL     1      -0.233  12.656  20.064  0.00  0.00    +0.000 N 
ATOM      6  C   UNL     1       0.256  11.357  20.168  0.00  0.00    +0.000 A 
ATOM      7  N   UNL     1       0.739  10.788  19.085  0.00  0.00    +0.000 NA
ATOM      8  C   UNL     1       1.296   9.501  19.139  0.00  0.00    +0.000 A 
ATOM      9  N   UNL     1       1.805   9.060  17.973  0.00  0.00    +0.000 NA
ATOM     10  C   UNL     1       2.386   7.838  17.966  0.00  0.00    +0.000 A 
ATOM     11  C   UNL     1       2.479   7.012  19.080  0.00  0.00    +0.000 A 
ATOM     12  C   UNL     1       1.941   7.473  20.287  0.00  0.00    +0.000 A 
ATOM     13  C   UNL     1       1.357   8.733  20.299  0.00  0.00    +0.000 A 
ATOM     14  N   UNL     1       0.817   9.326  21.433  0.00  0.00    +0.000 N 
ATOM     15  C   UNL     1       0.683   8.899  22.717  0.00  0.00    +0.000 A 
ATOM     16  N   UNL     1       0.104   9.836  23.434  0.00  0.00    +0.000 NA
ATOM     17  N   UNL     1      -0.155  10.900  22.595  0.00  0.00    +0.000 NA
ATOM     18  C   UNL     1       0.290  10.582  21.397  0.00  0.00    +0.000 A 
ATOM     19  C   UNL     1      -0.701  13.185  18.772  0.00  0.00    +0.000 C 
ATOM     20  C   UNL     1      -0.368  14.686  18.648  0.00  0.00    +0.000 C 
ENDROOT
BRANCH  11  21
ATOM     21  C   UNL     1       3.150   5.675  18.984  0.00  0.00    +0.000 C 
ATOM     22  F   UNL     1       4.428   5.730  18.524  0.00  0.00    +0.000 F 
ATOM     23  F   UNL     1       3.208   5.045  20.188  0.00  0.00    +0.000 F 
ATOM     24  F   UNL     1       2.486   4.826  18.153  0.00  0.00    +0.000 F 
ENDBRANCH  11  21
TORSDOF 1
ENDMDL
MODEL 9
REMARK VINA RESULT:      -6.9      5.407      8.524
REMARK  Name = 
REMARK  2 active torsions:
REMARK  status: ('A' for Active; 'I' for Inactive)
REMARK    1  A    between atoms: C_1  and  N_2
REMARK    2  A    between atoms: C_11  and  C_12
REMARK                            x       y       z     vdW  Elec       q    Type
REMARK                         _______ _______ _______ _____ _____    ______ ____
ROOT
ATOM      1  C   UNL     1       5.164   3.535  19.386  0.00  0.00    +0.000 C 
ATOM      2  N   UNL     1       4.000   4.364  19.093  0.00  0.00    +0.000 NA
ATOM      3  C   UNL     1       4.421   5.695  18.613  0.00  0.00    +0.000 C 
ATOM      4  C   UNL     1       3.223   6.617  18.313  0.00  0.00    +0.000 C 
ATOM      5  N   UNL     1       2.359   6.736  19.494  0.00  0.00    +0.000 N 
ATOM      6  C   UNL     1       1.680   7.904  19.827  0.00  0.00    +0.000 A 
ATOM      7  N   UNL     1       0.998   7.925  20.952  0.00  0.00    +0.000 NA
ATOM      8  C   UNL     1       0.338   9.092  21.369  0.00  0.00    +0.000 A 
ATOM      9  N   UNL     1      -0.274   8.994  22.564  0.00  0.00    +0.000 NA
ATOM     10  C   UNL     1      -0.902  10.096  23.037  0.00  0.00    +0.000 A 
ATOM     11  C   UNL     1      -0.963  11.310  22.364  0.00  0.00    +0.000 A 
ATOM     12  C   UNL     1      -0.332  11.401  21.118  0.00  0.00    +0.000 A 
ATOM     13  C   UNL     1       0.325  10.276  20.637  0.00  0.00    +0.000 A 
ATOM     14  N   UNL     1       1.020  10.239  19.435  0.00  0.00    +0.000 N 
ATOM     15  C   UNL     1       1.223  11.168  18.462  0.00  0.00    +0.000 A 
ATOM     16  N   UNL     1       1.964  10.651  17.507  0.00  0.00    +0.000 NA
ATOM     17  N   UNL     1       2.246   9.347  17.862  0.00  0.00    +0.000 NA
ATOM     18  C   UNL     1       1.680   9.118  19.029  0.00  0.00    +0.000 A 
ATOM     19  C   UNL     1       1.935   5.435  20.037  0.00  0.00    +0.000 C 
ATOM     20  C   UNL     1       3.157   4.531  20.297  0.00  0.00    +0.000 C 
ENDROOT
BRANCH  11  21
ATOM     21  C   UNL     1      -1.673  12.482  22.968  0.00  0.00    +0.000 C 
ATOM     22  F   UNL     1      -0.874  13.284  23.722  0.00  0.00    +0.000 F 
ATOM     23  F   UNL     1      -2.229  13.286  22.021  0.00  0.00    +0.000 F 
ATOM     24  F   UNL     1      -2.698  12.101  23.777  0.00  0.00    +0.000 F 
ENDBRANCH  11  21
TORSDOF 1
ENDMDL
