MODEL 1
REMARK VINA RESULT:      -7.5      0.000      0.000
REMARK  Name = 
REMARK  4 active torsions:
REMARK  status: ('A' for Active; 'I' for Inactive)
REMARK    1  A    between atoms: C_2  and  C_3
REMARK    2  A    between atoms: C_8  and  N_9
REMARK    3  A    between atoms: N_12  and  C_13
REMARK    4  A    between atoms: C_13  and  C_14
REMARK                            x       y       z     vdW  Elec       q    Type
REMARK                         _______ _______ _______ _____ _____    ______ ____
ROOT
ATOM      1  N   UNL     1       4.720   5.046  18.358  0.00  0.00    +0.000 N 
ATOM      2  C   UNL     1       4.359   4.932  16.949  0.00  0.00    +0.000 C 
ATOM      3  C   UNL     1       5.075   5.997  16.113  0.00  0.00    +0.000 C 
ATOM      4  N   UNL     1       6.539   5.965  16.276  0.00  0.00    +0.000 NA
ATOM      5  C   UNL     1       6.877   6.159  17.708  0.00  0.00    +0.000 C 
ATOM      6  C   UNL     1       6.017   5.406  18.738  0.00  0.00    +0.000 C 
ATOM      7  O   UNL     1       6.454   5.214  19.874  0.00  0.00    +0.000 OA
ENDROOT
BRANCH   1  13
ATOM      8  C   UNL     1       2.817   5.339  19.911  0.00  0.00    +0.000 A 
ATOM      9  C   UNL     1       1.962   4.810  20.890  0.00  0.00    +0.000 A 
ATOM     10  C   UNL     1       2.104   3.487  21.310  0.00  0.00    +0.000 A 
ATOM     11  C   UNL     1       3.085   2.680  20.740  0.00  0.00    +0.000 A 
ATOM     12  C   UNL     1       3.928   3.190  19.747  0.00  0.00    +0.000 A 
ATOM     13  C   UNL     1       3.822   4.528  19.340  0.00  0.00    +0.000 A 
BRANCH   8  15
ATOM     14  N   UNL     1       2.360   7.737  19.026  0.00  0.00    +0.000 NA
ATOM     15  C   UNL     1       2.566   6.676  19.444  0.00  0.00    +0.000 C 
ENDBRANCH   8  15
ENDBRANCH   1  13
BRANCH   4  16
ATOM     16  C   UNL     1       7.161   4.730  15.749  0.00  0.00    +0.000 C 
BRANCH  16  17
ATOM     17  C   UNL     1       7.047   4.659  14.223  0.00  0.00    +0.000 C 
ATOM     18  N   UNL     1       6.304   3.624  13.731  0.00  0.00    +0.000 N 
ATOM     19  O   UNL     1       7.580   5.472  13.473  0.00  0.00    +0.000 OA
ATOM     20  H   UNL     1       6.052   2.842  14.324  0.00  0.00    +0.000 HD
ATOM     21  H   UNL     1       6.268   3.504  12.728  0.00  0.00    +0.000 HD
ENDBRANCH  16  17
ENDBRANCH   4  16
TORSDOF 4
ENDMDL
MODEL 2
REMARK VINA RESULT:      -7.0      1.172      2.220
REMARK  Name = 
REMARK  4 active torsions:
REMARK  status: ('A' for Active; 'I' for Inactive)
REMARK    1  A    between atoms: C_2  and  C_3
REMARK    2  A    between atoms: C_8  and  N_9
REMARK    3  A    between atoms: N_12  and  C_13
REMARK    4  A    between atoms: C_13  and  C_14
REMARK                            x       y       z     vdW  Elec       q    Type
REMARK                         _______ _______ _______ _____ _____    ______ ____
ROOT
ATOM      1  N   UNL     1       4.469   5.155  18.328  0.00  0.00    +0.000 N 
ATOM      2  C   UNL     1       4.313   5.389  16.897  0.00  0.00    +0.000 C 
ATOM      3  C   UNL     1       5.459   6.250  16.354  0.00  0.00    +0.000 C 
ATOM      4  N   UNL     1       6.788   5.684  16.645  0.00  0.00    +0.000 NA
ATOM      5  C   UNL     1       6.946   5.528  18.111  0.00  0.00    +0.000 C 
ATOM      6  C   UNL     1       5.738   4.977  18.890  0.00  0.00    +0.000 C 
ATOM      7  O   UNL     1       5.907   4.475  20.003  0.00  0.00    +0.000 OA
ENDROOT
BRANCH   1  13
ATOM      8  C   UNL     1       2.740   3.551  19.073  0.00  0.00    +0.000 A 
ATOM      9  C   UNL     1       1.588   3.278  19.827  0.00  0.00    +0.000 A 
ATOM     10  C   UNL     1       0.997   4.277  20.600  0.00  0.00    +0.000 A 
ATOM     11  C   UNL     1       1.565   5.548  20.642  0.00  0.00    +0.000 A 
ATOM     12  C   UNL     1       2.726   5.826  19.913  0.00  0.00    +0.000 A 
ATOM     13  C   UNL     1       3.312   4.842  19.102  0.00  0.00    +0.000 A 
BRANCH   8  15
ATOM     14  N   UNL     1       3.862   1.559  17.842  0.00  0.00    +0.000 NA
ATOM     15  C   UNL     1       3.364   2.462  18.370  0.00  0.00    +0.000 C 
ENDBRANCH   8  15
ENDBRANCH   1  13
BRANCH   4  16
ATOM     16  C   UNL     1       7.045   4.404  15.947  0.00  0.00    +0.000 C 
BRANCH  16  17
ATOM     17  C   UNL     1       7.085   4.599  14.428  0.00  0.00    +0.000 C 
ATOM     18  N   UNL     1       6.321   3.732  13.698  0.00  0.00    +0.000 N 
ATOM     19  O   UNL     1       7.753   5.472  13.882  0.00  0.00    +0.000 OA
ATOM     20  H   UNL     1       5.951   2.889  14.120  0.00  0.00    +0.000 HD
ATOM     21  H   UNL     1       6.381   3.784  12.691  0.00  0.00    +0.000 HD
ENDBRANCH  16  17
ENDBRANCH   4  16
TORSDOF 4
ENDMDL
MODEL 3
REMARK VINA RESULT:      -7.0      1.264      1.269
REMARK  Name = 
REMARK  4 active torsions:
REMARK  status: ('A' for Active; 'I' for Inactive)
REMARK    1  A    between atoms: C_2  and  C_3
REMARK    2  A    between atoms: C_8  and  N_9
REMARK    3  A    between atoms: N_12  and  C_13
REMARK    4  A    between atoms: C_13  and  C_14
REMARK                            x       y       z     vdW  Elec       q    Type
REMARK                         _______ _______ _______ _____ _____    ______ ____
ROOT
ATOM      1  N   UNL     1       4.215   4.454  18.108  0.00  0.00    +0.000 N 
ATOM      2  C   UNL     1       4.092   4.750  16.685  0.00  0.00    +0.000 C 
ATOM      3  C   UNL     1       5.103   5.819  16.259  0.00  0.00    +0.000 C 
ATOM      4  N   UNL     1       6.492   5.461  16.595  0.00  0.00    +0.000 NA
ATOM      5  C   UNL     1       6.602   5.240  18.058  0.00  0.00    +0.000 C 
ATOM      6  C   UNL     1       5.467   4.450  18.733  0.00  0.00    +0.000 C 
ATOM      7  O   UNL     1       5.663   3.912  19.825  0.00  0.00    +0.000 OA
ENDROOT
BRANCH   1  13
ATOM      8  C   UNL     1       2.225   4.727  19.551  0.00  0.00    +0.000 A 
ATOM      9  C   UNL     1       1.138   4.159  20.233  0.00  0.00    +0.000 A 
ATOM     10  C   UNL     1       0.910   2.783  20.176  0.00  0.00    +0.000 A 
ATOM     11  C   UNL     1       1.753   1.972  19.420  0.00  0.00    +0.000 A 
ATOM     12  C   UNL     1       2.826   2.530  18.718  0.00  0.00    +0.000 A 
ATOM     13  C   UNL     1       3.090   3.907  18.794  0.00  0.00    +0.000 A 
BRANCH   8  15
ATOM     14  N   UNL     1       2.502   7.309  19.602  0.00  0.00    +0.000 NA
ATOM     15  C   UNL     1       2.358   6.159  19.564  0.00  0.00    +0.000 C 
ENDBRANCH   8  15
ENDBRANCH   1  13
BRANCH   4  16
ATOM     16  C   UNL     1       6.993   4.288  15.844  0.00  0.00    +0.000 C 
BRANCH  16  17
ATOM     17  C   UNL     1       6.975   4.546  14.335  0.00  0.00    +0.000 C 
ATOM     18  N   UNL     1       7.826   5.518  13.888  0.00  0.00    +0.000 N 
ATOM     19  O   UNL     1       6.251   3.930  13.558  0.00  0.00    +0.000 OA
ATOM     20  H   UNL     1       8.254   6.167  14.538  0.00  0.00    +0.000 HD
ATOM     21  H   UNL     1       7.788   5.765  12.910  0.00  0.00    +0.000 HD
ENDBRANCH  16  17
ENDBRANCH   4  16
TORSDOF 4
ENDMDL
MODEL 4
REMARK VINA RESULT:      -6.9      2.489      5.802
REMARK  Name = 
REMARK  4 active torsions:
REMARK  status: ('A' for Active; 'I' for Inactive)
REMARK    1  A    between atoms: C_2  and  C_3
REMARK    2  A    between atoms: C_8  and  N_9
REMARK    3  A    between atoms: N_12  and  C_13
REMARK    4  A    between atoms: C_13  and  C_14
REMARK                            x       y       z     vdW  Elec       q    Type
REMARK                         _______ _______ _______ _____ _____    ______ ____
ROOT
ATOM      1  N   UNL     1       3.949   3.497  17.657  0.00  0.00    +0.000 N 
ATOM      2  C   UNL     1       2.566   3.205  17.299  0.00  0.00    +0.000 C 
ATOM      3  C   UNL     1       2.044   1.990  18.074  0.00  0.00    +0.000 C 
ATOM      4  N   UNL     1       2.181   2.139  19.533  0.00  0.00    +0.000 NA
ATOM      5  C   UNL     1       3.609   2.358  19.872  0.00  0.00    +0.000 C 
ATOM      6  C   UNL     1       4.402   3.319  18.969  0.00  0.00    +0.000 C 
ATOM      7  O   UNL     1       5.440   3.835  19.390  0.00  0.00    +0.000 OA
ENDROOT
BRANCH   1  13
ATOM      8  C   UNL     1       4.690   5.623  16.633  0.00  0.00    +0.000 A 
ATOM      9  C   UNL     1       5.483   6.302  15.696  0.00  0.00    +0.000 A 
ATOM     10  C   UNL     1       6.338   5.595  14.850  0.00  0.00    +0.000 A 
ATOM     11  C   UNL     1       6.420   4.208  14.950  0.00  0.00    +0.000 A 
ATOM     12  C   UNL     1       5.651   3.522  15.895  0.00  0.00    +0.000 A 
ATOM     13  C   UNL     1       4.761   4.216  16.729  0.00  0.00    +0.000 A 
BRANCH   8  15
ATOM     14  N   UNL     1       3.261   6.999  18.309  0.00  0.00    +0.000 NA
ATOM     15  C   UNL     1       3.900   6.406  17.546  0.00  0.00    +0.000 C 
ENDBRANCH   8  15
ENDBRANCH   1  13
BRANCH   4  16
ATOM     16  C   UNL     1       1.333   3.213  20.095  0.00  0.00    +0.000 C 
BRANCH  16  17
ATOM     17  C   UNL     1       2.006   3.879  21.298  0.00  0.00    +0.000 C 
ATOM     18  N   UNL     1       2.368   5.186  21.128  0.00  0.00    +0.000 N 
ATOM     19  O   UNL     1       2.214   3.295  22.358  0.00  0.00    +0.000 OA
ATOM     20  H   UNL     1       2.398   5.596  20.203  0.00  0.00    +0.000 HD
ATOM     21  H   UNL     1       2.880   5.634  21.875  0.00  0.00    +0.000 HD
ENDBRANCH  16  17
ENDBRANCH   4  16
TORSDOF 4
ENDMDL
MODEL 5
REMARK VINA RESULT:      -6.7      2.589      6.102
REMARK  Name = 
REMARK  4 active torsions:
REMARK  status: ('A' for Active; 'I' for Inactive)
REMARK    1  A    between atoms: C_2  and  C_3
REMARK    2  A    between atoms: C_8  and  N_9
REMARK    3  A    between atoms: N_12  and  C_13
REMARK    4  A    between atoms: C_13  and  C_14
REMARK                            x       y       z     vdW  Elec       q    Type
REMARK                         _______ _______ _______ _____ _____    ______ ____
ROOT
ATOM      1  N   UNL     1       4.596   4.605  17.679  0.00  0.00    +0.000 N 
ATOM      2  C   UNL     1       4.068   3.335  18.163  0.00  0.00    +0.000 C 
ATOM      3  C   UNL     1       3.736   3.414  19.657  0.00  0.00    +0.000 C 
ATOM      4  N   UNL     1       2.813   4.516  19.981  0.00  0.00    +0.000 NA
ATOM      5  C   UNL     1       3.412   5.801  19.545  0.00  0.00    +0.000 C 
ATOM      6  C   UNL     1       4.106   5.819  18.172  0.00  0.00    +0.000 C 
ATOM      7  O   UNL     1       4.281   6.892  17.590  0.00  0.00    +0.000 OA
ENDROOT
BRANCH   1  13
ATOM      8  C   UNL     1       6.810   4.829  16.598  0.00  0.00    +0.000 A 
ATOM      9  C   UNL     1       7.590   4.845  15.432  0.00  0.00    +0.000 A 
ATOM     10  C   UNL     1       6.998   4.650  14.183  0.00  0.00    +0.000 A 
ATOM     11  C   UNL     1       5.628   4.415  14.095  0.00  0.00    +0.000 A 
ATOM     12  C   UNL     1       4.844   4.374  15.252  0.00  0.00    +0.000 A 
ATOM     13  C   UNL     1       5.418   4.605  16.512  0.00  0.00    +0.000 A 
BRANCH   8  15
ATOM     14  N   UNL     1       7.984   5.039  18.904  0.00  0.00    +0.000 NA
ATOM     15  C   UNL     1       7.482   4.939  17.864  0.00  0.00    +0.000 C 
ENDBRANCH   8  15
ENDBRANCH   1  13
BRANCH   4  16
ATOM     16  C   UNL     1       1.462   4.339  19.404  0.00  0.00    +0.000 C 
BRANCH  16  17
ATOM     17  C   UNL     1       0.835   3.016  19.855  0.00  0.00    +0.000 C 
ATOM     18  N   UNL     1       0.854   2.778  21.200  0.00  0.00    +0.000 N 
ATOM     19  O   UNL     1       0.340   2.209  19.074  0.00  0.00    +0.000 OA
ATOM     20  H   UNL     1       1.445   3.326  21.813  0.00  0.00    +0.000 HD
ATOM     21  H   UNL     1       0.515   1.884  21.526  0.00  0.00    +0.000 HD
ENDBRANCH  16  17
ENDBRANCH   4  16
TORSDOF 4
ENDMDL
MODEL 6
REMARK VINA RESULT:      -6.7      2.645      3.884
REMARK  Name = 
REMARK  4 active torsions:
REMARK  status: ('A' for Active; 'I' for Inactive)
REMARK    1  A    between atoms: C_2  and  C_3
REMARK    2  A    between atoms: C_8  and  N_9
REMARK    3  A    between atoms: N_12  and  C_13
REMARK    4  A    between atoms: C_13  and  C_14
REMARK                            x       y       z     vdW  Elec       q    Type
REMARK                         _______ _______ _______ _____ _____    ______ ____
ROOT
ATOM      1  N   UNL     1       4.806   4.391  18.313  0.00  0.00    +0.000 N 
ATOM      2  C   UNL     1       5.202   5.436  19.250  0.00  0.00    +0.000 C 
ATOM      3  C   UNL     1       6.728   5.530  19.352  0.00  0.00    +0.000 C 
ATOM      4  N   UNL     1       7.379   5.731  18.046  0.00  0.00    +0.000 NA
ATOM      5  C   UNL     1       7.018   4.613  17.140  0.00  0.00    +0.000 C 
ATOM      6  C   UNL     1       5.550   4.148  17.154  0.00  0.00    +0.000 C 
ATOM      7  O   UNL     1       5.102   3.515  16.196  0.00  0.00    +0.000 OA
ENDROOT
BRANCH   1  13
ATOM      8  C   UNL     1       3.302   2.677  19.272  0.00  0.00    +0.000 A 
ATOM      9  C   UNL     1       2.023   2.107  19.369  0.00  0.00    +0.000 A 
ATOM     10  C   UNL     1       0.955   2.644  18.649  0.00  0.00    +0.000 A 
ATOM     11  C   UNL     1       1.155   3.764  17.846  0.00  0.00    +0.000 A 
ATOM     12  C   UNL     1       2.419   4.354  17.759  0.00  0.00    +0.000 A 
ATOM     13  C   UNL     1       3.511   3.804  18.449  0.00  0.00    +0.000 A 
BRANCH   8  15
ATOM     14  N   UNL     1       5.184   1.757  20.807  0.00  0.00    +0.000 NA
ATOM     15  C   UNL     1       4.345   2.146  20.108  0.00  0.00    +0.000 C 
ENDBRANCH   8  15
ENDBRANCH   1  13
BRANCH   4  16
ATOM     16  C   UNL     1       7.060   7.037  17.427  0.00  0.00    +0.000 C 
BRANCH  16  17
ATOM     17  C   UNL     1       7.970   8.144  17.967  0.00  0.00    +0.000 C 
ATOM     18  N   UNL     1       8.723   7.815  19.059  0.00  0.00    +0.000 N 
ATOM     19  O   UNL     1       8.035   9.262  17.465  0.00  0.00    +0.000 OA
ATOM     20  H   UNL     1       8.513   6.983  19.598  0.00  0.00    +0.000 HD
ATOM     21  H   UNL     1       9.279   8.542  19.486  0.00  0.00    +0.000 HD
ENDBRANCH  16  17
ENDBRANCH   4  16
TORSDOF 4
ENDMDL
MODEL 7
REMARK VINA RESULT:      -6.6      2.611      6.115
REMARK  Name = 
REMARK  4 active torsions:
REMARK  status: ('A' for Active; 'I' for Inactive)
REMARK    1  A    between atoms: C_2  and  C_3
REMARK    2  A    between atoms: C_8  and  N_9
REMARK    3  A    between atoms: N_12  and  C_13
REMARK    4  A    between atoms: C_13  and  C_14
REMARK                            x       y       z     vdW  Elec       q    Type
REMARK                         _______ _______ _______ _____ _____    ______ ____
ROOT
ATOM      1  N   UNL     1       3.842   4.378  17.578  0.00  0.00    +0.000 N 
ATOM      2  C   UNL     1       3.331   5.588  18.214  0.00  0.00    +0.000 C 
ATOM      3  C   UNL     1       1.863   5.416  18.618  0.00  0.00    +0.000 C 
ATOM      4  N   UNL     1       1.641   4.243  19.482  0.00  0.00    +0.000 NA
ATOM      5  C   UNL     1       2.100   3.020  18.779  0.00  0.00    +0.000 C 
ATOM      6  C   UNL     1       3.432   3.113  18.013  0.00  0.00    +0.000 C 
ATOM      7  O   UNL     1       4.051   2.083  17.738  0.00  0.00    +0.000 OA
ENDROOT
BRANCH   1  13
ATOM      8  C   UNL     1       6.237   4.847  17.178  0.00  0.00    +0.000 A 
ATOM      9  C   UNL     1       7.314   4.967  16.286  0.00  0.00    +0.000 A 
ATOM     10  C   UNL     1       7.128   4.741  14.921  0.00  0.00    +0.000 A 
ATOM     11  C   UNL     1       5.872   4.373  14.445  0.00  0.00    +0.000 A 
ATOM     12  C   UNL     1       4.797   4.228  15.327  0.00  0.00    +0.000 A 
ATOM     13  C   UNL     1       4.960   4.487  16.697  0.00  0.00    +0.000 A 
BRANCH   8  15
ATOM     14  N   UNL     1       6.724   5.160  19.710  0.00  0.00    +0.000 NA
ATOM     15  C   UNL     1       6.503   4.995  18.584  0.00  0.00    +0.000 C 
ENDBRANCH   8  15
ENDBRANCH   1  13
BRANCH   4  16
ATOM     16  C   UNL     1       2.284   4.363  20.810  0.00  0.00    +0.000 C 
BRANCH  16  17
ATOM     17  C   UNL     1       2.265   3.027  21.558  0.00  0.00    +0.000 C 
ATOM     18  N   UNL     1       1.050   2.636  22.046  0.00  0.00    +0.000 N 
ATOM     19  O   UNL     1       3.266   2.335  21.720  0.00  0.00    +0.000 OA
ATOM     20  H   UNL     1       0.282   3.294  22.105  0.00  0.00    +0.000 HD
ATOM     21  H   UNL     1       1.014   1.797  22.607  0.00  0.00    +0.000 HD
ENDBRANCH  16  17
ENDBRANCH   4  16
TORSDOF 4
ENDMDL
MODEL 8
REMARK VINA RESULT:      -6.4      1.664      2.321
REMARK  Name = 
REMARK  4 active torsions:
REMARK  status: ('A' for Active; 'I' for Inactive)
REMARK    1  A    between atoms: C_2  and  C_3
REMARK    2  A    between atoms: C_8  and  N_9
REMARK    3  A    between atoms: N_12  and  C_13
REMARK    4  A    between atoms: C_13  and  C_14
REMARK                            x       y       z     vdW  Elec       q    Type
REMARK                         _______ _______ _______ _____ _____    ______ ____
ROOT
ATOM      1  N   UNL     1       3.847   4.963  18.707  0.00  0.00    +0.000 N 
ATOM      2  C   UNL     1       3.251   5.915  17.776  0.00  0.00    +0.000 C 
ATOM      3  C   UNL     1       4.257   7.004  17.387  0.00  0.00    +0.000 C 
ATOM      4  N   UNL     1       5.509   6.456  16.837  0.00  0.00    +0.000 NA
ATOM      5  C   UNL     1       6.130   5.551  17.835  0.00  0.00    +0.000 C 
ATOM      6  C   UNL     1       5.191   4.593  18.590  0.00  0.00    +0.000 C 
ATOM      7  O   UNL     1       5.652   3.585  19.129  0.00  0.00    +0.000 OA
ENDROOT
BRANCH   1  13
ATOM      8  C   UNL     1       2.228   3.128  19.069  0.00  0.00    +0.000 A 
ATOM      9  C   UNL     1       1.374   2.421  19.929  0.00  0.00    +0.000 A 
ATOM     10  C   UNL     1       1.262   2.787  21.271  0.00  0.00    +0.000 A 
ATOM     11  C   UNL     1       2.019   3.847  21.765  0.00  0.00    +0.000 A 
ATOM     12  C   UNL     1       2.890   4.545  20.923  0.00  0.00    +0.000 A 
ATOM     13  C   UNL     1       2.987   4.212  19.563  0.00  0.00    +0.000 A 
BRANCH   8  15
ATOM     14  N   UNL     1       2.514   2.224  16.651  0.00  0.00    +0.000 NA
ATOM     15  C   UNL     1       2.379   2.650  17.721  0.00  0.00    +0.000 C 
ENDBRANCH   8  15
ENDBRANCH   1  13
BRANCH   4  16
ATOM     16  C   UNL     1       5.327   5.767  15.540  0.00  0.00    +0.000 C 
BRANCH  16  17
ATOM     17  C   UNL     1       6.590   5.000  15.137  0.00  0.00    +0.000 C 
ATOM     18  N   UNL     1       6.428   3.660  14.925  0.00  0.00    +0.000 N 
ATOM     19  O   UNL     1       7.687   5.536  15.006  0.00  0.00    +0.000 OA
ATOM     20  H   UNL     1       5.591   3.185  15.240  0.00  0.00    +0.000 HD
ATOM     21  H   UNL     1       7.253   3.110  14.730  0.00  0.00    +0.000 HD
ENDBRANCH  16  17
ENDBRANCH   4  16
TORSDOF 4
ENDMDL
MODEL 9
REMARK VINA RESULT:      -6.3      2.446      3.564
REMARK  Name = 
REMARK  4 active torsions:
REMARK  status: ('A' for Active; 'I' for Inactive)
REMARK    1  A    between atoms: C_2  and  C_3
REMARK    2  A    between atoms: C_8  and  N_9
REMARK    3  A    between atoms: N_12  and  C_13
REMARK    4  A    between atoms: C_13  and  C_14
REMARK                            x       y       z     vdW  Elec       q    Type
REMARK                         _______ _______ _______ _____ _____    ______ ____
ROOT
ATOM      1  N   UNL     1       4.003   4.403  17.833  0.00  0.00    +0.000 N 
ATOM      2  C   UNL     1       4.914   3.719  16.923  0.00  0.00    +0.000 C 
ATOM      3  C   UNL     1       5.731   4.725  16.106  0.00  0.00    +0.000 C 
ATOM      4  N   UNL     1       6.464   5.686  16.948  0.00  0.00    +0.000 NA
ATOM      5  C   UNL     1       5.503   6.420  17.808  0.00  0.00    +0.000 C 
ATOM      6  C   UNL     1       4.379   5.596  18.460  0.00  0.00    +0.000 C 
ATOM      7  O   UNL     1       3.796   6.038  19.452  0.00  0.00    +0.000 OA
ENDROOT
BRANCH   1  13
ATOM      8  C   UNL     1       2.929   2.667  19.230  0.00  0.00    +0.000 A 
ATOM      9  C   UNL     1       1.770   1.990  19.640  0.00  0.00    +0.000 A 
ATOM     10  C   UNL     1       0.526   2.338  19.114  0.00  0.00    +0.000 A 
ATOM     11  C   UNL     1       0.430   3.377  18.191  0.00  0.00    +0.000 A 
ATOM     12  C   UNL     1       1.575   4.074  17.792  0.00  0.00    +0.000 A 
ATOM     13  C   UNL     1       2.838   3.712  18.285  0.00  0.00    +0.000 A 
BRANCH   8  15
ATOM     14  N   UNL     1       5.152   2.030  20.413  0.00  0.00    +0.000 NA
ATOM     15  C   UNL     1       4.172   2.335  19.875  0.00  0.00    +0.000 C 
ENDBRANCH   8  15
ENDBRANCH   1  13
BRANCH   4  16
ATOM     16  C   UNL     1       7.529   5.058  17.763  0.00  0.00    +0.000 C 
BRANCH  16  17
ATOM     17  C   UNL     1       8.002   5.996  18.876  0.00  0.00    +0.000 C 
ATOM     18  N   UNL     1       8.061   5.451  20.128  0.00  0.00    +0.000 N 
ATOM     19  O   UNL     1       8.315   7.167  18.678  0.00  0.00    +0.000 OA
ATOM     20  H   UNL     1       7.604   4.570  20.328  0.00  0.00    +0.000 HD
ATOM     21  H   UNL     1       8.298   6.061  20.898  0.00  0.00    +0.000 HD
ENDBRANCH  16  17
ENDBRANCH   4  16
TORSDOF 4
ENDMDL
