MODEL 1
REMARK VINA RESULT:      -6.1      0.000      0.000
REMARK  Name = 
REMARK  0 active torsions:
REMARK  status: ('A' for Active; 'I' for Inactive)
REMARK                            x       y       z     vdW  Elec       q    Type
REMARK                         _______ _______ _______ _____ _____    ______ ____
ROOT
ATOM      1  N   UNL     1       7.538   4.836  18.590  0.00  0.00    +0.000 N 
ATOM      2  C   UNL     1       6.238   4.345  18.314  0.00  0.00    +0.000 C 
ATOM      3  N   UNL     1       5.465   4.016  19.293  0.00  0.00    +0.000 NA
ATOM      4  C   UNL     1       4.148   3.537  19.091  0.00  0.00    +0.000 A 
ATOM      5  C   UNL     1       3.356   3.204  20.197  0.00  0.00    +0.000 A 
ATOM      6  C   UNL     1       2.053   2.734  20.010  0.00  0.00    +0.000 A 
ATOM      7  C   UNL     1       1.536   2.594  18.719  0.00  0.00    +0.000 A 
ATOM      8  F   UNL     1       0.272   2.138  18.540  0.00  0.00    +0.000 F 
ATOM      9  C   UNL     1       2.322   2.925  17.611  0.00  0.00    +0.000 A 
ATOM     10  C   UNL     1       3.632   3.399  17.792  0.00  0.00    +0.000 A 
ATOM     11  C   UNL     1       4.472   3.760  16.596  0.00  0.00    +0.000 C 
ATOM     12  N   UNL     1       5.792   4.238  16.963  0.00  0.00    +0.000 N 
ATOM     13  H   UNL     1       7.866   4.931  19.562  0.00  0.00    +0.000 HD
ATOM     14  H   UNL     1       8.162   5.121  17.821  0.00  0.00    +0.000 HD
ATOM     15  H   UNL     1       6.434   4.515  16.205  0.00  0.00    +0.000 HD
ENDROOT
TORSDOF 0
ENDMDL
MODEL 2
REMARK VINA RESULT:      -6.0      1.907      1.985
REMARK  Name = 
REMARK  0 active torsions:
REMARK  status: ('A' for Active; 'I' for Inactive)
REMARK                            x       y       z     vdW  Elec       q    Type
REMARK                         _______ _______ _______ _____ _____    ______ ____
ROOT
ATOM      1  N   UNL     1       8.286   5.477  19.730  0.00  0.00    +0.000 N 
ATOM      2  C   UNL     1       7.072   5.144  19.080  0.00  0.00    +0.000 C 
ATOM      3  N   UNL     1       5.952   5.497  19.612  0.00  0.00    +0.000 NA
ATOM      4  C   UNL     1       4.703   5.215  19.007  0.00  0.00    +0.000 A 
ATOM      5  C   UNL     1       3.522   5.633  19.632  0.00  0.00    +0.000 A 
ATOM      6  C   UNL     1       2.283   5.364  19.043  0.00  0.00    +0.000 A 
ATOM      7  C   UNL     1       2.219   4.675  17.828  0.00  0.00    +0.000 A 
ATOM      8  F   UNL     1       1.017   4.414  17.259  0.00  0.00    +0.000 F 
ATOM      9  C   UNL     1       3.395   4.255  17.200  0.00  0.00    +0.000 A 
ATOM     10  C   UNL     1       4.643   4.524  17.786  0.00  0.00    +0.000 A 
ATOM     11  C   UNL     1       5.907   4.075  17.102  0.00  0.00    +0.000 C 
ATOM     12  N   UNL     1       7.102   4.441  17.839  0.00  0.00    +0.000 N 
ATOM     13  H   UNL     1       8.278   5.998  20.620  0.00  0.00    +0.000 HD
ATOM     14  H   UNL     1       9.191   5.220  19.310  0.00  0.00    +0.000 HD
ATOM     15  H   UNL     1       8.017   4.179  17.439  0.00  0.00    +0.000 HD
ENDROOT
TORSDOF 0
ENDMDL
MODEL 3
REMARK VINA RESULT:      -6.0      1.022      1.022
REMARK  Name = 
REMARK  0 active torsions:
REMARK  status: ('A' for Active; 'I' for Inactive)
REMARK                            x       y       z     vdW  Elec       q    Type
REMARK                         _______ _______ _______ _____ _____    ______ ____
ROOT
ATOM      1  N   UNL     1       7.449   5.301  18.943  0.00  0.00    +0.000 N 
ATOM      2  C   UNL     1       6.096   4.980  18.669  0.00  0.00    +0.000 C 
ATOM      3  N   UNL     1       5.556   3.964  19.249  0.00  0.00    +0.000 NA
ATOM      4  C   UNL     1       4.205   3.597  19.036  0.00  0.00    +0.000 A 
ATOM      5  C   UNL     1       3.675   2.487  19.704  0.00  0.00    +0.000 A 
ATOM      6  C   UNL     1       2.342   2.118  19.505  0.00  0.00    +0.000 A 
ATOM      7  C   UNL     1       1.532   2.857  18.637  0.00  0.00    +0.000 A 
ATOM      8  F   UNL     1       0.239   2.498  18.445  0.00  0.00    +0.000 F 
ATOM      9  C   UNL     1       2.056   3.967  17.968  0.00  0.00    +0.000 A 
ATOM     10  C   UNL     1       3.394   4.344  18.165  0.00  0.00    +0.000 A 
ATOM     11  C   UNL     1       3.951   5.544  17.447  0.00  0.00    +0.000 C 
ATOM     12  N   UNL     1       5.343   5.794  17.770  0.00  0.00    +0.000 N 
ATOM     13  H   UNL     1       7.999   4.730  19.601  0.00  0.00    +0.000 HD
ATOM     14  H   UNL     1       7.891   6.121  18.503  0.00  0.00    +0.000 HD
ATOM     15  H   UNL     1       5.805   6.603  17.327  0.00  0.00    +0.000 HD
ENDROOT
TORSDOF 0
ENDMDL
MODEL 4
REMARK VINA RESULT:      -6.0      1.546      2.584
REMARK  Name = 
REMARK  0 active torsions:
REMARK  status: ('A' for Active; 'I' for Inactive)
REMARK                            x       y       z     vdW  Elec       q    Type
REMARK                         _______ _______ _______ _____ _____    ______ ____
ROOT
ATOM      1  N   UNL     1       5.124   4.223  15.650  0.00  0.00    +0.000 N 
ATOM      2  C   UNL     1       4.584   3.950  16.931  0.00  0.00    +0.000 C 
ATOM      3  N   UNL     1       3.317   3.742  17.053  0.00  0.00    +0.000 NA
ATOM      4  C   UNL     1       2.713   3.444  18.299  0.00  0.00    +0.000 A 
ATOM      5  C   UNL     1       1.332   3.221  18.362  0.00  0.00    +0.000 A 
ATOM      6  C   UNL     1       0.726   2.923  19.585  0.00  0.00    +0.000 A 
ATOM      7  C   UNL     1       1.495   2.847  20.750  0.00  0.00    +0.000 A 
ATOM      8  F   UNL     1       0.905   2.558  21.936  0.00  0.00    +0.000 F 
ATOM      9  C   UNL     1       2.875   3.070  20.693  0.00  0.00    +0.000 A 
ATOM     10  C   UNL     1       3.490   3.368  19.466  0.00  0.00    +0.000 A 
ATOM     11  C   UNL     1       4.977   3.600  19.409  0.00  0.00    +0.000 C 
ATOM     12  N   UNL     1       5.447   3.889  18.066  0.00  0.00    +0.000 N 
ATOM     13  H   UNL     1       4.513   4.255  14.821  0.00  0.00    +0.000 HD
ATOM     14  H   UNL     1       6.136   4.373  15.531  0.00  0.00    +0.000 HD
ATOM     15  H   UNL     1       6.456   4.055  17.932  0.00  0.00    +0.000 HD
ENDROOT
TORSDOF 0
ENDMDL
MODEL 5
REMARK VINA RESULT:      -5.9      2.046      2.709
REMARK  Name = 
REMARK  0 active torsions:
REMARK  status: ('A' for Active; 'I' for Inactive)
REMARK                            x       y       z     vdW  Elec       q    Type
REMARK                         _______ _______ _______ _____ _____    ______ ____
ROOT
ATOM      1  N   UNL     1       7.392   5.210  14.874  0.00  0.00    +0.000 N 
ATOM      2  C   UNL     1       6.243   5.317  15.695  0.00  0.00    +0.000 C 
ATOM      3  N   UNL     1       5.632   4.245  16.070  0.00  0.00    +0.000 NA
ATOM      4  C   UNL     1       4.489   4.277  16.906  0.00  0.00    +0.000 A 
ATOM      5  C   UNL     1       3.876   3.076  17.285  0.00  0.00    +0.000 A 
ATOM      6  C   UNL     1       2.750   3.095  18.113  0.00  0.00    +0.000 A 
ATOM      7  C   UNL     1       2.231   4.312  18.565  0.00  0.00    +0.000 A 
ATOM      8  F   UNL     1       1.139   4.328  19.368  0.00  0.00    +0.000 F 
ATOM      9  C   UNL     1       2.839   5.514  18.190  0.00  0.00    +0.000 A 
ATOM     10  C   UNL     1       3.972   5.502  17.360  0.00  0.00    +0.000 A 
ATOM     11  C   UNL     1       4.627   6.798  16.964  0.00  0.00    +0.000 C 
ATOM     12  N   UNL     1       5.785   6.603  16.112  0.00  0.00    +0.000 N 
ATOM     13  H   UNL     1       7.740   4.287  14.578  0.00  0.00    +0.000 HD
ATOM     14  H   UNL     1       7.904   6.055  14.580  0.00  0.00    +0.000 HD
ATOM     15  H   UNL     1       6.302   7.439  15.797  0.00  0.00    +0.000 HD
ENDROOT
TORSDOF 0
ENDMDL
MODEL 6
REMARK VINA RESULT:      -5.8      2.189      2.754
REMARK  Name = 
REMARK  0 active torsions:
REMARK  status: ('A' for Active; 'I' for Inactive)
REMARK                            x       y       z     vdW  Elec       q    Type
REMARK                         _______ _______ _______ _____ _____    ______ ____
ROOT
ATOM      1  N   UNL     1       7.676   8.006  17.216  0.00  0.00    +0.000 N 
ATOM      2  C   UNL     1       6.858   6.850  17.162  0.00  0.00    +0.000 C 
ATOM      3  N   UNL     1       5.625   6.929  17.529  0.00  0.00    +0.000 NA
ATOM      4  C   UNL     1       4.747   5.819  17.483  0.00  0.00    +0.000 A 
ATOM      5  C   UNL     1       3.416   5.973  17.889  0.00  0.00    +0.000 A 
ATOM      6  C   UNL     1       2.539   4.886  17.844  0.00  0.00    +0.000 A 
ATOM      7  C   UNL     1       2.987   3.641  17.394  0.00  0.00    +0.000 A 
ATOM      8  F   UNL     1       2.135   2.587  17.352  0.00  0.00    +0.000 F 
ATOM      9  C   UNL     1       4.316   3.481  16.988  0.00  0.00    +0.000 A 
ATOM     10  C   UNL     1       5.201   4.570  17.029  0.00  0.00    +0.000 A 
ATOM     11  C   UNL     1       6.629   4.395  16.584  0.00  0.00    +0.000 C 
ATOM     12  N   UNL     1       7.401   5.619  16.685  0.00  0.00    +0.000 N 
ATOM     13  H   UNL     1       7.292   8.903  17.544  0.00  0.00    +0.000 HD
ATOM     14  H   UNL     1       8.658   7.965  16.908  0.00  0.00    +0.000 HD
ATOM     15  H   UNL     1       8.391   5.593  16.394  0.00  0.00    +0.000 HD
ENDROOT
TORSDOF 0
ENDMDL
MODEL 7
REMARK VINA RESULT:      -5.8      1.994      2.486
REMARK  Name = 
REMARK  0 active torsions:
REMARK  status: ('A' for Active; 'I' for Inactive)
REMARK                            x       y       z     vdW  Elec       q    Type
REMARK                         _______ _______ _______ _____ _____    ______ ____
ROOT
ATOM      1  N   UNL     1       6.153   6.906  16.548  0.00  0.00    +0.000 N 
ATOM      2  C   UNL     1       4.967   6.290  17.020  0.00  0.00    +0.000 C 
ATOM      3  N   UNL     1       4.851   5.007  16.955  0.00  0.00    +0.000 NA
ATOM      4  C   UNL     1       3.703   4.324  17.426  0.00  0.00    +0.000 A 
ATOM      5  C   UNL     1       3.643   2.928  17.335  0.00  0.00    +0.000 A 
ATOM      6  C   UNL     1       2.518   2.243  17.800  0.00  0.00    +0.000 A 
ATOM      7  C   UNL     1       1.447   2.949  18.357  0.00  0.00    +0.000 A 
ATOM      8  F   UNL     1       0.356   2.282  18.808  0.00  0.00    +0.000 F 
ATOM      9  C   UNL     1       1.502   4.343  18.451  0.00  0.00    +0.000 A 
ATOM     10  C   UNL     1       2.631   5.037  17.987  0.00  0.00    +0.000 A 
ATOM     11  C   UNL     1       2.688   6.538  18.097  0.00  0.00    +0.000 C 
ATOM     12  N   UNL     1       3.926   7.090  17.578  0.00  0.00    +0.000 N 
ATOM     13  H   UNL     1       6.917   6.337  16.156  0.00  0.00    +0.000 HD
ATOM     14  H   UNL     1       6.270   7.927  16.609  0.00  0.00    +0.000 HD
ATOM     15  H   UNL     1       4.054   8.113  17.619  0.00  0.00    +0.000 HD
ENDROOT
TORSDOF 0
ENDMDL
MODEL 8
REMARK VINA RESULT:      -5.8      1.490      2.410
REMARK  Name = 
REMARK  0 active torsions:
REMARK  status: ('A' for Active; 'I' for Inactive)
REMARK                            x       y       z     vdW  Elec       q    Type
REMARK                         _______ _______ _______ _____ _____    ______ ____
ROOT
ATOM      1  N   UNL     1       7.657   4.485  16.184  0.00  0.00    +0.000 N 
ATOM      2  C   UNL     1       6.556   4.590  17.070  0.00  0.00    +0.000 C 
ATOM      3  N   UNL     1       5.407   4.128  16.709  0.00  0.00    +0.000 NA
ATOM      4  C   UNL     1       4.269   4.181  17.551  0.00  0.00    +0.000 A 
ATOM      5  C   UNL     1       3.052   3.654  17.103  0.00  0.00    +0.000 A 
ATOM      6  C   UNL     1       1.924   3.698  17.927  0.00  0.00    +0.000 A 
ATOM      7  C   UNL     1       2.006   4.269  19.201  0.00  0.00    +0.000 A 
ATOM      8  F   UNL     1       0.911   4.310  19.998  0.00  0.00    +0.000 F 
ATOM      9  C   UNL     1       3.219   4.796  19.653  0.00  0.00    +0.000 A 
ATOM     10  C   UNL     1       4.357   4.754  18.831  0.00  0.00    +0.000 A 
ATOM     11  C   UNL     1       5.663   5.318  19.325  0.00  0.00    +0.000 C 
ATOM     12  N   UNL     1       6.733   5.186  18.354  0.00  0.00    +0.000 N 
ATOM     13  H   UNL     1       7.544   4.044  15.260  0.00  0.00    +0.000 HD
ATOM     14  H   UNL     1       8.586   4.831  16.463  0.00  0.00    +0.000 HD
ATOM     15  H   UNL     1       7.667   5.540  18.612  0.00  0.00    +0.000 HD
ENDROOT
TORSDOF 0
ENDMDL
MODEL 9
REMARK VINA RESULT:      -5.8      3.395      4.595
REMARK  Name = 
REMARK  0 active torsions:
REMARK  status: ('A' for Active; 'I' for Inactive)
REMARK                            x       y       z     vdW  Elec       q    Type
REMARK                         _______ _______ _______ _____ _____    ______ ____
ROOT
ATOM      1  N   UNL     1       0.341   2.911  20.096  0.00  0.00    +0.000 N 
ATOM      2  C   UNL     1       1.404   3.165  19.194  0.00  0.00    +0.000 C 
ATOM      3  N   UNL     1       1.801   4.378  19.010  0.00  0.00    +0.000 NA
ATOM      4  C   UNL     1       2.869   4.703  18.138  0.00  0.00    +0.000 A 
ATOM      5  C   UNL     1       3.258   6.039  17.988  0.00  0.00    +0.000 A 
ATOM      6  C   UNL     1       4.313   6.371  17.134  0.00  0.00    +0.000 A 
ATOM      7  C   UNL     1       4.984   5.369  16.426  0.00  0.00    +0.000 A 
ATOM      8  F   UNL     1       6.008   5.693  15.598  0.00  0.00    +0.000 F 
ATOM      9  C   UNL     1       4.600   4.033  16.572  0.00  0.00    +0.000 A 
ATOM     10  C   UNL     1       3.542   3.693  17.430  0.00  0.00    +0.000 A 
ATOM     11  C   UNL     1       3.137   2.251  17.589  0.00  0.00    +0.000 C 
ATOM     12  N   UNL     1       2.033   2.079  18.516  0.00  0.00    +0.000 N 
ATOM     13  H   UNL     1      -0.112   3.686  20.603  0.00  0.00    +0.000 HD
ATOM     14  H   UNL     1       0.023   1.947  20.270  0.00  0.00    +0.000 HD
ATOM     15  H   UNL     1       1.694   1.121  18.691  0.00  0.00    +0.000 HD
ENDROOT
TORSDOF 0
ENDMDL
