MODEL 1
REMARK VINA RESULT:      -6.6      0.000      0.000
REMARK  Name = 
REMARK  7 active torsions:
REMARK  status: ('A' for Active; 'I' for Inactive)
REMARK    1  A    between atoms: C_1  and  C_2
REMARK    2  A    between atoms: C_2  and  C_3
REMARK    3  A    between atoms: C_3  and  C_4
REMARK    4  A    between atoms: C_4  and  C_5
REMARK    5  A    between atoms: C_4  and  C_6
REMARK    6  A    between atoms: C_4  and  N_7
REMARK    7  A    between atoms: C_11  and  C_12
REMARK                            x       y       z     vdW  Elec       q    Type
REMARK                         _______ _______ _______ _____ _____    ______ ____
ROOT
ATOM      1  N   UNL     1      -3.943  11.347  18.156  0.00  0.00    +0.000 N 
ATOM      2  C   UNL     1      -3.691  10.217  17.261  0.00  0.00    +0.000 C 
ATOM      3  C   UNL     1      -2.227   9.800  17.436  0.00  0.00    +0.000 C 
ATOM      4  C   UNL     1      -1.777  10.689  18.537  0.00  0.00    +0.000 A 
ATOM      5  C   UNL     1      -0.584  10.771  19.211  0.00  0.00    +0.000 A 
ATOM      6  N   UNL     1      -0.436  11.649  20.229  0.00  0.00    +0.000 NA
ATOM      7  C   UNL     1      -1.483  12.423  20.579  0.00  0.00    +0.000 A 
ATOM      8  N   UNL     1      -1.351  13.245  21.672  0.00  0.00    +0.000 N 
ATOM      9  C   UNL     1      -2.473  14.044  22.167  0.00  0.00    +0.000 C 
ATOM     10  C   UNL     1      -2.208  15.542  21.958  0.00  0.00    +0.000 C 
ATOM     11  O   UNL     1      -0.938  15.938  22.506  0.00  0.00    +0.000 OA
ATOM     12  C   UNL     1       0.124  15.198  21.879  0.00  0.00    +0.000 C 
ATOM     13  C   UNL     1      -0.028  13.685  22.109  0.00  0.00    +0.000 C 
ATOM     14  N   UNL     1      -2.660  12.380  19.942  0.00  0.00    +0.000 NA
ATOM     15  C   UNL     1      -2.797  11.521  18.934  0.00  0.00    +0.000 A 
ENDROOT
BRANCH   5  16
ATOM     16  C   UNL     1       0.558   9.884  18.971  0.00  0.00    +0.000 A 
ATOM     17  C   UNL     1       1.302   9.856  17.807  0.00  0.00    +0.000 A 
ATOM     18  N   UNL     1       2.257   8.946  17.513  0.00  0.00    +0.000 NA
ATOM     19  C   UNL     1       2.505   8.029  18.449  0.00  0.00    +0.000 A 
ATOM     20  N   UNL     1       3.417   7.047  18.139  0.00  0.00    +0.000 N 
ATOM     21  N   UNL     1       1.938   8.008  19.656  0.00  0.00    +0.000 NA
ATOM     22  C   UNL     1       0.978   8.937  19.889  0.00  0.00    +0.000 A 
ATOM     23  H   UNL     1       4.016   7.363  17.390  0.00  0.00    +0.000 HD
ATOM     24  H   UNL     1       3.849   6.699  18.981  0.00  0.00    +0.000 HD
ENDBRANCH   5  16
BRANCH   1  25
ATOM     25  C   UNL     1      -5.287  11.906  18.372  0.00  0.00    +0.000 C 
ATOM     26  C   UNL     1      -5.362  12.938  19.512  0.00  0.00    +0.000 C 
ATOM     27  C   UNL     1      -6.252  10.760  18.748  0.00  0.00    +0.000 C 
BRANCH  25  28
ATOM     28  C   UNL     1      -5.772  12.572  17.052  0.00  0.00    +0.000 C 
BRANCH  28  30
ATOM     29  C   UNL     1      -7.026  14.700  16.498  0.00  0.00    +0.000 C 
ATOM     30  C   UNL     1      -7.093  13.346  17.186  0.00  0.00    +0.000 C 
ENDBRANCH  28  30
ENDBRANCH  25  28
ENDBRANCH   1  25
TORSDOF 4
ENDMDL
MODEL 2
REMARK VINA RESULT:      -6.6      0.981      1.833
REMARK  Name = 
REMARK  7 active torsions:
REMARK  status: ('A' for Active; 'I' for Inactive)
REMARK    1  A    between atoms: C_1  and  C_2
REMARK    2  A    between atoms: C_2  and  C_3
REMARK    3  A    between atoms: C_3  and  C_4
REMARK    4  A    between atoms: C_4  and  C_5
REMARK    5  A    between atoms: C_4  and  C_6
REMARK    6  A    between atoms: C_4  and  N_7
REMARK    7  A    between atoms: C_11  and  C_12
REMARK                            x       y       z     vdW  Elec       q    Type
REMARK                         _______ _______ _______ _____ _____    ______ ____
ROOT
ATOM      1  N   UNL     1      -4.341  11.779  18.013  0.00  0.00    +0.000 N 
ATOM      2  C   UNL     1      -3.943  10.865  16.941  0.00  0.00    +0.000 C 
ATOM      3  C   UNL     1      -2.500  10.425  17.215  0.00  0.00    +0.000 C 
ATOM      4  C   UNL     1      -2.222  11.061  18.528  0.00  0.00    +0.000 A 
ATOM      5  C   UNL     1      -1.128  11.002  19.354  0.00  0.00    +0.000 A 
ATOM      6  N   UNL     1      -1.138  11.645  20.545  0.00  0.00    +0.000 NA
ATOM      7  C   UNL     1      -2.245  12.323  20.909  0.00  0.00    +0.000 A 
ATOM      8  N   UNL     1      -2.279  12.896  22.157  0.00  0.00    +0.000 N 
ATOM      9  C   UNL     1      -3.478  13.567  22.658  0.00  0.00    +0.000 C 
ATOM     10  C   UNL     1      -3.235  15.077  22.804  0.00  0.00    +0.000 C 
ATOM     11  O   UNL     1      -2.058  15.351  23.585  0.00  0.00    +0.000 OA
ATOM     12  C   UNL     1      -0.903  14.764  22.961  0.00  0.00    +0.000 C 
ATOM     13  C   UNL     1      -1.036  13.237  22.847  0.00  0.00    +0.000 C 
ATOM     14  N   UNL     1      -3.328  12.413  20.128  0.00  0.00    +0.000 NA
ATOM     15  C   UNL     1      -3.310  11.787  18.953  0.00  0.00    +0.000 A 
ENDROOT
BRANCH   5  16
ATOM     16  C   UNL     1       0.063  10.190  19.084  0.00  0.00    +0.000 A 
ATOM     17  C   UNL     1       0.763  10.191  17.894  0.00  0.00    +0.000 A 
ATOM     18  N   UNL     1       1.766   9.342  17.578  0.00  0.00    +0.000 NA
ATOM     19  C   UNL     1       2.111   8.462  18.519  0.00  0.00    +0.000 A 
ATOM     20  N   UNL     1       3.075   7.538  18.190  0.00  0.00    +0.000 N 
ATOM     21  N   UNL     1       1.592   8.425  19.747  0.00  0.00    +0.000 NA
ATOM     22  C   UNL     1       0.579   9.292  20.001  0.00  0.00    +0.000 A 
ATOM     23  H   UNL     1       3.623   7.880  17.414  0.00  0.00    +0.000 HD
ATOM     24  H   UNL     1       3.562   7.237  19.021  0.00  0.00    +0.000 HD
ENDBRANCH   5  16
BRANCH   1  25
ATOM     25  C   UNL     1      -5.719  12.274  18.163  0.00  0.00    +0.000 C 
ATOM     26  C   UNL     1      -6.245  13.045  16.939  0.00  0.00    +0.000 C 
ATOM     27  C   UNL     1      -5.773  13.250  19.359  0.00  0.00    +0.000 C 
BRANCH  25  28
ATOM     28  C   UNL     1      -6.659  11.066  18.445  0.00  0.00    +0.000 C 
BRANCH  28  30
ATOM     29  C   UNL     1      -7.395   9.375  20.179  0.00  0.00    +0.000 C 
ATOM     30  C   UNL     1      -6.902  10.793  19.938  0.00  0.00    +0.000 C 
ENDBRANCH  28  30
ENDBRANCH  25  28
ENDBRANCH   1  25
TORSDOF 4
ENDMDL
MODEL 3
REMARK VINA RESULT:      -6.5      2.928      4.712
REMARK  Name = 
REMARK  7 active torsions:
REMARK  status: ('A' for Active; 'I' for Inactive)
REMARK    1  A    between atoms: C_1  and  C_2
REMARK    2  A    between atoms: C_2  and  C_3
REMARK    3  A    between atoms: C_3  and  C_4
REMARK    4  A    between atoms: C_4  and  C_5
REMARK    5  A    between atoms: C_4  and  C_6
REMARK    6  A    between atoms: C_4  and  N_7
REMARK    7  A    between atoms: C_11  and  C_12
REMARK                            x       y       z     vdW  Elec       q    Type
REMARK                         _______ _______ _______ _____ _____    ______ ____
ROOT
ATOM      1  N   UNL     1      -6.033  12.907  21.930  0.00  0.00    +0.000 N 
ATOM      2  C   UNL     1      -6.973  12.304  20.982  0.00  0.00    +0.000 C 
ATOM      3  C   UNL     1      -6.183  11.909  19.729  0.00  0.00    +0.000 C 
ATOM      4  C   UNL     1      -4.787  12.232  20.124  0.00  0.00    +0.000 A 
ATOM      5  C   UNL     1      -3.592  12.051  19.473  0.00  0.00    +0.000 A 
ATOM      6  N   UNL     1      -2.430  12.390  20.076  0.00  0.00    +0.000 NA
ATOM      7  C   UNL     1      -2.468  12.886  21.329  0.00  0.00    +0.000 A 
ATOM      8  N   UNL     1      -1.278  13.141  21.967  0.00  0.00    +0.000 N 
ATOM      9  C   UNL     1      -1.237  13.592  23.358  0.00  0.00    +0.000 C 
ATOM     10  C   UNL     1      -0.721  15.036  23.447  0.00  0.00    +0.000 C 
ATOM     11  O   UNL     1       0.531  15.195  22.757  0.00  0.00    +0.000 OA
ATOM     12  C   UNL     1       0.379  14.852  21.369  0.00  0.00    +0.000 C 
ATOM     13  C   UNL     1      -0.064  13.391  21.192  0.00  0.00    +0.000 C 
ATOM     14  N   UNL     1      -3.612  13.086  21.995  0.00  0.00    +0.000 NA
ATOM     15  C   UNL     1      -4.754  12.760  21.393  0.00  0.00    +0.000 A 
ENDROOT
BRANCH   5  16
ATOM     16  C   UNL     1      -3.460  11.409  18.162  0.00  0.00    +0.000 A 
ATOM     17  C   UNL     1      -2.440  10.548  17.806  0.00  0.00    +0.000 A 
ATOM     18  N   UNL     1      -2.222  10.068  16.562  0.00  0.00    +0.000 NA
ATOM     19  C   UNL     1      -3.092  10.446  15.624  0.00  0.00    +0.000 A 
ATOM     20  N   UNL     1      -2.844  10.034  14.335  0.00  0.00    +0.000 N 
ATOM     21  N   UNL     1      -4.179  11.183  15.854  0.00  0.00    +0.000 NA
ATOM     22  C   UNL     1      -4.338  11.647  17.119  0.00  0.00    +0.000 A 
ATOM     23  H   UNL     1      -2.240   9.224  14.348  0.00  0.00    +0.000 HD
ATOM     24  H   UNL     1      -3.709   9.976  13.819  0.00  0.00    +0.000 HD
ENDBRANCH   5  16
BRANCH   1  25
ATOM     25  C   UNL     1      -6.412  13.259  23.308  0.00  0.00    +0.000 C 
ATOM     26  C   UNL     1      -5.608  12.513  24.388  0.00  0.00    +0.000 C 
ATOM     27  C   UNL     1      -7.896  12.896  23.529  0.00  0.00    +0.000 C 
BRANCH  25  28
ATOM     28  C   UNL     1      -6.224  14.792  23.504  0.00  0.00    +0.000 C 
BRANCH  28  30
ATOM     29  C   UNL     1      -7.195  17.115  23.241  0.00  0.00    +0.000 C 
ATOM     30  C   UNL     1      -7.330  15.648  22.865  0.00  0.00    +0.000 C 
ENDBRANCH  28  30
ENDBRANCH  25  28
ENDBRANCH   1  25
TORSDOF 4
ENDMDL
MODEL 4
REMARK VINA RESULT:      -6.4      3.324      6.184
REMARK  Name = 
REMARK  7 active torsions:
REMARK  status: ('A' for Active; 'I' for Inactive)
REMARK    1  A    between atoms: C_1  and  C_2
REMARK    2  A    between atoms: C_2  and  C_3
REMARK    3  A    between atoms: C_3  and  C_4
REMARK    4  A    between atoms: C_4  and  C_5
REMARK    5  A    between atoms: C_4  and  C_6
REMARK    6  A    between atoms: C_4  and  N_7
REMARK    7  A    between atoms: C_11  and  C_12
REMARK                            x       y       z     vdW  Elec       q    Type
REMARK                         _______ _______ _______ _____ _____    ______ ____
ROOT
ATOM      1  N   UNL     1       1.037  11.527  19.134  0.00  0.00    +0.000 N 
ATOM      2  C   UNL     1       2.206  11.931  18.351  0.00  0.00    +0.000 C 
ATOM      3  C   UNL     1       2.646  13.313  18.848  0.00  0.00    +0.000 C 
ATOM      4  C   UNL     1       1.724  13.544  19.990  0.00  0.00    +0.000 A 
ATOM      5  C   UNL     1       1.640  14.568  20.899  0.00  0.00    +0.000 A 
ATOM      6  N   UNL     1       0.726  14.522  21.896  0.00  0.00    +0.000 NA
ATOM      7  C   UNL     1      -0.082  13.446  21.988  0.00  0.00    +0.000 A 
ATOM      8  N   UNL     1      -0.944  13.366  23.055  0.00  0.00    +0.000 N 
ATOM      9  C   UNL     1      -1.783  12.188  23.272  0.00  0.00    +0.000 C 
ATOM     10  C   UNL     1      -3.267  12.534  23.074  0.00  0.00    +0.000 C 
ATOM     11  O   UNL     1      -3.658  13.670  23.866  0.00  0.00    +0.000 OA
ATOM     12  C   UNL     1      -2.872  14.818  23.505  0.00  0.00    +0.000 C 
ATOM     13  C   UNL     1      -1.373  14.578  23.749  0.00  0.00    +0.000 C 
ATOM     14  N   UNL     1      -0.038  12.431  21.116  0.00  0.00    +0.000 NA
ATOM     15  C   UNL     1       0.857  12.486  20.132  0.00  0.00    +0.000 A 
ENDROOT
BRANCH   5  16
ATOM     16  C   UNL     1       2.559  15.710  20.938  0.00  0.00    +0.000 A 
ATOM     17  C   UNL     1       2.506  16.793  20.082  0.00  0.00    +0.000 A 
ATOM     18  N   UNL     1       3.432  17.774  20.007  0.00  0.00    +0.000 NA
ATOM     19  C   UNL     1       4.454  17.686  20.858  0.00  0.00    +0.000 A 
ATOM     20  N   UNL     1       5.448  18.631  20.746  0.00  0.00    +0.000 N 
ATOM     21  N   UNL     1       4.570  16.756  21.806  0.00  0.00    +0.000 NA
ATOM     22  C   UNL     1       3.618  15.789  21.824  0.00  0.00    +0.000 A 
ATOM     23  H   UNL     1       5.088  19.447  20.273  0.00  0.00    +0.000 HD
ATOM     24  H   UNL     1       5.905  18.758  21.636  0.00  0.00    +0.000 HD
ENDBRANCH   5  16
BRANCH   1  25
ATOM     25  C   UNL     1       0.443  10.184  19.040  0.00  0.00    +0.000 C 
ATOM     26  C   UNL     1       0.681   9.304  20.281  0.00  0.00    +0.000 C 
ATOM     27  C   UNL     1       1.072   9.440  17.842  0.00  0.00    +0.000 C 
BRANCH  25  28
ATOM     28  C   UNL     1      -1.089  10.328  18.806  0.00  0.00    +0.000 C 
BRANCH  28  30
ATOM     29  C   UNL     1      -3.028   9.743  17.287  0.00  0.00    +0.000 C 
ATOM     30  C   UNL     1      -1.537  10.030  17.366  0.00  0.00    +0.000 C 
ENDBRANCH  28  30
ENDBRANCH  25  28
ENDBRANCH   1  25
TORSDOF 4
ENDMDL
MODEL 5
REMARK VINA RESULT:      -6.4      5.354     10.073
REMARK  Name = 
REMARK  7 active torsions:
REMARK  status: ('A' for Active; 'I' for Inactive)
REMARK    1  A    between atoms: C_1  and  C_2
REMARK    2  A    between atoms: C_2  and  C_3
REMARK    3  A    between atoms: C_3  and  C_4
REMARK    4  A    between atoms: C_4  and  C_5
REMARK    5  A    between atoms: C_4  and  C_6
REMARK    6  A    between atoms: C_4  and  N_7
REMARK    7  A    between atoms: C_11  and  C_12
REMARK                            x       y       z     vdW  Elec       q    Type
REMARK                         _______ _______ _______ _____ _____    ______ ____
ROOT
ATOM      1  N   UNL     1       2.520   4.151  20.415  0.00  0.00    +0.000 N 
ATOM      2  C   UNL     1       1.437   4.734  21.209  0.00  0.00    +0.000 C 
ATOM      3  C   UNL     1       1.302   6.206  20.803  0.00  0.00    +0.000 C 
ATOM      4  C   UNL     1       2.282   6.316  19.691  0.00  0.00    +0.000 A 
ATOM      5  C   UNL     1       2.597   7.359  18.856  0.00  0.00    +0.000 A 
ATOM      6  N   UNL     1       3.509   7.190  17.871  0.00  0.00    +0.000 NA
ATOM      7  C   UNL     1       4.083   5.979  17.715  0.00  0.00    +0.000 A 
ATOM      8  N   UNL     1       4.938   5.794  16.656  0.00  0.00    +0.000 N 
ATOM      9  C   UNL     1       5.525   4.485  16.369  0.00  0.00    +0.000 C 
ATOM     10  C   UNL     1       7.042   4.505  16.610  0.00  0.00    +0.000 C 
ATOM     11  O   UNL     1       7.677   5.584  15.903  0.00  0.00    +0.000 OA
ATOM     12  C   UNL     1       7.133   6.844  16.332  0.00  0.00    +0.000 C 
ATOM     13  C   UNL     1       5.624   6.934  16.053  0.00  0.00    +0.000 C 
ATOM     14  N   UNL     1       3.809   4.941  18.514  0.00  0.00    +0.000 NA
ATOM     15  C   UNL     1       2.918   5.115  19.489  0.00  0.00    +0.000 A 
ENDROOT
BRANCH   5  16
ATOM     16  C   UNL     1       1.932   8.665  18.884  0.00  0.00    +0.000 A 
ATOM     17  C   UNL     1       1.986   9.598  17.868  0.00  0.00    +0.000 A 
ATOM     18  N   UNL     1       1.506  10.860  17.940  0.00  0.00    +0.000 NA
ATOM     19  C   UNL     1       0.910  11.198  19.084  0.00  0.00    +0.000 A 
ATOM     20  N   UNL     1       0.486  12.501  19.209  0.00  0.00    +0.000 N 
ATOM     21  N   UNL     1       0.695  10.363  20.101  0.00  0.00    +0.000 NA
ATOM     22  C   UNL     1       1.211   9.114  19.977  0.00  0.00    +0.000 A 
ATOM     23  H   UNL     1       0.374  12.911  18.293  0.00  0.00    +0.000 HD
ATOM     24  H   UNL     1      -0.290  12.550  19.851  0.00  0.00    +0.000 HD
ENDBRANCH   5  16
BRANCH   1  25
ATOM     25  C   UNL     1       2.824   2.711  20.424  0.00  0.00    +0.000 C 
ATOM     26  C   UNL     1       2.498   2.010  21.755  0.00  0.00    +0.000 C 
ATOM     27  C   UNL     1       4.336   2.516  20.179  0.00  0.00    +0.000 C 
BRANCH  25  28
ATOM     28  C   UNL     1       2.026   2.022  19.280  0.00  0.00    +0.000 C 
BRANCH  28  30
ATOM     29  C   UNL     1       2.566   2.523  16.857  0.00  0.00    +0.000 C 
ATOM     30  C   UNL     1       2.879   1.643  18.058  0.00  0.00    +0.000 C 
ENDBRANCH  28  30
ENDBRANCH  25  28
ENDBRANCH   1  25
TORSDOF 4
ENDMDL
MODEL 6
REMARK VINA RESULT:      -6.4      7.770     11.556
REMARK  Name = 
REMARK  7 active torsions:
REMARK  status: ('A' for Active; 'I' for Inactive)
REMARK    1  A    between atoms: C_1  and  C_2
REMARK    2  A    between atoms: C_2  and  C_3
REMARK    3  A    between atoms: C_3  and  C_4
REMARK    4  A    between atoms: C_4  and  C_5
REMARK    5  A    between atoms: C_4  and  C_6
REMARK    6  A    between atoms: C_4  and  N_7
REMARK    7  A    between atoms: C_11  and  C_12
REMARK                            x       y       z     vdW  Elec       q    Type
REMARK                         _______ _______ _______ _____ _____    ______ ____
ROOT
ATOM      1  N   UNL     1       9.105  14.324  18.993  0.00  0.00    +0.000 N 
ATOM      2  C   UNL     1       8.633  15.040  17.806  0.00  0.00    +0.000 C 
ATOM      3  C   UNL     1       7.161  15.401  18.034  0.00  0.00    +0.000 C 
ATOM      4  C   UNL     1       6.936  14.939  19.428  0.00  0.00    +0.000 A 
ATOM      5  C   UNL     1       5.842  15.031  20.252  0.00  0.00    +0.000 A 
ATOM      6  N   UNL     1       5.906  14.568  21.522  0.00  0.00    +0.000 NA
ATOM      7  C   UNL     1       7.064  14.038  21.964  0.00  0.00    +0.000 A 
ATOM      8  N   UNL     1       7.146  13.655  23.281  0.00  0.00    +0.000 N 
ATOM      9  C   UNL     1       8.396  13.159  23.856  0.00  0.00    +0.000 C 
ATOM     10  C   UNL     1       8.273  11.671  24.221  0.00  0.00    +0.000 C 
ATOM     11  O   UNL     1       7.123  11.420  25.048  0.00  0.00    +0.000 OA
ATOM     12  C   UNL     1       5.924  11.820  24.362  0.00  0.00    +0.000 C 
ATOM     13  C   UNL     1       5.936  13.321  24.029  0.00  0.00    +0.000 C 
ATOM     14  N   UNL     1       8.150  13.923  21.190  0.00  0.00    +0.000 NA
ATOM     15  C   UNL     1       8.079  14.370  19.938  0.00  0.00    +0.000 A 
ENDROOT
BRANCH   5  16
ATOM     16  C   UNL     1       4.591  15.700  19.885  0.00  0.00    +0.000 A 
ATOM     17  C   UNL     1       3.544  15.099  19.213  0.00  0.00    +0.000 A 
ATOM     18  N   UNL     1       2.453  15.739  18.737  0.00  0.00    +0.000 NA
ATOM     19  C   UNL     1       2.388  17.049  18.973  0.00  0.00    +0.000 A 
ATOM     20  N   UNL     1       1.326  17.733  18.429  0.00  0.00    +0.000 N 
ATOM     21  N   UNL     1       3.274  17.731  19.701  0.00  0.00    +0.000 NA
ATOM     22  C   UNL     1       4.355  17.039  20.140  0.00  0.00    +0.000 A 
ATOM     23  H   UNL     1       0.574  17.090  18.230  0.00  0.00    +0.000 HD
ATOM     24  H   UNL     1       1.120  18.549  18.985  0.00  0.00    +0.000 HD
ENDBRANCH   5  16
BRANCH   1  25
ATOM     25  C   UNL     1      10.517  13.964  19.194  0.00  0.00    +0.000 C 
ATOM     26  C   UNL     1      11.224  14.784  20.289  0.00  0.00    +0.000 C 
ATOM     27  C   UNL     1      11.292  14.217  17.882  0.00  0.00    +0.000 C 
BRANCH  25  28
ATOM     28  C   UNL     1      10.604  12.453  19.557  0.00  0.00    +0.000 C 
BRANCH  28  30
ATOM     29  C   UNL     1       9.298  10.311  19.220  0.00  0.00    +0.000 C 
ATOM     30  C   UNL     1       9.918  11.523  18.543  0.00  0.00    +0.000 C 
ENDBRANCH  28  30
ENDBRANCH  25  28
ENDBRANCH   1  25
TORSDOF 4
ENDMDL
MODEL 7
REMARK VINA RESULT:      -6.3      5.301     10.165
REMARK  Name = 
REMARK  7 active torsions:
REMARK  status: ('A' for Active; 'I' for Inactive)
REMARK    1  A    between atoms: C_1  and  C_2
REMARK    2  A    between atoms: C_2  and  C_3
REMARK    3  A    between atoms: C_3  and  C_4
REMARK    4  A    between atoms: C_4  and  C_5
REMARK    5  A    between atoms: C_4  and  C_6
REMARK    6  A    between atoms: C_4  and  N_7
REMARK    7  A    between atoms: C_11  and  C_12
REMARK                            x       y       z     vdW  Elec       q    Type
REMARK                         _______ _______ _______ _____ _____    ______ ____
ROOT
ATOM      1  N   UNL     1       2.789   3.976  20.425  0.00  0.00    +0.000 N 
ATOM      2  C   UNL     1       1.790   4.579  21.309  0.00  0.00    +0.000 C 
ATOM      3  C   UNL     1       1.620   6.044  20.890  0.00  0.00    +0.000 C 
ATOM      4  C   UNL     1       2.488   6.129  19.687  0.00  0.00    +0.000 A 
ATOM      5  C   UNL     1       2.724   7.154  18.806  0.00  0.00    +0.000 A 
ATOM      6  N   UNL     1       3.536   6.963  17.741  0.00  0.00    +0.000 NA
ATOM      7  C   UNL     1       4.088   5.747  17.553  0.00  0.00    +0.000 A 
ATOM      8  N   UNL     1       4.836   5.538  16.419  0.00  0.00    +0.000 N 
ATOM      9  C   UNL     1       5.388   4.221  16.101  0.00  0.00    +0.000 C 
ATOM     10  C   UNL     1       6.922   4.239  16.193  0.00  0.00    +0.000 C 
ATOM     11  O   UNL     1       7.489   5.302  15.408  0.00  0.00    +0.000 OA
ATOM     12  C   UNL     1       6.993   6.572  15.864  0.00  0.00    +0.000 C 
ATOM     13  C   UNL     1       5.463   6.664  15.731  0.00  0.00    +0.000 C 
ATOM     14  N   UNL     1       3.890   4.725  18.394  0.00  0.00    +0.000 NA
ATOM     15  C   UNL     1       3.098   4.921  19.446  0.00  0.00    +0.000 A 
ENDROOT
BRANCH   5  16
ATOM     16  C   UNL     1       2.069   8.464  18.874  0.00  0.00    +0.000 A 
ATOM     17  C   UNL     1       1.277   8.894  19.921  0.00  0.00    +0.000 A 
ATOM     18  N   UNL     1       0.548  10.032  19.932  0.00  0.00    +0.000 NA
ATOM     19  C   UNL     1       0.640  10.800  18.846  0.00  0.00    +0.000 A 
ATOM     20  N   UNL     1      -0.155  11.922  18.802  0.00  0.00    +0.000 N 
ATOM     21  N   UNL     1       1.448  10.557  17.813  0.00  0.00    +0.000 NA
ATOM     22  C   UNL     1       2.145   9.393  17.853  0.00  0.00    +0.000 A 
ATOM     23  H   UNL     1      -0.426  12.183  19.738  0.00  0.00    +0.000 HD
ATOM     24  H   UNL     1       0.272  12.624  18.216  0.00  0.00    +0.000 HD
ENDBRANCH   5  16
BRANCH   1  25
ATOM     25  C   UNL     1       3.088   2.535  20.432  0.00  0.00    +0.000 C 
ATOM     26  C   UNL     1       2.467   1.770  21.614  0.00  0.00    +0.000 C 
ATOM     27  C   UNL     1       4.617   2.340  20.533  0.00  0.00    +0.000 C 
BRANCH  25  28
ATOM     28  C   UNL     1       2.579   1.910  19.100  0.00  0.00    +0.000 C 
BRANCH  28  30
ATOM     29  C   UNL     1       0.375   2.974  18.451  0.00  0.00    +0.000 C 
ATOM     30  C   UNL     1       1.053   1.741  19.027  0.00  0.00    +0.000 C 
ENDBRANCH  28  30
ENDBRANCH  25  28
ENDBRANCH   1  25
TORSDOF 4
ENDMDL
MODEL 8
REMARK VINA RESULT:      -6.3     10.967     13.105
REMARK  Name = 
REMARK  7 active torsions:
REMARK  status: ('A' for Active; 'I' for Inactive)
REMARK    1  A    between atoms: C_1  and  C_2
REMARK    2  A    between atoms: C_2  and  C_3
REMARK    3  A    between atoms: C_3  and  C_4
REMARK    4  A    between atoms: C_4  and  C_5
REMARK    5  A    between atoms: C_4  and  C_6
REMARK    6  A    between atoms: C_4  and  N_7
REMARK    7  A    between atoms: C_11  and  C_12
REMARK                            x       y       z     vdW  Elec       q    Type
REMARK                         _______ _______ _______ _____ _____    ______ ____
ROOT
ATOM      1  N   UNL     1       9.505  12.135  20.048  0.00  0.00    +0.000 N 
ATOM      2  C   UNL     1       9.085  11.450  21.273  0.00  0.00    +0.000 C 
ATOM      3  C   UNL     1       8.929  12.510  22.369  0.00  0.00    +0.000 C 
ATOM      4  C   UNL     1       9.176  13.771  21.624  0.00  0.00    +0.000 A 
ATOM      5  C   UNL     1       9.121  15.086  22.016  0.00  0.00    +0.000 A 
ATOM      6  N   UNL     1       9.344  16.074  21.119  0.00  0.00    +0.000 NA
ATOM      7  C   UNL     1       9.601  15.743  19.837  0.00  0.00    +0.000 A 
ATOM      8  N   UNL     1       9.736  16.754  18.917  0.00  0.00    +0.000 N 
ATOM      9  C   UNL     1       9.922  16.472  17.494  0.00  0.00    +0.000 C 
ATOM     10  C   UNL     1      11.326  16.895  17.035  0.00  0.00    +0.000 C 
ATOM     11  O   UNL     1      11.612  18.259  17.390  0.00  0.00    +0.000 OA
ATOM     12  C   UNL     1      11.531  18.427  18.816  0.00  0.00    +0.000 C 
ATOM     13  C   UNL     1      10.126  18.095  19.346  0.00  0.00    +0.000 C 
ATOM     14  N   UNL     1       9.673  14.474  19.417  0.00  0.00    +0.000 NA
ATOM     15  C   UNL     1       9.462  13.505  20.306  0.00  0.00    +0.000 A 
ENDROOT
BRANCH   5  16
ATOM     16  C   UNL     1       8.731  15.527  23.358  0.00  0.00    +0.000 A 
ATOM     17  C   UNL     1       9.606  15.717  24.410  0.00  0.00    +0.000 A 
ATOM     18  N   UNL     1       9.248  15.976  25.687  0.00  0.00    +0.000 NA
ATOM     19  C   UNL     1       7.939  16.083  25.921  0.00  0.00    +0.000 A 
ATOM     20  N   UNL     1       7.549  16.268  27.227  0.00  0.00    +0.000 N 
ATOM     21  N   UNL     1       6.996  16.030  24.980  0.00  0.00    +0.000 NA
ATOM     22  C   UNL     1       7.415  15.754  23.719  0.00  0.00    +0.000 A 
ATOM     23  H   UNL     1       8.318  16.642  27.762  0.00  0.00    +0.000 HD
ATOM     24  H   UNL     1       6.666  16.755  27.257  0.00  0.00    +0.000 HD
ENDBRANCH   5  16
BRANCH   1  25
ATOM     25  C   UNL     1       9.596  11.451  18.748  0.00  0.00    +0.000 C 
ATOM     26  C   UNL     1      10.992  11.517  18.102  0.00  0.00    +0.000 C 
ATOM     27  C   UNL     1       8.618  12.121  17.759  0.00  0.00    +0.000 C 
BRANCH  25  28
ATOM     28  C   UNL     1       9.194   9.960  18.935  0.00  0.00    +0.000 C 
BRANCH  28  30
ATOM     29  C   UNL     1       8.017   7.933  17.978  0.00  0.00    +0.000 C 
ATOM     30  C   UNL     1       8.202   9.439  17.883  0.00  0.00    +0.000 C 
ENDBRANCH  28  30
ENDBRANCH  25  28
ENDBRANCH   1  25
TORSDOF 4
ENDMDL
MODEL 9
REMARK VINA RESULT:      -6.3      3.499      6.697
REMARK  Name = 
REMARK  7 active torsions:
REMARK  status: ('A' for Active; 'I' for Inactive)
REMARK    1  A    between atoms: C_1  and  C_2
REMARK    2  A    between atoms: C_2  and  C_3
REMARK    3  A    between atoms: C_3  and  C_4
REMARK    4  A    between atoms: C_4  and  C_5
REMARK    5  A    between atoms: C_4  and  C_6
REMARK    6  A    between atoms: C_4  and  N_7
REMARK    7  A    between atoms: C_11  and  C_12
REMARK                            x       y       z     vdW  Elec       q    Type
REMARK                         _______ _______ _______ _____ _____    ______ ____
ROOT
ATOM      1  N   UNL     1       1.124  11.439  18.925  0.00  0.00    +0.000 N 
ATOM      2  C   UNL     1       2.287  11.885  18.157  0.00  0.00    +0.000 C 
ATOM      3  C   UNL     1       2.703  13.259  18.695  0.00  0.00    +0.000 C 
ATOM      4  C   UNL     1       1.775  13.441  19.841  0.00  0.00    +0.000 A 
ATOM      5  C   UNL     1       1.672  14.437  20.780  0.00  0.00    +0.000 A 
ATOM      6  N   UNL     1       0.757  14.345  21.772  0.00  0.00    +0.000 NA
ATOM      7  C   UNL     1      -0.033  13.254  21.831  0.00  0.00    +0.000 A 
ATOM      8  N   UNL     1      -0.895  13.128  22.893  0.00  0.00    +0.000 N 
ATOM      9  C   UNL     1      -1.715  11.930  23.074  0.00  0.00    +0.000 C 
ATOM     10  C   UNL     1      -3.204  12.256  22.882  0.00  0.00    +0.000 C 
ATOM     11  O   UNL     1      -3.615  13.361  23.707  0.00  0.00    +0.000 OA
ATOM     12  C   UNL     1      -2.848  14.533  23.382  0.00  0.00    +0.000 C 
ATOM     13  C   UNL     1      -1.346  14.311  23.622  0.00  0.00    +0.000 C 
ATOM     14  N   UNL     1       0.030  12.266  20.930  0.00  0.00    +0.000 NA
ATOM     15  C   UNL     1       0.925  12.365  19.949  0.00  0.00    +0.000 A 
ENDROOT
BRANCH   5  16
ATOM     16  C   UNL     1       2.571  15.592  20.854  0.00  0.00    +0.000 A 
ATOM     17  C   UNL     1       2.585  16.638  19.951  0.00  0.00    +0.000 A 
ATOM     18  N   UNL     1       3.504  17.629  19.920  0.00  0.00    +0.000 NA
ATOM     19  C   UNL     1       4.444  17.591  20.865  0.00  0.00    +0.000 A 
ATOM     20  N   UNL     1       5.433  18.544  20.804  0.00  0.00    +0.000 N 
ATOM     21  N   UNL     1       4.482  16.702  21.858  0.00  0.00    +0.000 NA
ATOM     22  C   UNL     1       3.543  15.723  21.830  0.00  0.00    +0.000 A 
ATOM     23  H   UNL     1       5.111  19.335  20.266  0.00  0.00    +0.000 HD
ATOM     24  H   UNL     1       5.805  18.715  21.726  0.00  0.00    +0.000 HD
ENDBRANCH   5  16
BRANCH   1  25
ATOM     25  C   UNL     1       0.553  10.089  18.789  0.00  0.00    +0.000 C 
ATOM     26  C   UNL     1      -0.893  10.070  18.263  0.00  0.00    +0.000 C 
ATOM     27  C   UNL     1       0.529   9.413  20.177  0.00  0.00    +0.000 C 
BRANCH  25  28
ATOM     28  C   UNL     1       1.453   9.258  17.830  0.00  0.00    +0.000 C 
BRANCH  28  30
ATOM     29  C   UNL     1       3.330   7.569  17.643  0.00  0.00    +0.000 C 
ATOM     30  C   UNL     1       2.206   8.105  18.515  0.00  0.00    +0.000 C 
ENDBRANCH  28  30
ENDBRANCH  25  28
ENDBRANCH   1  25
TORSDOF 4
ENDMDL
